MODEL        1
REMARK 921   NORMALIZED FREE ENERGY PREDICTED BY IDOCK:   -8.43 KCAL/MOL
REMARK 922        TOTAL FREE ENERGY PREDICTED BY IDOCK:  -10.68 KCAL/MOL
REMARK 923 INTER-LIGAND FREE ENERGY PREDICTED BY IDOCK:   -9.91 KCAL/MOL
REMARK 924 INTRA-LIGAND FREE ENERGY PREDICTED BY IDOCK:   -0.77 KCAL/MOL
REMARK 927      BINDING AFFINITY PREDICTED BY RF-SCORE:    0.00 PKD
ROOT
HETATM    1  C   UNL     1      -6.632  20.615  68.309  1.00  0.00    -0.254 C  
HETATM    2  N   UNL     1      -7.592  19.548  68.001  1.00  0.00    -0.287 NA 
HETATM    3  C   UNL     1      -8.721  19.644  68.936  1.00  0.00    -0.186 C  
HETATM    4  C   UNL     1      -9.831  18.610  68.761  1.00  0.00    -0.422 C  
HETATM    5  C   UNL     1     -10.646  18.822  67.486  1.00  0.00    -0.497 C  
HETATM    6  C   UNL     1     -10.067  18.109  66.253  1.00  0.00    -0.371 C  
HETATM    7  C   UNL     1      -7.961  19.586  66.578  1.00  0.00    -0.301 C  
HETATM    8  C   UNL     1      -8.546  18.257  66.084  1.00  0.00    -0.127 C  
ENDROOT
BRANCH   6   9
HETATM    9  N   UNL     1     -10.478  16.684  66.177  1.00  0.00    -0.311 N  
HETATM   10  N   UNL     1     -10.302  15.926  67.308  1.00  0.00    -0.286 NA 
HETATM   11  C   UNL     1     -10.690  14.689  67.340  1.00  0.00    -0.280 C  
HETATM   12  O   UNL     1     -11.167  16.842  63.967  1.00  0.00    -1.037 OA 
HETATM   13  C   UNL     1     -11.305  14.016  66.178  1.00  0.00    -0.322 A  
HETATM   14  C   UNL     1     -11.752  12.689  66.205  1.00  0.00    -0.460 A  
HETATM   15  C   UNL     1     -11.019  16.182  64.996  1.00  0.00    -0.344 C  
HETATM   16  C   UNL     1     -12.361  12.134  65.075  1.00  0.00    -0.196 A  
HETATM   17  C   UNL     1     -11.458  14.773  65.018  1.00  0.00    -0.389 A  
HETATM   18  C   UNL     1     -12.510  12.891  63.915  1.00  0.00    -0.417 A  
HETATM   19  C   UNL     1     -12.056  14.208  63.882  1.00  0.00    -0.301 A  
BRANCH  11  20
HETATM   20  C   UNL     1     -10.534  13.959  68.669  1.00  0.00    -0.249 C  
BRANCH  20  21
HETATM   21  C   UNL     1     -11.369  14.474  69.821  1.00  0.00    -0.305 A  
HETATM   22 CL   UNL     1     -13.533  15.880  73.547  1.00  0.00    -0.509 Cl 
HETATM   23  C   UNL     1     -12.484  13.775  70.307  1.00  0.00    -0.357 A  
HETATM   24  C   UNL     1     -11.612  16.058  71.663  1.00  0.00    -0.538 A  
HETATM   25  C   UNL     1     -13.162  14.220  71.449  1.00  0.00    -0.419 A  
HETATM   26  C   UNL     1     -10.939  15.617  70.519  1.00  0.00    -0.371 A  
HETATM   27  C   UNL     1     -12.721  15.357  72.123  1.00  0.00    -0.373 A  
ENDBRANCH  20  21
ENDBRANCH  11  20
ENDBRANCH   6   9
TORSDOF 3
ENDMDL
MODEL        2
REMARK 921   NORMALIZED FREE ENERGY PREDICTED BY IDOCK:   -8.06 KCAL/MOL
REMARK 922        TOTAL FREE ENERGY PREDICTED BY IDOCK:  -10.25 KCAL/MOL
REMARK 923 INTER-LIGAND FREE ENERGY PREDICTED BY IDOCK:   -9.31 KCAL/MOL
REMARK 924 INTRA-LIGAND FREE ENERGY PREDICTED BY IDOCK:   -0.94 KCAL/MOL
REMARK 927      BINDING AFFINITY PREDICTED BY RF-SCORE:    0.00 PKD
ROOT
HETATM    1  C   UNL     1      -7.025  19.947  68.891  1.00  0.00    -0.310 C  
HETATM    2  N   UNL     1      -7.863  18.869  68.351  1.00  0.00    -0.313 NA 
HETATM    3  C   UNL     1      -9.138  18.851  69.079  1.00  0.00    -0.160 C  
HETATM    4  C   UNL     1     -10.147  17.790  68.644  1.00  0.00    -0.384 C  
HETATM    5  C   UNL     1     -10.741  18.064  67.265  1.00  0.00    -0.305 C  
HETATM    6  C   UNL     1      -9.924  17.467  66.107  1.00  0.00    -0.270 C  
HETATM    7  C   UNL     1      -7.984  18.997  66.891  1.00  0.00    -0.259 C  
HETATM    8  C   UNL     1      -8.407  17.687  66.215  1.00  0.00    -0.251 C  
ENDROOT
BRANCH   6   9
HETATM    9  N   UNL     1     -10.243  16.037  65.865  1.00  0.00    -0.343 N  
HETATM   10  N   UNL     1      -9.727  15.128  66.755  1.00  0.00    -0.233 NA 
HETATM   11  C   UNL     1     -10.007  13.867  66.647  1.00  0.00    -0.279 C  
HETATM   12  O   UNL     1     -11.493  16.478  63.961  1.00  0.00    -1.137 OA 
HETATM   13  C   UNL     1     -10.856  13.328  65.564  1.00  0.00    -0.297 A  
HETATM   14  C   UNL     1     -11.189  11.973  65.449  1.00  0.00    -0.374 A  
HETATM   15  C   UNL     1     -11.037  15.679  64.779  1.00  0.00    -0.412 C  
HETATM   16  C   UNL     1     -12.031  11.546  64.418  1.00  0.00    -0.008 A  
HETATM   17  C   UNL     1     -11.357  14.244  64.641  1.00  0.00    -0.375 A  
HETATM   18  C   UNL     1     -12.529  12.463  63.493  1.00  0.00    -0.605 A  
HETATM   19  C   UNL     1     -12.190  13.810  63.600  1.00  0.00    -0.311 A  
BRANCH  11  20
HETATM   20  C   UNL     1      -9.461  12.950  67.735  1.00  0.00    -0.202 C  
BRANCH  20  21
HETATM   21  C   UNL     1     -10.474  12.372  68.699  1.00  0.00    -0.224 A  
HETATM   22 CL   UNL     1     -13.250  10.805  71.921  1.00  0.00    -0.571 Cl 
HETATM   23  C   UNL     1     -10.535  11.000  68.985  1.00  0.00    -0.242 A  
HETATM   24  C   UNL     1     -12.156  12.764  70.425  1.00  0.00    -0.382 A  
HETATM   25  C   UNL     1     -11.405  10.515  69.969  1.00  0.00    -0.392 A  
HETATM   26  C   UNL     1     -11.291  13.247  69.438  1.00  0.00    -0.280 A  
HETATM   27  C   UNL     1     -12.209  11.399  70.686  1.00  0.00    -0.389 A  
ENDBRANCH  20  21
ENDBRANCH  11  20
ENDBRANCH   6   9
TORSDOF 3
ENDMDL
MODEL        3
REMARK 921   NORMALIZED FREE ENERGY PREDICTED BY IDOCK:   -7.88 KCAL/MOL
REMARK 922        TOTAL FREE ENERGY PREDICTED BY IDOCK:  -10.03 KCAL/MOL
REMARK 923 INTER-LIGAND FREE ENERGY PREDICTED BY IDOCK:   -9.29 KCAL/MOL
REMARK 924 INTRA-LIGAND FREE ENERGY PREDICTED BY IDOCK:   -0.74 KCAL/MOL
REMARK 927      BINDING AFFINITY PREDICTED BY RF-SCORE:    0.00 PKD
ROOT
HETATM    1  C   UNL     1     -12.000  11.901  63.220  1.00  0.00    -0.337 C  
HETATM    2  N   UNL     1     -11.904  12.224  64.649  1.00  0.00    -0.371 NA 
HETATM    3  C   UNL     1     -10.755  11.508  65.219  1.00  0.00    -0.279 C  
HETATM    4  C   UNL     1     -10.494  11.732  66.707  1.00  0.00    -0.260 C  
HETATM    5  C   UNL     1      -9.991  13.139  67.019  1.00  0.00    -0.244 C  
HETATM    6  C   UNL     1     -11.113  14.159  67.272  1.00  0.00    -0.305 C  
HETATM    7  C   UNL     1     -11.886  13.681  64.843  1.00  0.00    -0.375 C  
HETATM    8  C   UNL     1     -12.276  14.092  66.269  1.00  0.00    -0.474 C  
ENDROOT
BRANCH   6   9
HETATM    9  N   UNL     1     -11.610  14.121  68.671  1.00  0.00    -0.296 N  
HETATM   10  N   UNL     1     -12.130  12.929  69.112  1.00  0.00    -0.231 NA 
HETATM   11  C   UNL     1     -12.531  12.798  70.338  1.00  0.00    -0.156 C  
HETATM   12  O   UNL     1     -11.080  16.342  69.082  1.00  0.00    -0.312 OA 
HETATM   13  C   UNL     1     -12.486  13.905  71.315  1.00  0.00    -0.440 A  
HETATM   14  C   UNL     1     -12.890  13.772  72.648  1.00  0.00    -0.311 A  
HETATM   15  C   UNL     1     -11.527  15.261  69.466  1.00  0.00    -0.305 C  
HETATM   16  C   UNL     1     -12.780  14.857  73.524  1.00  0.00    -0.629 A  
HETATM   17  C   UNL     1     -11.987  15.125  70.863  1.00  0.00    -0.378 A  
HETATM   18  C   UNL     1     -12.285  16.078  73.069  1.00  0.00    -0.637 A  
HETATM   19  C   UNL     1     -11.891  16.215  71.740  1.00  0.00    -0.581 A  
BRANCH  11  20
HETATM   20  C   UNL     1     -13.006  11.412  70.756  1.00  0.00    -0.135 C  
BRANCH  20  21
HETATM   21  C   UNL     1     -11.930  10.387  71.040  1.00  0.00    -0.481 A  
HETATM   22 CL   UNL     1      -8.831   7.113  71.507  1.00  0.00    -0.127 Cl 
HETATM   23  C   UNL     1     -12.088   9.386  72.011  1.00  0.00    -0.379 A  
HETATM   24  C   UNL     1      -9.828   9.344  70.366  1.00  0.00    -0.313 A  
HETATM   25  C   UNL     1     -11.122   8.385  72.165  1.00  0.00    -0.415 A  
HETATM   26  C   UNL     1     -10.791  10.347  70.216  1.00  0.00    -0.308 A  
HETATM   27  C   UNL     1      -9.999   8.366  71.340  1.00  0.00    -0.213 A  
ENDBRANCH  20  21
ENDBRANCH  11  20
ENDBRANCH   6   9
TORSDOF 3
ENDMDL
MODEL        4
REMARK 921   NORMALIZED FREE ENERGY PREDICTED BY IDOCK:   -7.76 KCAL/MOL
REMARK 922        TOTAL FREE ENERGY PREDICTED BY IDOCK:   -9.90 KCAL/MOL
REMARK 923 INTER-LIGAND FREE ENERGY PREDICTED BY IDOCK:   -8.93 KCAL/MOL
REMARK 924 INTRA-LIGAND FREE ENERGY PREDICTED BY IDOCK:   -0.97 KCAL/MOL
REMARK 927      BINDING AFFINITY PREDICTED BY RF-SCORE:    0.00 PKD
ROOT
HETATM    1  C   UNL     1      -9.759  10.406  63.397  1.00  0.00    -0.263 C  
HETATM    2  N   UNL     1     -10.088  10.953  64.719  1.00  0.00    -0.297 NA 
HETATM    3  C   UNL     1      -8.867  10.983  65.535  1.00  0.00    -0.169 C  
HETATM    4  C   UNL     1      -9.018  11.533  66.952  1.00  0.00    -0.179 C  
HETATM    5  C   UNL     1      -9.281  13.037  66.982  1.00  0.00    -0.232 C  
HETATM    6  C   UNL     1     -10.770  13.410  66.898  1.00  0.00    -0.273 C  
HETATM    7  C   UNL     1     -10.774  12.247  64.581  1.00  0.00    -0.308 C  
HETATM    8  C   UNL     1     -11.565  12.633  65.837  1.00  0.00    -0.443 C  
ENDROOT
BRANCH   6   9
HETATM    9  N   UNL     1     -11.444  13.353  68.220  1.00  0.00    -0.293 N  
HETATM   10  N   UNL     1     -11.817  12.113  68.674  1.00  0.00    -0.318 NA 
HETATM   11  C   UNL     1     -12.358  11.973  69.844  1.00  0.00    -0.074 C  
HETATM   12  O   UNL     1     -11.350  15.650  68.538  1.00  0.00    -0.322 OA 
HETATM   13  C   UNL     1     -12.633  13.117  70.737  1.00  0.00    -0.338 A  
HETATM   14  C   UNL     1     -13.192  12.980  72.014  1.00  0.00    -0.543 A  
HETATM   15  C   UNL     1     -11.661  14.527  68.937  1.00  0.00    -0.319 C  
HETATM   16  C   UNL     1     -13.385  14.109  72.817  1.00  0.00    -0.618 A  
HETATM   17  C   UNL     1     -12.283  14.382  70.268  1.00  0.00    -0.397 A  
HETATM   18  C   UNL     1     -13.038  15.373  72.345  1.00  0.00    -0.501 A  
HETATM   19  C   UNL     1     -12.491  15.513  71.071  1.00  0.00    -0.492 A  
BRANCH  11  20
HETATM   20  C   UNL     1     -12.653  10.547  70.294  1.00  0.00    -0.306 C  
BRANCH  20  21
HETATM   21  C   UNL     1     -11.485   9.760  70.847  1.00  0.00    -0.447 A  
HETATM   22 CL   UNL     1      -7.987   7.693  72.855  1.00  0.00    -0.125 Cl 
HETATM   23  C   UNL     1     -10.187   9.885  70.329  1.00  0.00    -0.322 A  
HETATM   24  C   UNL     1     -10.596   8.335  72.618  1.00  0.00    -0.378 A  
HETATM   25  C   UNL     1      -9.110   9.233  70.941  1.00  0.00    -0.288 A  
HETATM   26  C   UNL     1     -11.672   8.983  72.004  1.00  0.00    -0.417 A  
HETATM   27  C   UNL     1      -9.318   8.464  72.083  1.00  0.00    -0.269 A  
ENDBRANCH  20  21
ENDBRANCH  11  20
ENDBRANCH   6   9
TORSDOF 3
ENDMDL
MODEL        5
REMARK 921   NORMALIZED FREE ENERGY PREDICTED BY IDOCK:   -7.69 KCAL/MOL
REMARK 922        TOTAL FREE ENERGY PREDICTED BY IDOCK:   -9.81 KCAL/MOL
REMARK 923 INTER-LIGAND FREE ENERGY PREDICTED BY IDOCK:   -8.91 KCAL/MOL
REMARK 924 INTRA-LIGAND FREE ENERGY PREDICTED BY IDOCK:   -0.90 KCAL/MOL
REMARK 927      BINDING AFFINITY PREDICTED BY RF-SCORE:    0.00 PKD
ROOT
HETATM    1  C   UNL     1      -8.526   7.712  66.496  1.00  0.00    -0.133 C  
HETATM    2  N   UNL     1      -9.139   8.770  67.308  1.00  0.00    -0.131 NA 
HETATM    3  C   UNL     1      -8.073   9.568  67.928  1.00  0.00    -0.106 C  
HETATM    4  C   UNL     1      -8.527  10.729  68.810  1.00  0.00    -0.148 C  
HETATM    5  C   UNL     1      -9.155  11.871  68.014  1.00  0.00    -0.189 C  
HETATM    6  C   UNL     1     -10.669  11.715  67.794  1.00  0.00    -0.204 C  
HETATM    7  C   UNL     1     -10.102   9.538  66.505  1.00  0.00    -0.256 C  
HETATM    8  C   UNL     1     -11.111  10.307  67.367  1.00  0.00    -0.261 C  
ENDROOT
BRANCH   6   9
HETATM    9  N   UNL     1     -11.463  12.199  68.951  1.00  0.00    -0.272 N  
HETATM   10  N   UNL     1     -11.952  11.246  69.810  1.00  0.00    -0.336 NA 
HETATM   11  C   UNL     1     -12.606  11.591  70.875  1.00  0.00    -0.341 C  
HETATM   12  O   UNL     1     -11.260  14.432  68.354  1.00  0.00    -0.252 OA 
HETATM   13  C   UNL     1     -12.892  13.000  71.214  1.00  0.00    -0.370 A  
HETATM   14  C   UNL     1     -13.573  13.389  72.374  1.00  0.00    -0.708 A  
HETATM   15  C   UNL     1     -11.675  13.565  69.123  1.00  0.00    -0.327 C  
HETATM   16  C   UNL     1     -13.771  14.747  72.646  1.00  0.00    -0.547 A  
HETATM   17  C   UNL     1     -12.424  13.969  70.329  1.00  0.00    -0.403 A  
HETATM   18  C   UNL     1     -13.306  15.715  71.757  1.00  0.00    -0.541 A  
HETATM   19  C   UNL     1     -12.636  15.329  70.598  1.00  0.00    -0.471 A  
BRANCH  11  20
HETATM   20  C   UNL     1     -13.027  10.465  71.812  1.00  0.00    -0.580 C  
BRANCH  20  21
HETATM   21  C   UNL     1     -12.269   9.161  71.681  1.00  0.00    -0.433 A  
HETATM   22 CL   UNL     1     -10.178   5.140  71.692  1.00  0.00    -0.267 Cl 
HETATM   23  C   UNL     1     -10.886   9.075  71.901  1.00  0.00    -0.413 A  
HETATM   24  C   UNL     1     -12.344   6.731  71.461  1.00  0.00    -0.407 A  
HETATM   25  C   UNL     1     -10.239   7.834  71.888  1.00  0.00    -0.250 A  
HETATM   26  C   UNL     1     -12.989   7.972  71.469  1.00  0.00    -0.326 A  
HETATM   27  C   UNL     1     -10.970   6.668  71.671  1.00  0.00    -0.241 A  
ENDBRANCH  20  21
ENDBRANCH  11  20
ENDBRANCH   6   9
TORSDOF 3
ENDMDL
MODEL        6
REMARK 921   NORMALIZED FREE ENERGY PREDICTED BY IDOCK:   -7.51 KCAL/MOL
REMARK 922        TOTAL FREE ENERGY PREDICTED BY IDOCK:   -9.60 KCAL/MOL
REMARK 923 INTER-LIGAND FREE ENERGY PREDICTED BY IDOCK:   -8.71 KCAL/MOL
REMARK 924 INTRA-LIGAND FREE ENERGY PREDICTED BY IDOCK:   -0.89 KCAL/MOL
REMARK 927      BINDING AFFINITY PREDICTED BY RF-SCORE:    0.00 PKD
ROOT
HETATM    1  C   UNL     1     -12.352  15.909  74.558  1.00  0.00    -0.602 C  
HETATM    2  N   UNL     1     -12.321  15.298  73.224  1.00  0.00    -0.432 NA 
HETATM    3  C   UNL     1     -13.681  14.875  72.865  1.00  0.00    -0.327 C  
HETATM    4  C   UNL     1     -13.844  14.220  71.496  1.00  0.00    -0.428 C  
HETATM    5  C   UNL     1     -13.660  15.201  70.340  1.00  0.00     0.129 C  
HETATM    6  C   UNL     1     -12.202  15.344  69.872  1.00  0.00    -0.334 C  
HETATM    7  C   UNL     1     -11.680  16.206  72.261  1.00  0.00    -0.465 C  
HETATM    8  C   UNL     1     -11.176  15.479  71.008  1.00  0.00    -0.419 C  
ENDROOT
BRANCH   6   9
HETATM    9  N   UNL     1     -11.807  14.278  68.916  1.00  0.00    -0.325 N  
HETATM   10  N   UNL     1     -11.971  12.980  69.331  1.00  0.00    -0.303 NA 
HETATM   11  C   UNL     1     -11.704  11.994  68.534  1.00  0.00    -0.332 C  
HETATM   12  O   UNL     1     -11.132  15.781  67.282  1.00  0.00    -0.302 OA 
HETATM   13  C   UNL     1     -11.185  12.192  67.165  1.00  0.00    -0.372 A  
HETATM   14  C   UNL     1     -10.917  11.139  66.283  1.00  0.00    -0.227 A  
HETATM   15  C   UNL     1     -11.303  14.623  67.665  1.00  0.00    -0.336 C  
HETATM   16  C   UNL     1     -10.466  11.410  64.987  1.00  0.00    -0.361 A  
HETATM   17  C   UNL     1     -10.988  13.508  66.750  1.00  0.00    -0.297 A  
HETATM   18  C   UNL     1     -10.265  12.726  64.575  1.00  0.00    -0.333 A  
HETATM   19  C   UNL     1     -10.522  13.776  65.455  1.00  0.00    -0.342 A  
BRANCH  11  20
HETATM   20  C   UNL     1     -12.005  10.594  69.055  1.00  0.00    -0.186 C  
BRANCH  20  21
HETATM   21  C   UNL     1     -11.021  10.019  70.051  1.00  0.00    -0.352 A  
HETATM   22 CL   UNL     1      -8.011   7.958  72.740  1.00  0.00    -0.157 Cl 
HETATM   23  C   UNL     1     -11.437   9.368  71.222  1.00  0.00    -0.433 A  
HETATM   24  C   UNL     1      -8.720   9.387  70.566  1.00  0.00    -0.276 A  
HETATM   25  C   UNL     1     -10.504   8.746  72.060  1.00  0.00    -0.414 A  
HETATM   26  C   UNL     1      -9.652  10.013  69.731  1.00  0.00    -0.249 A  
HETATM   27  C   UNL     1      -9.151   8.755  71.727  1.00  0.00    -0.235 A  
ENDBRANCH  20  21
ENDBRANCH  11  20
ENDBRANCH   6   9
TORSDOF 3
ENDMDL
MODEL        7
REMARK 921   NORMALIZED FREE ENERGY PREDICTED BY IDOCK:   -7.32 KCAL/MOL
REMARK 922        TOTAL FREE ENERGY PREDICTED BY IDOCK:   -9.37 KCAL/MOL
REMARK 923 INTER-LIGAND FREE ENERGY PREDICTED BY IDOCK:   -9.42 KCAL/MOL
REMARK 924 INTRA-LIGAND FREE ENERGY PREDICTED BY IDOCK:    0.05 KCAL/MOL
REMARK 927      BINDING AFFINITY PREDICTED BY RF-SCORE:    0.00 PKD
ROOT
HETATM    1  C   UNL     1     -10.109   6.004  73.787  1.00  0.00    -0.229 C  
HETATM    2  N   UNL     1     -10.356   7.274  73.092  1.00  0.00    -0.277 NA 
HETATM    3  C   UNL     1      -9.201   7.576  72.236  1.00  0.00    -0.138 C  
HETATM    4  C   UNL     1      -9.284   8.867  71.425  1.00  0.00    -0.328 C  
HETATM    5  C   UNL     1     -10.316   8.799  70.301  1.00  0.00    -0.227 C  
HETATM    6  C   UNL     1     -11.732   9.219  70.731  1.00  0.00    -0.269 C  
HETATM    7  C   UNL     1     -11.650   7.232  72.395  1.00  0.00    -0.268 C  
HETATM    8  C   UNL     1     -12.193   8.630  72.074  1.00  0.00    -0.439 C  
ENDROOT
BRANCH   6   9
HETATM    9  N   UNL     1     -11.921  10.691  70.698  1.00  0.00    -0.337 N  
HETATM   10  N   UNL     1     -11.186  11.391  69.773  1.00  0.00    -0.230 NA 
HETATM   11  C   UNL     1     -11.337  12.672  69.642  1.00  0.00    -0.104 C  
HETATM   12  O   UNL     1     -13.470  10.686  72.426  1.00  0.00    -0.242 OA 
HETATM   13  C   UNL     1     -12.266  13.455  70.482  1.00  0.00    -0.425 A  
HETATM   14  C   UNL     1     -12.459  14.834  70.336  1.00  0.00    -0.405 A  
HETATM   15  C   UNL     1     -12.816  11.294  71.578  1.00  0.00    -0.414 C  
HETATM   16  C   UNL     1     -13.387  15.499  71.143  1.00  0.00    -0.553 A  
HETATM   17  C   UNL     1     -12.991  12.754  71.443  1.00  0.00    -0.359 A  
HETATM   18  C   UNL     1     -14.109  14.797  72.107  1.00  0.00    -0.604 A  
HETATM   19  C   UNL     1     -13.911  13.427  72.261  1.00  0.00    -0.671 A  
BRANCH  11  20
HETATM   20  C   UNL     1     -10.544  13.342  68.527  1.00  0.00    -0.264 C  
BRANCH  20  21
HETATM   21  C   UNL     1     -10.992  13.049  67.112  1.00  0.00    -0.293 A  
HETATM   22 CL   UNL     1     -12.713  11.992  63.054  1.00  0.00    -0.337 Cl 
HETATM   23  C   UNL     1     -10.462  11.986  66.365  1.00  0.00    -0.267 A  
HETATM   24  C   UNL     1     -12.596  13.456  65.316  1.00  0.00    -0.518 A  
HETATM   25  C   UNL     1     -10.983  11.671  65.104  1.00  0.00    -0.326 A  
HETATM   26  C   UNL     1     -12.070  13.773  66.573  1.00  0.00    -0.483 A  
HETATM   27  C   UNL     1     -12.049  12.404  64.587  1.00  0.00    -0.415 A  
ENDBRANCH  20  21
ENDBRANCH  11  20
ENDBRANCH   6   9
TORSDOF 3
ENDMDL
MODEL        8
REMARK 921   NORMALIZED FREE ENERGY PREDICTED BY IDOCK:   -7.28 KCAL/MOL
REMARK 922        TOTAL FREE ENERGY PREDICTED BY IDOCK:   -9.33 KCAL/MOL
REMARK 923 INTER-LIGAND FREE ENERGY PREDICTED BY IDOCK:   -8.72 KCAL/MOL
REMARK 924 INTRA-LIGAND FREE ENERGY PREDICTED BY IDOCK:   -0.62 KCAL/MOL
REMARK 927      BINDING AFFINITY PREDICTED BY RF-SCORE:    0.00 PKD
ROOT
HETATM    1  C   UNL     1      -8.743  10.337  63.081  1.00  0.00    -0.207 C  
HETATM    2  N   UNL     1      -9.371  11.209  64.081  1.00  0.00    -0.196 NA 
HETATM    3  C   UNL     1     -10.228  12.180  63.389  1.00  0.00    -0.388 C  
HETATM    4  C   UNL     1     -10.975  13.173  64.278  1.00  0.00    -0.428 C  
HETATM    5  C   UNL     1     -12.084  12.520  65.099  1.00  0.00    -0.503 C  
HETATM    6  C   UNL     1     -11.613  11.973  66.456  1.00  0.00    -0.314 C  
HETATM    7  C   UNL     1     -10.050  10.404  65.108  1.00  0.00    -0.308 C  
HETATM    8  C   UNL     1     -10.294  11.186  66.405  1.00  0.00    -0.300 C  
ENDROOT
BRANCH   6   9
HETATM    9  N   UNL     1     -11.571  13.022  67.507  1.00  0.00    -0.334 N  
HETATM   10  N   UNL     1     -11.176  14.277  67.115  1.00  0.00    -0.311 NA 
HETATM   11  C   UNL     1     -11.169  15.260  67.960  1.00  0.00    -0.326 C  
HETATM   12  O   UNL     1     -12.268  11.582  69.188  1.00  0.00    -0.298 OA 
HETATM   13  C   UNL     1     -11.546  15.095  69.379  1.00  0.00    -0.343 A  
HETATM   14  C   UNL     1     -11.569  16.151  70.297  1.00  0.00    -0.271 A  
HETATM   15  C   UNL     1     -11.929  12.706  68.815  1.00  0.00    -0.237 C  
HETATM   16  C   UNL     1     -11.976  15.923  71.616  1.00  0.00    -0.553 A  
HETATM   17  C   UNL     1     -11.918  13.816  69.788  1.00  0.00    -0.406 A  
HETATM   18  C   UNL     1     -12.344  14.643  72.024  1.00  0.00    -0.398 A  
HETATM   19  C   UNL     1     -12.313  13.588  71.115  1.00  0.00    -0.377 A  
BRANCH  11  20
HETATM   20  C   UNL     1     -10.803  16.632  67.408  1.00  0.00    -0.186 C  
BRANCH  20  21
HETATM   21  C   UNL     1      -9.574  17.289  67.996  1.00  0.00    -0.274 A  
HETATM   22 CL   UNL     1      -5.838  19.465  69.358  1.00  0.00    -0.265 Cl 
HETATM   23  C   UNL     1      -8.364  16.598  68.162  1.00  0.00    -0.193 A  
HETATM   24  C   UNL     1      -8.448  19.342  68.690  1.00  0.00    -0.403 A  
HETATM   25  C   UNL     1      -7.215  17.268  68.599  1.00  0.00    -0.231 A  
HETATM   26  C   UNL     1      -9.597  18.671  68.259  1.00  0.00    -0.382 A  
HETATM   27  C   UNL     1      -7.261  18.637  68.857  1.00  0.00    -0.285 A  
ENDBRANCH  20  21
ENDBRANCH  11  20
ENDBRANCH   6   9
TORSDOF 3
ENDMDL
MODEL        9
REMARK 921   NORMALIZED FREE ENERGY PREDICTED BY IDOCK:   -7.27 KCAL/MOL
REMARK 922        TOTAL FREE ENERGY PREDICTED BY IDOCK:   -9.32 KCAL/MOL
REMARK 923 INTER-LIGAND FREE ENERGY PREDICTED BY IDOCK:   -8.45 KCAL/MOL
REMARK 924 INTRA-LIGAND FREE ENERGY PREDICTED BY IDOCK:   -0.87 KCAL/MOL
REMARK 927      BINDING AFFINITY PREDICTED BY RF-SCORE:    0.00 PKD
ROOT
HETATM    1  C   UNL     1     -10.933  16.202  64.588  1.00  0.00    -0.245 C  
HETATM    2  N   UNL     1     -11.054  15.072  65.517  1.00  0.00    -0.346 NA 
HETATM    3  C   UNL     1     -11.637  13.930  64.800  1.00  0.00    -0.374 C  
HETATM    4  C   UNL     1     -11.831  12.652  65.612  1.00  0.00    -0.488 C  
HETATM    5  C   UNL     1     -10.514  11.971  65.975  1.00  0.00    -0.284 C  
HETATM    6  C   UNL     1      -9.898  12.471  67.292  1.00  0.00    -0.204 C  
HETATM    7  C   UNL     1      -9.761  14.802  66.165  1.00  0.00    -0.312 C  
HETATM    8  C   UNL     1      -9.908  13.999  67.463  1.00  0.00    -0.236 C  
ENDROOT
BRANCH   6   9
HETATM    9  N   UNL     1     -10.475  11.795  68.481  1.00  0.00    -0.210 N  
HETATM   10  N   UNL     1     -11.418  12.493  69.195  1.00  0.00    -0.288 NA 
HETATM   11  C   UNL     1     -12.011  11.949  70.212  1.00  0.00    -0.330 C  
HETATM   12  O   UNL     1      -9.200   9.877  68.201  1.00  0.00    -0.128 OA 
HETATM   13  C   UNL     1     -11.698  10.584  70.682  1.00  0.00    -0.453 A  
HETATM   14  C   UNL     1     -12.349   9.974  71.761  1.00  0.00    -0.434 A  
HETATM   15  C   UNL     1     -10.057  10.510  68.818  1.00  0.00    -0.191 C  
HETATM   16  C   UNL     1     -12.025   8.662  72.121  1.00  0.00    -0.449 A  
HETATM   17  C   UNL     1     -10.721   9.884  69.979  1.00  0.00    -0.338 A  
HETATM   18  C   UNL     1     -11.044   7.964  71.420  1.00  0.00    -0.275 A  
HETATM   19  C   UNL     1     -10.388   8.573  70.351  1.00  0.00    -0.222 A  
BRANCH  11  20
HETATM   20  C   UNL     1     -13.106  12.770  70.882  1.00  0.00     0.038 C  
BRANCH  20  21
HETATM   21  C   UNL     1     -12.652  13.964  71.694  1.00  0.00    -0.387 A  
HETATM   22 CL   UNL     1     -11.728  17.665  74.141  1.00  0.00     0.151 Cl 
HETATM   23  C   UNL     1     -12.019  15.070  71.106  1.00  0.00    -0.375 A  
HETATM   24  C   UNL     1     -12.701  15.171  73.815  1.00  0.00    -0.667 A  
HETATM   25  C   UNL     1     -11.720  16.206  71.867  1.00  0.00    -0.575 A  
HETATM   26  C   UNL     1     -12.995  14.034  73.056  1.00  0.00    -0.336 A  
HETATM   27  C   UNL     1     -12.064  16.253  73.217  1.00  0.00    -0.488 A  
ENDBRANCH  20  21
ENDBRANCH  11  20
ENDBRANCH   6   9
TORSDOF 3
ENDMDL
MODEL       10
REMARK 921   NORMALIZED FREE ENERGY PREDICTED BY IDOCK:   -7.18 KCAL/MOL
REMARK 922        TOTAL FREE ENERGY PREDICTED BY IDOCK:   -9.21 KCAL/MOL
REMARK 923 INTER-LIGAND FREE ENERGY PREDICTED BY IDOCK:   -8.41 KCAL/MOL
REMARK 924 INTRA-LIGAND FREE ENERGY PREDICTED BY IDOCK:   -0.81 KCAL/MOL
REMARK 927      BINDING AFFINITY PREDICTED BY RF-SCORE:    0.00 PKD
ROOT
HETATM    1  C   UNL     1      -6.847  10.146  65.485  1.00  0.00    -0.130 C  
HETATM    2  N   UNL     1      -7.958  10.770  66.214  1.00  0.00    -0.156 NA 
HETATM    3  C   UNL     1      -9.160  10.727  65.371  1.00  0.00    -0.194 C  
HETATM    4  C   UNL     1     -10.427  11.330  65.974  1.00  0.00    -0.310 C  
HETATM    5  C   UNL     1     -10.994  10.498  67.123  1.00  0.00    -0.294 C  
HETATM    6  C   UNL     1     -10.411  10.861  68.499  1.00  0.00    -0.188 C  
HETATM    7  C   UNL     1      -8.108  10.154  67.541  1.00  0.00    -0.113 C  
HETATM    8  C   UNL     1      -8.886  11.043  68.520  1.00  0.00    -0.159 C  
ENDROOT
BRANCH   6   9
HETATM    9  N   UNL     1     -11.099  12.024  69.116  1.00  0.00    -0.231 N  
HETATM   10  N   UNL     1     -10.986  13.228  68.467  1.00  0.00    -0.256 NA 
HETATM   11  C   UNL     1     -11.604  14.277  68.911  1.00  0.00    -0.305 C  
HETATM   12  O   UNL     1     -11.916  10.788  70.902  1.00  0.00    -0.326 OA 
HETATM   13  C   UNL     1     -12.429  14.259  70.136  1.00  0.00    -0.393 A  
HETATM   14  C   UNL     1     -13.123  15.377  70.613  1.00  0.00    -0.405 A  
HETATM   15  C   UNL     1     -11.818  11.856  70.297  1.00  0.00    -0.281 C  
HETATM   16  C   UNL     1     -13.916  15.270  71.760  1.00  0.00    -0.638 A  
HETATM   17  C   UNL     1     -12.521  13.046  70.815  1.00  0.00    -0.384 A  
HETATM   18  C   UNL     1     -14.005  14.057  72.441  1.00  0.00    -0.622 A  
HETATM   19  C   UNL     1     -13.306  12.945  71.973  1.00  0.00    -0.579 A  
BRANCH  11  20
HETATM   20  C   UNL     1     -11.490  15.543  68.070  1.00  0.00    -0.313 C  
BRANCH  20  21
HETATM   21  C   UNL     1     -10.324  16.456  68.382  1.00  0.00    -0.282 A  
HETATM   22 CL   UNL     1      -6.816  19.284  68.872  1.00  0.00    -0.351 Cl 
HETATM   23  C   UNL     1      -9.040  15.962  68.657  1.00  0.00    -0.206 A  
HETATM   24  C   UNL     1      -9.415  18.722  68.420  1.00  0.00    -0.391 A  
HETATM   25  C   UNL     1      -7.961  16.838  68.825  1.00  0.00    -0.250 A  
HETATM   26  C   UNL     1     -10.494  17.847  68.259  1.00  0.00    -0.362 A  
HETATM   27  C   UNL     1      -8.152  18.212  68.703  1.00  0.00    -0.288 A  
ENDBRANCH  20  21
ENDBRANCH  11  20
ENDBRANCH   6   9
TORSDOF 3
ENDMDL
MODEL       11
REMARK 921   NORMALIZED FREE ENERGY PREDICTED BY IDOCK:   -7.15 KCAL/MOL
REMARK 922        TOTAL FREE ENERGY PREDICTED BY IDOCK:   -9.18 KCAL/MOL
REMARK 923 INTER-LIGAND FREE ENERGY PREDICTED BY IDOCK:   -8.99 KCAL/MOL
REMARK 924 INTRA-LIGAND FREE ENERGY PREDICTED BY IDOCK:   -0.19 KCAL/MOL
REMARK 927      BINDING AFFINITY PREDICTED BY RF-SCORE:    0.00 PKD
ROOT
HETATM    1  C   UNL     1      -6.308  17.452  66.438  1.00  0.00    -0.233 C  
HETATM    2  N   UNL     1      -7.476  16.773  67.014  1.00  0.00    -0.180 NA 
HETATM    3  C   UNL     1      -8.606  16.908  66.086  1.00  0.00    -0.242 C  
HETATM    4  C   UNL     1      -9.915  16.251  66.519  1.00  0.00    -0.290 C  
HETATM    5  C   UNL     1      -9.853  14.725  66.492  1.00  0.00    -0.287 C  
HETATM    6  C   UNL     1      -9.344  14.101  67.802  1.00  0.00    -0.200 C  
HETATM    7  C   UNL     1      -7.134  15.390  67.379  1.00  0.00    -0.196 C  
HETATM    8  C   UNL     1      -8.108  14.791  68.401  1.00  0.00    -0.144 C  
ENDROOT
BRANCH   6   9
HETATM    9  N   UNL     1     -10.419  13.953  68.815  1.00  0.00    -0.237 N  
HETATM   10  N   UNL     1     -11.082  12.751  68.846  1.00  0.00    -0.261 NA 
HETATM   11  C   UNL     1     -11.993  12.523  69.739  1.00  0.00    -0.289 C  
HETATM   12  O   UNL     1     -10.135  16.098  69.654  1.00  0.00    -0.255 OA 
HETATM   13  C   UNL     1     -12.396  13.529  70.743  1.00  0.00    -0.440 A  
HETATM   14  C   UNL     1     -13.360  13.289  71.729  1.00  0.00    -0.479 A  
HETATM   15  C   UNL     1     -10.706  15.007  69.679  1.00  0.00    -0.257 C  
HETATM   16  C   UNL     1     -13.659  14.279  72.671  1.00  0.00    -0.601 A  
HETATM   17  C   UNL     1     -11.748  14.761  70.696  1.00  0.00    -0.353 A  
HETATM   18  C   UNL     1     -13.012  15.513  72.620  1.00  0.00    -0.542 A  
HETATM   19  C   UNL     1     -12.059  15.758  71.633  1.00  0.00    -0.522 A  
BRANCH  11  20
HETATM   20  C   UNL     1     -12.606  11.128  69.748  1.00  0.00    -0.129 C  
BRANCH  20  21
HETATM   21  C   UNL     1     -12.094  10.174  70.805  1.00  0.00    -0.438 A  
HETATM   22 CL   UNL     1     -10.497   7.017  73.638  1.00  0.00    -0.402 Cl 
HETATM   23  C   UNL     1     -12.954   9.506  71.689  1.00  0.00    -0.483 A  
HETATM   24  C   UNL     1     -10.232   8.872  71.699  1.00  0.00    -0.415 A  
HETATM   25  C   UNL     1     -12.457   8.542  72.575  1.00  0.00    -0.358 A  
HETATM   26  C   UNL     1     -10.728   9.839  70.818  1.00  0.00    -0.393 A  
HETATM   27  C   UNL     1     -11.100   8.228  72.574  1.00  0.00    -0.368 A  
ENDBRANCH  20  21
ENDBRANCH  11  20
ENDBRANCH   6   9
TORSDOF 3
ENDMDL
MODEL       12
REMARK 921   NORMALIZED FREE ENERGY PREDICTED BY IDOCK:   -7.11 KCAL/MOL
REMARK 922        TOTAL FREE ENERGY PREDICTED BY IDOCK:   -9.13 KCAL/MOL
REMARK 923 INTER-LIGAND FREE ENERGY PREDICTED BY IDOCK:   -8.99 KCAL/MOL
REMARK 924 INTRA-LIGAND FREE ENERGY PREDICTED BY IDOCK:   -0.14 KCAL/MOL
REMARK 927      BINDING AFFINITY PREDICTED BY RF-SCORE:    0.00 PKD
ROOT
HETATM    1  C   UNL     1      -6.968  21.149  67.083  1.00  0.00    -0.290 C  
HETATM    2  N   UNL     1      -7.974  20.102  67.298  1.00  0.00    -0.315 NA 
HETATM    3  C   UNL     1      -9.304  20.659  67.016  1.00  0.00    -0.284 C  
HETATM    4  C   UNL     1     -10.483  19.703  67.181  1.00  0.00    -0.595 C  
HETATM    5  C   UNL     1     -10.523  18.616  66.110  1.00  0.00    -0.473 C  
HETATM    6  C   UNL     1      -9.716  17.357  66.471  1.00  0.00    -0.293 C  
HETATM    7  C   UNL     1      -7.631  18.897  66.528  1.00  0.00    -0.251 C  
HETATM    8  C   UNL     1      -8.325  17.637  67.060  1.00  0.00    -0.239 C  
ENDROOT
BRANCH   6   9
HETATM    9  N   UNL     1     -10.483  16.419  67.329  1.00  0.00    -0.303 N  
HETATM   10  N   UNL     1     -11.073  15.348  66.704  1.00  0.00    -0.283 NA 
HETATM   11  C   UNL     1     -11.710  14.453  67.391  1.00  0.00    -0.397 C  
HETATM   12  O   UNL     1     -10.063  17.612  69.274  1.00  0.00    -0.274 OA 
HETATM   13  C   UNL     1     -11.871  14.537  68.857  1.00  0.00    -0.359 A  
HETATM   14  C   UNL     1     -12.534  13.565  69.616  1.00  0.00    -0.107 A  
HETATM   15  C   UNL     1     -10.570  16.648  68.700  1.00  0.00    -0.337 C  
HETATM   16  C   UNL     1     -12.610  13.695  71.006  1.00  0.00    -0.441 A  
HETATM   17  C   UNL     1     -11.300  15.638  69.492  1.00  0.00    -0.329 A  
HETATM   18  C   UNL     1     -12.042  14.799  71.639  1.00  0.00    -0.414 A  
HETATM   19  C   UNL     1     -11.390  15.773  70.885  1.00  0.00    -0.426 A  
BRANCH  11  20
HETATM   20  C   UNL     1     -12.251  13.256  66.618  1.00  0.00    -0.359 C  
BRANCH  20  21
HETATM   21  C   UNL     1     -11.286  12.112  66.386  1.00  0.00    -0.411 A  
HETATM   22 CL   UNL     1      -8.709   8.514  65.412  1.00  0.00    -0.204 Cl 
HETATM   23  C   UNL     1     -11.096  11.093  67.331  1.00  0.00    -0.370 A  
HETATM   24  C   UNL     1      -9.858  10.884  64.833  1.00  0.00    -0.339 A  
HETATM   25  C   UNL     1     -10.286   9.990  67.034  1.00  0.00    -0.305 A  
HETATM   26  C   UNL     1     -10.662  11.989  65.132  1.00  0.00    -0.332 A  
HETATM   27  C   UNL     1      -9.674   9.888  65.787  1.00  0.00    -0.266 A  
ENDBRANCH  20  21
ENDBRANCH  11  20
ENDBRANCH   6   9
TORSDOF 3
ENDMDL
MODEL       13
REMARK 921   NORMALIZED FREE ENERGY PREDICTED BY IDOCK:   -7.11 KCAL/MOL
REMARK 922        TOTAL FREE ENERGY PREDICTED BY IDOCK:   -9.13 KCAL/MOL
REMARK 923 INTER-LIGAND FREE ENERGY PREDICTED BY IDOCK:   -9.35 KCAL/MOL
REMARK 924 INTRA-LIGAND FREE ENERGY PREDICTED BY IDOCK:    0.22 KCAL/MOL
REMARK 927      BINDING AFFINITY PREDICTED BY RF-SCORE:    0.00 PKD
ROOT
HETATM    1  C   UNL     1      -7.463  19.688  67.024  1.00  0.00    -0.232 C  
HETATM    2  N   UNL     1      -8.412  18.659  67.468  1.00  0.00    -0.264 NA 
HETATM    3  C   UNL     1      -9.503  18.568  66.488  1.00  0.00    -0.320 C  
HETATM    4  C   UNL     1     -10.589  17.536  66.783  1.00  0.00    -0.201 C  
HETATM    5  C   UNL     1     -10.100  16.097  66.629  1.00  0.00    -0.283 C  
HETATM    6  C   UNL     1      -9.482  15.511  67.909  1.00  0.00    -0.201 C  
HETATM    7  C   UNL     1      -7.709  17.395  67.732  1.00  0.00    -0.195 C  
HETATM    8  C   UNL     1      -8.510  16.452  68.639  1.00  0.00    -0.229 C  
ENDROOT
BRANCH   6   9
HETATM    9  N   UNL     1     -10.506  14.972  68.839  1.00  0.00    -0.234 N  
HETATM   10  N   UNL     1     -10.925  13.683  68.621  1.00  0.00    -0.258 NA 
HETATM   11  C   UNL     1     -11.774  13.121  69.424  1.00  0.00    -0.327 C  
HETATM   12  O   UNL     1     -10.639  16.932  70.074  1.00  0.00    -0.170 OA 
HETATM   13  C   UNL     1     -12.361  13.822  70.583  1.00  0.00    -0.445 A  
HETATM   14  C   UNL     1     -13.258  13.221  71.474  1.00  0.00    -0.383 A  
HETATM   15  C   UNL     1     -10.989  15.769  69.874  1.00  0.00    -0.333 C  
HETATM   16  C   UNL     1     -13.740  13.939  72.573  1.00  0.00    -0.665 A  
HETATM   17  C   UNL     1     -11.962  15.141  70.790  1.00  0.00    -0.376 A  
HETATM   18  C   UNL     1     -13.343  15.259  72.776  1.00  0.00    -0.603 A  
HETATM   19  C   UNL     1     -12.458  15.863  71.886  1.00  0.00    -0.524 A  
BRANCH  11  20
HETATM   20  C   UNL     1     -12.106  11.658  69.150  1.00  0.00    -0.315 C  
BRANCH  20  21
HETATM   21  C   UNL     1     -11.741  10.670  70.237  1.00  0.00    -0.433 A  
HETATM   22 CL   UNL     1     -10.602   7.400  73.161  1.00  0.00    -0.386 Cl 
HETATM   23  C   UNL     1     -12.703  10.106  71.088  1.00  0.00    -0.494 A  
HETATM   24  C   UNL     1     -10.064   9.194  71.220  1.00  0.00    -0.388 A  
HETATM   25  C   UNL     1     -12.346   9.107  72.002  1.00  0.00    -0.448 A  
HETATM   26  C   UNL     1     -10.419  10.195  70.311  1.00  0.00    -0.284 A  
HETATM   27  C   UNL     1     -11.030   8.654  72.062  1.00  0.00    -0.362 A  
ENDBRANCH  20  21
ENDBRANCH  11  20
ENDBRANCH   6   9
TORSDOF 3
ENDMDL
MODEL       14
REMARK 921   NORMALIZED FREE ENERGY PREDICTED BY IDOCK:   -7.09 KCAL/MOL
REMARK 922        TOTAL FREE ENERGY PREDICTED BY IDOCK:   -9.11 KCAL/MOL
REMARK 923 INTER-LIGAND FREE ENERGY PREDICTED BY IDOCK:   -9.34 KCAL/MOL
REMARK 924 INTRA-LIGAND FREE ENERGY PREDICTED BY IDOCK:    0.23 KCAL/MOL
REMARK 927      BINDING AFFINITY PREDICTED BY RF-SCORE:    0.00 PKD
ROOT
HETATM    1  C   UNL     1     -10.400   5.300  73.522  1.00  0.00    -0.220 C  
HETATM    2  N   UNL     1     -10.730   6.363  72.564  1.00  0.00    -0.218 NA 
HETATM    3  C   UNL     1     -12.183   6.371  72.350  1.00  0.00    -0.071 C  
HETATM    4  C   UNL     1     -12.715   7.425  71.381  1.00  0.00    -0.408 C  
HETATM    5  C   UNL     1     -12.616   8.845  71.933  1.00  0.00    -0.439 C  
HETATM    6  C   UNL     1     -11.277   9.537  71.629  1.00  0.00    -0.308 C  
HETATM    7  C   UNL     1     -10.162   7.645  73.006  1.00  0.00    -0.320 C  
HETATM    8  C   UNL     1     -10.036   8.661  71.865  1.00  0.00    -0.398 C  
ENDROOT
BRANCH   6   9
HETATM    9  N   UNL     1     -11.250  10.153  70.278  1.00  0.00    -0.296 N  
HETATM   10  N   UNL     1     -11.770  11.418  70.162  1.00  0.00    -0.331 NA 
HETATM   11  C   UNL     1     -11.731  12.046  69.029  1.00  0.00    -0.325 C  
HETATM   12  O   UNL     1     -10.254   8.305  69.288  1.00  0.00    -0.196 OA 
HETATM   13  C   UNL     1     -11.166  11.445  67.803  1.00  0.00    -0.346 A  
HETATM   14  C   UNL     1     -11.093  12.120  66.579  1.00  0.00    -0.352 A  
HETATM   15  C   UNL     1     -10.708   9.447  69.207  1.00  0.00    -0.211 C  
HETATM   16  C   UNL     1     -10.507  11.498  65.471  1.00  0.00    -0.327 A  
HETATM   17  C   UNL     1     -10.665  10.150  67.909  1.00  0.00    -0.317 A  
HETATM   18  C   UNL     1     -10.009  10.201  65.578  1.00  0.00    -0.363 A  
HETATM   19  C   UNL     1     -10.090   9.523  66.793  1.00  0.00    -0.312 A  
BRANCH  11  20
HETATM   20  C   UNL     1     -12.250  13.479  69.024  1.00  0.00    -0.224 C  
BRANCH  20  21
HETATM   21  C   UNL     1     -12.378  14.153  70.373  1.00  0.00    -0.428 A  
HETATM   22 CL   UNL     1     -12.389  15.942  74.537  1.00  0.00    -0.778 Cl 
HETATM   23  C   UNL     1     -13.339  13.761  71.316  1.00  0.00    -0.282 A  
HETATM   24  C   UNL     1     -11.427  15.670  72.032  1.00  0.00    -0.495 A  
HETATM   25  C   UNL     1     -13.351  14.327  72.597  1.00  0.00    -0.619 A  
HETATM   26  C   UNL     1     -11.418  15.109  70.751  1.00  0.00    -0.350 A  
HETATM   27  C   UNL     1     -12.394  15.276  72.951  1.00  0.00    -0.408 A  
ENDBRANCH  20  21
ENDBRANCH  11  20
ENDBRANCH   6   9
TORSDOF 3
ENDMDL
MODEL       15
REMARK 921   NORMALIZED FREE ENERGY PREDICTED BY IDOCK:   -7.06 KCAL/MOL
REMARK 922        TOTAL FREE ENERGY PREDICTED BY IDOCK:   -9.08 KCAL/MOL
REMARK 923 INTER-LIGAND FREE ENERGY PREDICTED BY IDOCK:   -8.13 KCAL/MOL
REMARK 924 INTRA-LIGAND FREE ENERGY PREDICTED BY IDOCK:   -0.94 KCAL/MOL
REMARK 927      BINDING AFFINITY PREDICTED BY RF-SCORE:    0.00 PKD
ROOT
HETATM    1  C   UNL     1     -12.120  15.941  74.324  1.00  0.00    -0.380 C  
HETATM    2  N   UNL     1     -12.049  15.116  73.111  1.00  0.00    -0.391 NA 
HETATM    3  C   UNL     1     -13.271  14.308  73.017  1.00  0.00    -0.397 C  
HETATM    4  C   UNL     1     -13.377  13.386  71.804  1.00  0.00    -0.479 C  
HETATM    5  C   UNL     1     -13.573  14.145  70.494  1.00  0.00     0.398 C  
HETATM    6  C   UNL     1     -12.257  14.555  69.811  1.00  0.00    -0.312 C  
HETATM    7  C   UNL     1     -11.768  15.956  71.937  1.00  0.00    -0.499 C  
HETATM    8  C   UNL     1     -11.205  15.153  70.758  1.00  0.00    -0.322 C  
ENDROOT
BRANCH   6   9
HETATM    9  N   UNL     1     -11.680  13.460  68.990  1.00  0.00    -0.302 N  
HETATM   10  N   UNL     1     -11.097  12.418  69.668  1.00  0.00    -0.020 NA 
HETATM   11  C   UNL     1     -10.622  11.397  69.025  1.00  0.00    -0.191 C  
HETATM   12  O   UNL     1     -12.254  14.460  66.976  1.00  0.00    -0.400 OA 
HETATM   13  C   UNL     1     -10.645  11.301  67.551  1.00  0.00    -0.257 A  
HETATM   14  C   UNL     1     -10.160  10.194  66.845  1.00  0.00    -0.279 A  
HETATM   15  C   UNL     1     -11.752  13.525  67.601  1.00  0.00    -0.363 C  
HETATM   16  C   UNL     1     -10.253  10.160  65.450  1.00  0.00    -0.281 A  
HETATM   17  C   UNL     1     -11.208  12.371  66.858  1.00  0.00    -0.359 A  
HETATM   18  C   UNL     1     -10.813  11.232  64.758  1.00  0.00    -0.314 A  
HETATM   19  C   UNL     1     -11.287  12.339  65.458  1.00  0.00    -0.394 A  
BRANCH  11  20
HETATM   20  C   UNL     1     -10.079  10.251  69.871  1.00  0.00    -0.219 C  
BRANCH  20  21
HETATM   21  C   UNL     1     -11.105   9.352  70.525  1.00  0.00    -0.330 A  
HETATM   22 CL   UNL     1     -14.377   6.627  72.078  1.00  0.00    -0.275 Cl 
HETATM   23  C   UNL     1     -12.128   9.857  71.342  1.00  0.00    -0.501 A  
HETATM   24  C   UNL     1     -12.125   7.140  70.685  1.00  0.00    -0.281 A  
HETATM   25  C   UNL     1     -13.128   9.010  71.835  1.00  0.00    -0.459 A  
HETATM   26  C   UNL     1     -11.122   7.984  70.198  1.00  0.00    -0.191 A  
HETATM   27  C   UNL     1     -13.125   7.657  71.502  1.00  0.00    -0.338 A  
ENDBRANCH  20  21
ENDBRANCH  11  20
ENDBRANCH   6   9
TORSDOF 3
ENDMDL
MODEL       16
REMARK 921   NORMALIZED FREE ENERGY PREDICTED BY IDOCK:   -7.01 KCAL/MOL
REMARK 922        TOTAL FREE ENERGY PREDICTED BY IDOCK:   -9.02 KCAL/MOL
REMARK 923 INTER-LIGAND FREE ENERGY PREDICTED BY IDOCK:   -8.04 KCAL/MOL
REMARK 924 INTRA-LIGAND FREE ENERGY PREDICTED BY IDOCK:   -0.98 KCAL/MOL
REMARK 927      BINDING AFFINITY PREDICTED BY RF-SCORE:    0.00 PKD
ROOT
HETATM    1  C   UNL     1     -10.652   5.440  73.282  1.00  0.00    -0.249 C  
HETATM    2  N   UNL     1     -10.938   6.517  72.326  1.00  0.00    -0.238 NA 
HETATM    3  C   UNL     1     -12.362   6.469  71.972  1.00  0.00    -0.260 C  
HETATM    4  C   UNL     1     -12.847   7.530  70.986  1.00  0.00    -0.180 C  
HETATM    5  C   UNL     1     -12.866   8.935  71.583  1.00  0.00    -0.401 C  
HETATM    6  C   UNL     1     -11.537   9.693  71.431  1.00  0.00    -0.400 C  
HETATM    7  C   UNL     1     -10.473   7.808  72.857  1.00  0.00    -0.350 C  
HETATM    8  C   UNL     1     -10.286   8.864  71.761  1.00  0.00    -0.426 C  
ENDROOT
BRANCH   6   9
HETATM    9  N   UNL     1     -11.410  10.352  70.106  1.00  0.00    -0.300 N  
HETATM   10  N   UNL     1     -10.892   9.596  69.084  1.00  0.00    -0.214 NA 
HETATM   11  C   UNL     1     -10.803  10.080  67.885  1.00  0.00    -0.271 C  
HETATM   12  O   UNL     1     -12.262  12.375  70.859  1.00  0.00    -0.355 OA 
HETATM   13  C   UNL     1     -11.212  11.459  67.549  1.00  0.00    -0.356 A  
HETATM   14  C   UNL     1     -11.146  11.987  66.254  1.00  0.00    -0.363 A  
HETATM   15  C   UNL     1     -11.813  11.676  69.950  1.00  0.00    -0.358 C  
HETATM   16  C   UNL     1     -11.590  13.290  66.007  1.00  0.00    -0.384 A  
HETATM   17  C   UNL     1     -11.709  12.240  68.589  1.00  0.00    -0.377 A  
HETATM   18  C   UNL     1     -12.083  14.072  67.050  1.00  0.00    -0.455 A  
HETATM   19  C   UNL     1     -12.140  13.552  68.341  1.00  0.00    -0.293 A  
BRANCH  11  20
HETATM   20  C   UNL     1     -10.301   9.132  66.802  1.00  0.00    -0.308 C  
BRANCH  20  21
HETATM   21  C   UNL     1     -10.047   7.701  67.224  1.00  0.00    -0.306 A  
HETATM   22 CL   UNL     1      -9.054   3.367  68.101  1.00  0.00    -0.185 Cl 
HETATM   23  C   UNL     1     -11.035   6.709  67.134  1.00  0.00    -0.478 A  
HETATM   24  C   UNL     1      -8.438   5.982  67.870  1.00  0.00    -0.115 A  
HETATM   25  C   UNL     1     -10.731   5.373  67.421  1.00  0.00    -0.161 A  
HETATM   26  C   UNL     1      -8.744   7.318  67.588  1.00  0.00    -0.125 A  
HETATM   27  C   UNL     1      -9.434   5.015  67.784  1.00  0.00    -0.133 A  
ENDBRANCH  20  21
ENDBRANCH  11  20
ENDBRANCH   6   9
TORSDOF 3
ENDMDL
MODEL       17
REMARK 921   NORMALIZED FREE ENERGY PREDICTED BY IDOCK:   -6.98 KCAL/MOL
REMARK 922        TOTAL FREE ENERGY PREDICTED BY IDOCK:   -8.98 KCAL/MOL
REMARK 923 INTER-LIGAND FREE ENERGY PREDICTED BY IDOCK:   -8.57 KCAL/MOL
REMARK 924 INTRA-LIGAND FREE ENERGY PREDICTED BY IDOCK:   -0.40 KCAL/MOL
REMARK 927      BINDING AFFINITY PREDICTED BY RF-SCORE:    0.00 PKD
ROOT
HETATM    1  C   UNL     1     -10.397  16.547  66.937  1.00  0.00    -0.300 C  
HETATM    2  N   UNL     1     -10.554  15.097  67.102  1.00  0.00    -0.289 NA 
HETATM    3  C   UNL     1     -11.762  14.668  66.384  1.00  0.00    -0.322 C  
HETATM    4  C   UNL     1     -12.084  13.176  66.439  1.00  0.00    -0.447 C  
HETATM    5  C   UNL     1     -11.099  12.325  65.641  1.00  0.00    -0.357 C  
HETATM    6  C   UNL     1      -9.867  11.880  66.446  1.00  0.00    -0.213 C  
HETATM    7  C   UNL     1      -9.320  14.401  66.710  1.00  0.00    -0.268 C  
HETATM    8  C   UNL     1      -9.226  12.988  67.298  1.00  0.00    -0.213 C  
ENDROOT
BRANCH   6   9
HETATM    9  N   UNL     1     -10.128  10.664  67.256  1.00  0.00    -0.191 N  
HETATM   10  N   UNL     1     -10.500  10.857  68.564  1.00  0.00    -0.178 NA 
HETATM   11  C   UNL     1     -10.801   9.848  69.320  1.00  0.00    -0.227 C  
HETATM   12  O   UNL     1      -9.645   9.211  65.512  1.00  0.00    -0.257 OA 
HETATM   13  C   UNL     1     -10.736   8.450  68.848  1.00  0.00    -0.095 A  
HETATM   14  C   UNL     1     -11.083   7.352  69.644  1.00  0.00    -0.129 A  
HETATM   15  C   UNL     1      -9.995   9.404  66.677  1.00  0.00    -0.258 C  
HETATM   16  C   UNL     1     -11.033   6.059  69.112  1.00  0.00    -0.429 A  
HETATM   17  C   UNL     1     -10.329   8.247  67.531  1.00  0.00    -0.333 A  
HETATM   18  C   UNL     1     -10.622   5.858  67.796  1.00  0.00    -0.331 A  
HETATM   19  C   UNL     1     -10.266   6.949  67.005  1.00  0.00    -0.317 A  
BRANCH  11  20
HETATM   20  C   UNL     1     -11.290  10.172  70.726  1.00  0.00    -0.436 C  
BRANCH  20  21
HETATM   21  C   UNL     1     -12.098  11.442  70.883  1.00  0.00    -0.383 A  
HETATM   22 CL   UNL     1     -14.138  15.440  71.511  1.00  0.00    -0.608 Cl 
HETATM   23  C   UNL     1     -13.013  11.621  71.932  1.00  0.00    -0.442 A  
HETATM   24  C   UNL     1     -12.464  13.763  70.222  1.00  0.00    -0.357 A  
HETATM   25  C   UNL     1     -13.655  12.851  72.114  1.00  0.00    -0.589 A  
HETATM   26  C   UNL     1     -11.828  12.532  70.037  1.00  0.00    -0.363 A  
HETATM   27  C   UNL     1     -13.376  13.917  71.262  1.00  0.00    -0.243 A  
ENDBRANCH  20  21
ENDBRANCH  11  20
ENDBRANCH   6   9
TORSDOF 3
ENDMDL
MODEL       18
REMARK 921   NORMALIZED FREE ENERGY PREDICTED BY IDOCK:   -6.91 KCAL/MOL
REMARK 922        TOTAL FREE ENERGY PREDICTED BY IDOCK:   -8.90 KCAL/MOL
REMARK 923 INTER-LIGAND FREE ENERGY PREDICTED BY IDOCK:   -7.82 KCAL/MOL
REMARK 924 INTRA-LIGAND FREE ENERGY PREDICTED BY IDOCK:   -1.07 KCAL/MOL
REMARK 927      BINDING AFFINITY PREDICTED BY RF-SCORE:    0.00 PKD
ROOT
HETATM    1  C   UNL     1      -7.039   5.034  65.231  1.00  0.00    -0.063 C  
HETATM    2  N   UNL     1      -7.948   5.756  66.129  1.00  0.00    -0.101 NA 
HETATM    3  C   UNL     1      -9.323   5.308  65.870  1.00  0.00    -0.155 C  
HETATM    4  C   UNL     1     -10.413   5.951  66.724  1.00  0.00    -0.344 C  
HETATM    5  C   UNL     1     -10.362   5.512  68.185  1.00  0.00    -0.236 C  
HETATM    6  C   UNL     1      -9.447   6.380  69.064  1.00  0.00    -0.129 C  
HETATM    7  C   UNL     1      -7.504   5.621  67.525  1.00  0.00    -0.081 C  
HETATM    8  C   UNL     1      -8.083   6.709  68.437  1.00  0.00    -0.115 C  
ENDROOT
BRANCH   6   9
HETATM    9  N   UNL     1     -10.125   7.609  69.548  1.00  0.00    -0.187 N  
HETATM   10  N   UNL     1      -9.723   8.799  68.994  1.00  0.00    -0.169 NA 
HETATM   11  C   UNL     1     -10.305   9.910  69.320  1.00  0.00    -0.219 C  
HETATM   12  O   UNL     1     -11.484   6.459  71.036  1.00  0.00    -0.313 OA 
HETATM   13  C   UNL     1     -11.398   9.976  70.313  1.00  0.00    -0.376 A  
HETATM   14  C   UNL     1     -12.054  11.163  70.657  1.00  0.00    -0.477 A  
HETATM   15  C   UNL     1     -11.123   7.515  70.515  1.00  0.00    -0.259 C  
HETATM   16  C   UNL     1     -13.107  11.139  71.577  1.00  0.00    -0.489 A  
HETATM   17  C   UNL     1     -11.789   8.775  70.900  1.00  0.00    -0.267 A  
HETATM   18  C   UNL     1     -13.495   9.937  72.167  1.00  0.00    -0.454 A  
HETATM   19  C   UNL     1     -12.836   8.755  71.833  1.00  0.00    -0.423 A  
BRANCH  11  20
HETATM   20  C   UNL     1      -9.848  11.163  68.583  1.00  0.00    -0.207 C  
BRANCH  20  21
HETATM   21  C   UNL     1     -10.549  11.469  67.277  1.00  0.00    -0.266 A  
HETATM   22 CL   UNL     1     -12.280  12.629  63.252  1.00  0.00    -0.596 Cl 
HETATM   23  C   UNL     1     -11.594  12.401  67.190  1.00  0.00    -0.435 A  
HETATM   24  C   UNL     1     -10.591  11.257  64.845  1.00  0.00    -0.364 A  
HETATM   25  C   UNL     1     -12.139  12.746  65.948  1.00  0.00    -0.485 A  
HETATM   26  C   UNL     1     -10.051  10.908  66.087  1.00  0.00    -0.291 A  
HETATM   27  C   UNL     1     -11.634  12.176  64.781  1.00  0.00    -0.321 A  
ENDBRANCH  20  21
ENDBRANCH  11  20
ENDBRANCH   6   9
TORSDOF 3
ENDMDL
MODEL       19
REMARK 921   NORMALIZED FREE ENERGY PREDICTED BY IDOCK:   -6.89 KCAL/MOL
REMARK 922        TOTAL FREE ENERGY PREDICTED BY IDOCK:   -8.87 KCAL/MOL
REMARK 923 INTER-LIGAND FREE ENERGY PREDICTED BY IDOCK:   -8.22 KCAL/MOL
REMARK 924 INTRA-LIGAND FREE ENERGY PREDICTED BY IDOCK:   -0.66 KCAL/MOL
REMARK 927      BINDING AFFINITY PREDICTED BY RF-SCORE:    0.00 PKD
ROOT
HETATM    1  C   UNL     1      -7.305   5.664  68.794  1.00  0.00    -0.083 C  
HETATM    2  N   UNL     1      -7.886   6.895  68.244  1.00  0.00    -0.116 NA 
HETATM    3  C   UNL     1      -6.811   7.876  68.043  1.00  0.00    -0.072 C  
HETATM    4  C   UNL     1      -7.231   9.226  67.466  1.00  0.00    -0.080 C  
HETATM    5  C   UNL     1      -7.661   9.140  66.003  1.00  0.00    -0.095 C  
HETATM    6  C   UNL     1      -9.153   8.824  65.810  1.00  0.00    -0.212 C  
HETATM    7  C   UNL     1      -8.683   6.594  67.045  1.00  0.00    -0.113 C  
HETATM    8  C   UNL     1      -9.690   7.701  66.711  1.00  0.00    -0.290 C  
ENDROOT
BRANCH   6   9
HETATM    9  N   UNL     1     -10.005  10.037  65.900  1.00  0.00    -0.265 N  
HETATM   10  N   UNL     1     -10.452  10.391  67.149  1.00  0.00    -0.242 NA 
HETATM   11  C   UNL     1     -11.153  11.468  67.318  1.00  0.00    -0.293 C  
HETATM   12  O   UNL     1      -9.932  10.444  63.616  1.00  0.00    -0.294 OA 
HETATM   13  C   UNL     1     -11.538  12.354  66.200  1.00  0.00    -0.452 A  
HETATM   14  C   UNL     1     -12.271  13.534  66.370  1.00  0.00    -0.454 A  
HETATM   15  C   UNL     1     -10.309  10.757  64.746  1.00  0.00    -0.310 C  
HETATM   16  C   UNL     1     -12.563  14.341  65.265  1.00  0.00    -0.405 A  
HETATM   17  C   UNL     1     -11.112  11.982  64.926  1.00  0.00    -0.368 A  
HETATM   18  C   UNL     1     -12.140  13.966  63.992  1.00  0.00    -0.437 A  
HETATM   19  C   UNL     1     -11.418  12.786  63.819  1.00  0.00    -0.533 A  
BRANCH  11  20
HETATM   20  C   UNL     1     -11.524  11.823  68.753  1.00  0.00    -0.350 C  
BRANCH  20  21
HETATM   21  C   UNL     1     -11.425  10.706  69.770  1.00  0.00    -0.375 A  
HETATM   22 CL   UNL     1     -11.134   7.684  73.135  1.00  0.00    -0.441 Cl 
HETATM   23  C   UNL     1     -10.226  10.020  70.012  1.00  0.00    -0.306 A  
HETATM   24  C   UNL     1     -12.446   9.496  71.628  1.00  0.00    -0.476 A  
HETATM   25  C   UNL     1     -10.142   9.074  71.041  1.00  0.00    -0.352 A  
HETATM   26  C   UNL     1     -12.530  10.436  70.596  1.00  0.00    -0.437 A  
HETATM   27  C   UNL     1     -11.250   8.819  71.847  1.00  0.00    -0.368 A  
ENDBRANCH  20  21
ENDBRANCH  11  20
ENDBRANCH   6   9
TORSDOF 3
ENDMDL
MODEL       20
REMARK 921   NORMALIZED FREE ENERGY PREDICTED BY IDOCK:   -6.83 KCAL/MOL
REMARK 922        TOTAL FREE ENERGY PREDICTED BY IDOCK:   -8.80 KCAL/MOL
REMARK 923 INTER-LIGAND FREE ENERGY PREDICTED BY IDOCK:   -9.01 KCAL/MOL
REMARK 924 INTRA-LIGAND FREE ENERGY PREDICTED BY IDOCK:    0.20 KCAL/MOL
REMARK 927      BINDING AFFINITY PREDICTED BY RF-SCORE:    0.00 PKD
ROOT
HETATM    1  C   UNL     1     -11.339   5.915  71.375  1.00  0.00    -0.178 C  
HETATM    2  N   UNL     1     -11.414   7.202  70.671  1.00  0.00    -0.298 NA 
HETATM    3  C   UNL     1     -12.022   8.195  71.566  1.00  0.00    -0.298 C  
HETATM    4  C   UNL     1     -12.175   9.606  71.002  1.00  0.00    -0.409 C  
HETATM    5  C   UNL     1     -10.839  10.326  70.830  1.00  0.00    -0.116 C  
HETATM    6  C   UNL     1     -10.169  10.075  69.469  1.00  0.00    -0.234 C  
HETATM    7  C   UNL     1     -10.093   7.572  70.141  1.00  0.00    -0.195 C  
HETATM    8  C   UNL     1     -10.179   8.608  69.013  1.00  0.00    -0.218 C  
ENDROOT
BRANCH   6   9
HETATM    9  N   UNL     1     -10.691  10.971  68.406  1.00  0.00    -0.189 N  
HETATM   10  N   UNL     1     -11.221  12.171  68.810  1.00  0.00    -0.245 NA 
HETATM   11  C   UNL     1     -11.644  13.032  67.939  1.00  0.00    -0.342 C  
HETATM   12  O   UNL     1     -10.165   9.497  66.692  1.00  0.00    -0.242 OA 
HETATM   13  C   UNL     1     -11.615  12.776  66.485  1.00  0.00    -0.435 A  
HETATM   14  C   UNL     1     -12.044  13.706  65.530  1.00  0.00    -0.440 A  
HETATM   15  C   UNL     1     -10.621  10.576  67.072  1.00  0.00    -0.253 C  
HETATM   16  C   UNL     1     -11.948  13.405  64.168  1.00  0.00    -0.505 A  
HETATM   17  C   UNL     1     -11.106  11.547  66.071  1.00  0.00    -0.289 A  
HETATM   18  C   UNL     1     -11.442  12.174  63.756  1.00  0.00    -0.548 A  
HETATM   19  C   UNL     1     -11.024  11.242  64.704  1.00  0.00    -0.281 A  
BRANCH  11  20
HETATM   20  C   UNL     1     -12.130  14.371  68.483  1.00  0.00    -0.278 C  
BRANCH  20  21
HETATM   21  C   UNL     1     -12.098  14.538  69.986  1.00  0.00    -0.395 A  
HETATM   22 CL   UNL     1     -12.403  15.252  74.452  1.00  0.00    -0.764 Cl 
HETATM   23  C   UNL     1     -11.286  15.494  70.615  1.00  0.00    -0.373 A  
HETATM   24  C   UNL     1     -13.097  14.023  72.153  1.00  0.00    -0.501 A  
HETATM   25  C   UNL     1     -11.369  15.702  71.997  1.00  0.00    -0.404 A  
HETATM   26  C   UNL     1     -13.009  13.812  70.774  1.00  0.00    -0.238 A  
HETATM   27  C   UNL     1     -12.276  14.969  72.759  1.00  0.00    -0.343 A  
ENDBRANCH  20  21
ENDBRANCH  11  20
ENDBRANCH   6   9
TORSDOF 3
ENDMDL
MODEL       21
REMARK 921   NORMALIZED FREE ENERGY PREDICTED BY IDOCK:   -6.82 KCAL/MOL
REMARK 922        TOTAL FREE ENERGY PREDICTED BY IDOCK:   -8.79 KCAL/MOL
REMARK 923 INTER-LIGAND FREE ENERGY PREDICTED BY IDOCK:   -8.03 KCAL/MOL
REMARK 924 INTRA-LIGAND FREE ENERGY PREDICTED BY IDOCK:   -0.76 KCAL/MOL
REMARK 927      BINDING AFFINITY PREDICTED BY RF-SCORE:    0.00 PKD
ROOT
HETATM    1  C   UNL     1     -14.138  15.370  72.280  1.00  0.00    -0.564 C  
HETATM    2  N   UNL     1     -13.347  15.013  71.096  1.00  0.00    -0.425 NA 
HETATM    3  C   UNL     1     -12.352  16.066  70.857  1.00  0.00    -0.192 C  
HETATM    4  C   UNL     1     -11.427  15.859  69.660  1.00  0.00    -0.346 C  
HETATM    5  C   UNL     1     -10.427  14.724  69.869  1.00  0.00    -0.040 C  
HETATM    6  C   UNL     1     -10.955  13.344  69.440  1.00  0.00    -0.026 C  
HETATM    7  C   UNL     1     -12.794  13.658  71.241  1.00  0.00    -0.344 C  
HETATM    8  C   UNL     1     -12.390  13.038  69.897  1.00  0.00    -0.177 C  
ENDROOT
BRANCH   6   9
HETATM    9  N   UNL     1     -10.792  13.103  67.984  1.00  0.00    -0.235 N  
HETATM   10  N   UNL     1     -10.852  14.201  67.163  1.00  0.00    -0.287 NA 
HETATM   11  C   UNL     1     -10.662  14.081  65.886  1.00  0.00    -0.293 C  
HETATM   12  O   UNL     1     -10.547  10.809  68.236  1.00  0.00    -0.178 OA 
HETATM   13  C   UNL     1     -10.405  12.779  65.237  1.00  0.00    -0.313 A  
HETATM   14  C   UNL     1     -10.172  12.637  63.864  1.00  0.00    -0.340 A  
HETATM   15  C   UNL     1     -10.585  11.808  67.516  1.00  0.00    -0.214 C  
HETATM   16  C   UNL     1      -9.897  11.374  63.329  1.00  0.00    -0.428 A  
HETATM   17  C   UNL     1     -10.374  11.658  66.063  1.00  0.00    -0.283 A  
HETATM   18  C   UNL     1      -9.870  10.253  64.155  1.00  0.00    -0.319 A  
HETATM   19  C   UNL     1     -10.112  10.391  65.521  1.00  0.00    -0.352 A  
BRANCH  11  20
HETATM   20  C   UNL     1     -10.657  15.370  65.073  1.00  0.00    -0.445 C  
BRANCH  20  21
HETATM   21  C   UNL     1     -10.038  16.582  65.734  1.00  0.00    -0.328 A  
HETATM   22 CL   UNL     1      -8.169  20.401  67.304  1.00  0.00    -0.390 Cl 
HETATM   23  C   UNL     1      -8.696  16.605  66.146  1.00  0.00    -0.322 A  
HETATM   24  C   UNL     1     -10.213  18.947  66.311  1.00  0.00    -0.491 A  
HETATM   25  C   UNL     1      -8.126  17.781  66.646  1.00  0.00    -0.288 A  
HETATM   26  C   UNL     1     -10.784  17.771  65.817  1.00  0.00    -0.098 A  
HETATM   27  C   UNL     1      -8.884  18.947  66.724  1.00  0.00    -0.309 A  
ENDBRANCH  20  21
ENDBRANCH  11  20
ENDBRANCH   6   9
TORSDOF 3
ENDMDL
MODEL       22
REMARK 921   NORMALIZED FREE ENERGY PREDICTED BY IDOCK:   -6.76 KCAL/MOL
REMARK 922        TOTAL FREE ENERGY PREDICTED BY IDOCK:   -8.72 KCAL/MOL
REMARK 923 INTER-LIGAND FREE ENERGY PREDICTED BY IDOCK:   -8.25 KCAL/MOL
REMARK 924 INTRA-LIGAND FREE ENERGY PREDICTED BY IDOCK:   -0.48 KCAL/MOL
REMARK 927      BINDING AFFINITY PREDICTED BY RF-SCORE:    0.00 PKD
ROOT
HETATM    1  C   UNL     1      -7.679   9.641  62.745  1.00  0.00    -0.117 C  
HETATM    2  N   UNL     1      -8.481  10.530  63.595  1.00  0.00    -0.160 NA 
HETATM    3  C   UNL     1      -9.388  11.308  62.742  1.00  0.00    -0.332 C  
HETATM    4  C   UNL     1     -10.313  12.289  63.460  1.00  0.00    -0.443 C  
HETATM    5  C   UNL     1     -11.400  11.594  64.276  1.00  0.00    -0.361 C  
HETATM    6  C   UNL     1     -10.976  11.257  65.715  1.00  0.00    -0.145 C  
HETATM    7  C   UNL     1      -9.140   9.761  64.662  1.00  0.00    -0.245 C  
HETATM    8  C   UNL     1      -9.575  10.639  65.841  1.00  0.00    -0.253 C  
ENDROOT
BRANCH   6   9
HETATM    9  N   UNL     1     -11.139  12.408  66.639  1.00  0.00    -0.275 N  
HETATM   10  N   UNL     1     -10.789  13.645  66.157  1.00  0.00    -0.278 NA 
HETATM   11  C   UNL     1     -10.957  14.707  66.881  1.00  0.00    -0.324 C  
HETATM   12  O   UNL     1     -11.936  11.096  68.380  1.00  0.00    -0.561 OA 
HETATM   13  C   UNL     1     -11.494  14.658  68.256  1.00  0.00    -0.337 A  
HETATM   14  C   UNL     1     -11.705  15.798  69.041  1.00  0.00    -0.405 A  
HETATM   15  C   UNL     1     -11.634  12.200  67.924  1.00  0.00    -0.347 C  
HETATM   16  C   UNL     1     -12.255  15.674  70.321  1.00  0.00    -0.416 A  
HETATM   17  C   UNL     1     -11.822  13.402  68.761  1.00  0.00    -0.386 A  
HETATM   18  C   UNL     1     -12.579  14.416  70.826  1.00  0.00    -0.426 A  
HETATM   19  C   UNL     1     -12.361  13.279  70.050  1.00  0.00    -0.269 A  
BRANCH  11  20
HETATM   20  C   UNL     1     -10.624  16.041  66.224  1.00  0.00    -0.288 C  
BRANCH  20  21
HETATM   21  C   UNL     1      -9.411  16.771  66.758  1.00  0.00    -0.263 A  
HETATM   22 CL   UNL     1      -5.894  19.302  68.087  1.00  0.00    -0.216 Cl 
HETATM   23  C   UNL     1      -8.107  16.458  66.344  1.00  0.00    -0.357 A  
HETATM   24  C   UNL     1      -8.513  18.665  68.010  1.00  0.00    -0.314 A  
HETATM   25  C   UNL     1      -7.020  17.231  66.768  1.00  0.00    -0.249 A  
HETATM   26  C   UNL     1      -9.598  17.889  67.591  1.00  0.00    -0.270 A  
HETATM   27  C   UNL     1      -7.227  18.332  67.596  1.00  0.00    -0.210 A  
ENDBRANCH  20  21
ENDBRANCH  11  20
ENDBRANCH   6   9
TORSDOF 3
ENDMDL
MODEL       23
REMARK 921   NORMALIZED FREE ENERGY PREDICTED BY IDOCK:   -6.76 KCAL/MOL
REMARK 922        TOTAL FREE ENERGY PREDICTED BY IDOCK:   -8.72 KCAL/MOL
REMARK 923 INTER-LIGAND FREE ENERGY PREDICTED BY IDOCK:   -8.56 KCAL/MOL
REMARK 924 INTRA-LIGAND FREE ENERGY PREDICTED BY IDOCK:   -0.16 KCAL/MOL
REMARK 927      BINDING AFFINITY PREDICTED BY RF-SCORE:    0.00 PKD
ROOT
HETATM    1  C   UNL     1      -8.687  20.435  67.215  1.00  0.00    -0.333 C  
HETATM    2  N   UNL     1      -8.945  18.991  67.158  1.00  0.00    -0.283 NA 
HETATM    3  C   UNL     1      -8.791  18.431  68.507  1.00  0.00    -0.314 C  
HETATM    4  C   UNL     1      -9.031  16.928  68.643  1.00  0.00    -0.266 C  
HETATM    5  C   UNL     1     -10.497  16.540  68.462  1.00  0.00    -0.302 C  
HETATM    6  C   UNL     1     -10.890  16.264  67.002  1.00  0.00    -0.173 C  
HETATM    7  C   UNL     1     -10.244  18.728  66.521  1.00  0.00    -0.413 C  
HETATM    8  C   UNL     1     -10.362  17.293  65.991  1.00  0.00    -0.312 C  
ENDROOT
BRANCH   6   9
HETATM    9  N   UNL     1     -10.561  14.879  66.579  1.00  0.00    -0.299 N  
HETATM   10  N   UNL     1     -10.026  14.049  67.533  1.00  0.00    -0.234 NA 
HETATM   11  C   UNL     1      -9.765  12.809  67.257  1.00  0.00    -0.206 C  
HETATM   12  O   UNL     1     -11.269  15.214  64.394  1.00  0.00    -0.287 OA 
HETATM   13  C   UNL     1      -9.992  12.224  65.920  1.00  0.00    -0.272 A  
HETATM   14  C   UNL     1      -9.740  10.881  65.615  1.00  0.00    -0.279 A  
HETATM   15  C   UNL     1     -10.806  14.479  65.267  1.00  0.00    -0.367 C  
HETATM   16  C   UNL     1     -10.018  10.392  64.334  1.00  0.00    -0.388 A  
HETATM   17  C   UNL     1     -10.507  13.071  64.941  1.00  0.00    -0.358 A  
HETATM   18  C   UNL     1     -10.530  11.241  63.355  1.00  0.00    -0.424 A  
HETATM   19  C   UNL     1     -10.771  12.580  63.653  1.00  0.00    -0.469 A  
BRANCH  11  20
HETATM   20  C   UNL     1      -9.259  11.947  68.407  1.00  0.00    -0.173 C  
BRANCH  20  21
HETATM   21  C   UNL     1     -10.313  11.285  69.268  1.00  0.00    -0.101 A  
HETATM   22 CL   UNL     1     -13.398   9.632  72.148  1.00  0.00    -0.533 Cl 
HETATM   23  C   UNL     1     -10.057  10.113  69.995  1.00  0.00    -0.241 A  
HETATM   24  C   UNL     1     -12.504  11.420  70.337  1.00  0.00    -0.345 A  
HETATM   25  C   UNL     1     -11.017   9.594  70.871  1.00  0.00    -0.412 A  
HETATM   26  C   UNL     1     -11.546  11.934  69.457  1.00  0.00    -0.394 A  
HETATM   27  C   UNL     1     -12.234  10.251  71.041  1.00  0.00    -0.384 A  
ENDBRANCH  20  21
ENDBRANCH  11  20
ENDBRANCH   6   9
TORSDOF 3
ENDMDL
MODEL       24
REMARK 921   NORMALIZED FREE ENERGY PREDICTED BY IDOCK:   -6.74 KCAL/MOL
REMARK 922        TOTAL FREE ENERGY PREDICTED BY IDOCK:   -8.70 KCAL/MOL
REMARK 923 INTER-LIGAND FREE ENERGY PREDICTED BY IDOCK:   -8.12 KCAL/MOL
REMARK 924 INTRA-LIGAND FREE ENERGY PREDICTED BY IDOCK:   -0.58 KCAL/MOL
REMARK 927      BINDING AFFINITY PREDICTED BY RF-SCORE:    0.00 PKD
ROOT
HETATM    1  C   UNL     1     -10.717   5.922  70.857  1.00  0.00    -0.273 C  
HETATM    2  N   UNL     1     -10.763   7.212  70.156  1.00  0.00    -0.234 NA 
HETATM    3  C   UNL     1     -10.290   8.262  71.068  1.00  0.00    -0.191 C  
HETATM    4  C   UNL     1     -10.261   9.681  70.504  1.00  0.00    -0.351 C  
HETATM    5  C   UNL     1      -9.182   9.877  69.441  1.00  0.00    -0.225 C  
HETATM    6  C   UNL     1      -9.645   9.538  68.015  1.00  0.00    -0.137 C  
HETATM    7  C   UNL     1     -10.038   7.126  68.880  1.00  0.00    -0.177 C  
HETATM    8  C   UNL     1     -10.442   8.230  67.895  1.00  0.00    -0.259 C  
ENDROOT
BRANCH   6   9
HETATM    9  N   UNL     1     -10.364  10.666  67.369  1.00  0.00    -0.207 N  
HETATM   10  N   UNL     1     -10.833  11.657  68.195  1.00  0.00    -0.205 NA 
HETATM   11  C   UNL     1     -11.420  12.703  67.703  1.00  0.00    -0.334 C  
HETATM   12  O   UNL     1     -10.130   9.792  65.232  1.00  0.00    -0.286 OA 
HETATM   13  C   UNL     1     -11.648  12.882  66.254  1.00  0.00    -0.424 A  
HETATM   14  C   UNL     1     -12.257  14.017  65.706  1.00  0.00    -0.475 A  
HETATM   15  C   UNL     1     -10.528  10.681  65.986  1.00  0.00    -0.183 C  
HETATM   16  C   UNL     1     -12.402  14.132  64.320  1.00  0.00    -0.398 A  
HETATM   17  C   UNL     1     -11.201  11.864  65.415  1.00  0.00    -0.351 A  
HETATM   18  C   UNL     1     -11.958  13.111  63.481  1.00  0.00    -0.580 A  
HETATM   19  C   UNL     1     -11.361  11.975  64.026  1.00  0.00    -0.478 A  
BRANCH  11  20
HETATM   20  C   UNL     1     -11.823  13.789  68.693  1.00  0.00    -0.409 C  
BRANCH  20  21
HETATM   21  C   UNL     1     -10.917  14.999  68.771  1.00  0.00    -0.259 A  
HETATM   22 CL   UNL     1      -8.263  18.666  68.553  1.00  0.00    -0.361 Cl 
HETATM   23  C   UNL     1      -9.526  14.884  68.913  1.00  0.00    -0.209 A  
HETATM   24  C   UNL     1     -10.649  17.410  68.499  1.00  0.00    -0.340 A  
HETATM   25  C   UNL     1      -8.709  16.020  68.862  1.00  0.00    -0.236 A  
HETATM   26  C   UNL     1     -11.465  16.276  68.556  1.00  0.00    -0.272 A  
HETATM   27  C   UNL     1      -9.273  17.276  68.652  1.00  0.00    -0.266 A  
ENDBRANCH  20  21
ENDBRANCH  11  20
ENDBRANCH   6   9
TORSDOF 3
ENDMDL
MODEL       25
REMARK 921   NORMALIZED FREE ENERGY PREDICTED BY IDOCK:   -6.70 KCAL/MOL
REMARK 922        TOTAL FREE ENERGY PREDICTED BY IDOCK:   -8.65 KCAL/MOL
REMARK 923 INTER-LIGAND FREE ENERGY PREDICTED BY IDOCK:   -7.60 KCAL/MOL
REMARK 924 INTRA-LIGAND FREE ENERGY PREDICTED BY IDOCK:   -1.05 KCAL/MOL
REMARK 927      BINDING AFFINITY PREDICTED BY RF-SCORE:    0.00 PKD
ROOT
HETATM    1  C   UNL     1      -8.878   8.169  73.159  1.00  0.00    -0.257 C  
HETATM    2  N   UNL     1      -9.158   8.829  71.878  1.00  0.00    -0.331 NA 
HETATM    3  C   UNL     1      -7.885   9.080  71.188  1.00  0.00    -0.116 C  
HETATM    4  C   UNL     1      -7.982   9.761  69.824  1.00  0.00    -0.169 C  
HETATM    5  C   UNL     1      -8.584   8.858  68.750  1.00  0.00    -0.136 C  
HETATM    6  C   UNL     1     -10.118   8.929  68.666  1.00  0.00    -0.188 C  
HETATM    7  C   UNL     1     -10.139   8.053  71.106  1.00  0.00    -0.188 C  
HETATM    8  C   UNL     1     -10.835   8.889  70.025  1.00  0.00    -0.239 C  
ENDROOT
BRANCH   6   9
HETATM    9  N   UNL     1     -10.588  10.074  67.845  1.00  0.00    -0.232 N  
HETATM   10  N   UNL     1     -11.109  11.150  68.521  1.00  0.00    -0.222 NA 
HETATM   11  C   UNL     1     -11.487  12.211  67.880  1.00  0.00    -0.328 C  
HETATM   12  O   UNL     1     -10.034   9.058  65.834  1.00  0.00    -0.276 OA 
HETATM   13  C   UNL     1     -11.416  12.323  66.409  1.00  0.00    -0.434 A  
HETATM   14  C   UNL     1     -11.796  13.472  65.705  1.00  0.00    -0.403 A  
HETATM   15  C   UNL     1     -10.482  10.021  66.458  1.00  0.00    -0.153 C  
HETATM   16  C   UNL     1     -11.662  13.515  64.314  1.00  0.00    -0.455 A  
HETATM   17  C   UNL     1     -10.916  11.222  65.717  1.00  0.00    -0.211 A  
HETATM   18  C   UNL     1     -11.165  12.412  63.622  1.00  0.00    -0.544 A  
HETATM   19  C   UNL     1     -10.796  11.263  64.320  1.00  0.00    -0.398 A  
BRANCH  11  20
HETATM   20  C   UNL     1     -11.966  13.385  68.727  1.00  0.00    -0.359 C  
BRANCH  20  21
HETATM   21  C   UNL     1     -11.055  14.592  68.780  1.00  0.00    -0.274 A  
HETATM   22 CL   UNL     1      -8.386  18.244  68.490  1.00  0.00    -0.326 Cl 
HETATM   23  C   UNL     1      -9.663  14.473  68.914  1.00  0.00    -0.169 A  
HETATM   24  C   UNL     1     -10.778  16.998  68.471  1.00  0.00    -0.352 A  
HETATM   25  C   UNL     1      -8.842  15.604  68.841  1.00  0.00    -0.222 A  
HETATM   26  C   UNL     1     -11.599  15.868  68.550  1.00  0.00    -0.351 A  
HETATM   27  C   UNL     1      -9.402  16.860  68.617  1.00  0.00    -0.268 A  
ENDBRANCH  20  21
ENDBRANCH  11  20
ENDBRANCH   6   9
TORSDOF 3
ENDMDL
MODEL       26
REMARK 921   NORMALIZED FREE ENERGY PREDICTED BY IDOCK:   -6.69 KCAL/MOL
REMARK 922        TOTAL FREE ENERGY PREDICTED BY IDOCK:   -8.64 KCAL/MOL
REMARK 923 INTER-LIGAND FREE ENERGY PREDICTED BY IDOCK:   -7.69 KCAL/MOL
REMARK 924 INTRA-LIGAND FREE ENERGY PREDICTED BY IDOCK:   -0.95 KCAL/MOL
REMARK 927      BINDING AFFINITY PREDICTED BY RF-SCORE:    0.00 PKD
ROOT
HETATM    1  C   UNL     1      -6.790  20.352  68.858  1.00  0.00    -0.098 C  
HETATM    2  N   UNL     1      -7.695  19.294  68.392  1.00  0.00    -0.314 NA 
HETATM    3  C   UNL     1      -8.972  19.416  69.107  1.00  0.00    -0.129 C  
HETATM    4  C   UNL     1     -10.048  18.395  68.744  1.00  0.00    -0.393 C  
HETATM    5  C   UNL     1     -10.616  18.602  67.341  1.00  0.00    -0.490 C  
HETATM    6  C   UNL     1      -9.835  17.867  66.240  1.00  0.00    -0.301 C  
HETATM    7  C   UNL     1      -7.800  19.320  66.926  1.00  0.00    -0.257 C  
HETATM    8  C   UNL     1      -8.307  17.994  66.346  1.00  0.00    -0.275 C  
ENDROOT
BRANCH   6   9
HETATM    9  N   UNL     1     -10.247  16.447  66.103  1.00  0.00    -0.333 N  
HETATM   10  N   UNL     1      -9.883  15.595  67.116  1.00  0.00    -0.227 NA 
HETATM   11  C   UNL     1     -10.254  14.353  67.099  1.00  0.00    -0.257 C  
HETATM   12  O   UNL     1     -11.294  16.787  64.060  1.00  0.00    -1.153 OA 
HETATM   13  C   UNL     1     -11.050  13.774  65.998  1.00  0.00    -0.291 A  
HETATM   14  C   UNL     1     -11.481  12.442  65.978  1.00  0.00    -0.431 A  
HETATM   15  C   UNL     1     -10.974  16.041  64.986  1.00  0.00    -0.380 C  
HETATM   16  C   UNL     1     -12.266  11.977  64.918  1.00  0.00    -0.187 A  
HETATM   17  C   UNL     1     -11.396  14.627  64.953  1.00  0.00    -0.403 A  
HETATM   18  C   UNL     1     -12.608  12.831  63.871  1.00  0.00    -0.380 A  
HETATM   19  C   UNL     1     -12.172  14.154  63.884  1.00  0.00    -0.288 A  
BRANCH  11  20
HETATM   20  C   UNL     1      -9.878  13.512  68.313  1.00  0.00    -0.233 C  
BRANCH  20  21
HETATM   21  C   UNL     1      -8.775  12.496  68.111  1.00  0.00    -0.190 A  
HETATM   22 CL   UNL     1      -5.579   9.456  67.067  1.00  0.00    -0.040 Cl 
HETATM   23  C   UNL     1      -8.926  11.147  68.469  1.00  0.00    -0.168 A  
HETATM   24  C   UNL     1      -6.619  11.944  67.106  1.00  0.00    -0.148 A  
HETATM   25  C   UNL     1      -7.930  10.213  68.161  1.00  0.00    -0.104 A  
HETATM   26  C   UNL     1      -7.612  12.878  67.420  1.00  0.00    -0.150 A  
HETATM   27  C   UNL     1      -6.784  10.614  67.478  1.00  0.00    -0.070 A  
ENDBRANCH  20  21
ENDBRANCH  11  20
ENDBRANCH   6   9
TORSDOF 3
ENDMDL
MODEL       27
REMARK 921   NORMALIZED FREE ENERGY PREDICTED BY IDOCK:   -6.63 KCAL/MOL
REMARK 922        TOTAL FREE ENERGY PREDICTED BY IDOCK:   -8.57 KCAL/MOL
REMARK 923 INTER-LIGAND FREE ENERGY PREDICTED BY IDOCK:   -7.69 KCAL/MOL
REMARK 924 INTRA-LIGAND FREE ENERGY PREDICTED BY IDOCK:   -0.87 KCAL/MOL
REMARK 927      BINDING AFFINITY PREDICTED BY RF-SCORE:    0.00 PKD
ROOT
HETATM    1  C   UNL     1      -9.141   5.606  67.304  1.00  0.00    -0.110 C  
HETATM    2  N   UNL     1      -9.460   6.956  67.786  1.00  0.00    -0.123 NA 
HETATM    3  C   UNL     1      -8.328   7.454  68.579  1.00  0.00    -0.126 C  
HETATM    4  C   UNL     1      -8.480   8.858  69.161  1.00  0.00    -0.132 C  
HETATM    5  C   UNL     1      -8.438   9.951  68.096  1.00  0.00    -0.114 C  
HETATM    6  C   UNL     1      -9.810  10.278  67.485  1.00  0.00    -0.173 C  
HETATM    7  C   UNL     1      -9.859   7.819  66.665  1.00  0.00    -0.225 C  
HETATM    8  C   UNL     1     -10.656   9.048  67.119  1.00  0.00    -0.291 C  
ENDROOT
BRANCH   6   9
HETATM    9  N   UNL     1     -10.587  11.235  68.314  1.00  0.00    -0.187 N  
HETATM   10  N   UNL     1     -11.358  10.703  69.318  1.00  0.00    -0.262 NA 
HETATM   11  C   UNL     1     -12.019  11.476  70.121  1.00  0.00    -0.369 C  
HETATM   12  O   UNL     1      -9.832  13.094  67.148  1.00  0.00    -0.226 OA 
HETATM   13  C   UNL     1     -12.015  12.948  69.995  1.00  0.00    -0.380 A  
HETATM   14  C   UNL     1     -12.703  13.797  70.871  1.00  0.00    -0.394 A  
HETATM   15  C   UNL     1     -10.504  12.600  68.054  1.00  0.00    -0.224 C  
HETATM   16  C   UNL     1     -12.619  15.184  70.710  1.00  0.00    -0.452 A  
HETATM   17  C   UNL     1     -11.259  13.490  68.959  1.00  0.00    -0.314 A  
HETATM   18  C   UNL     1     -11.864  15.725  69.671  1.00  0.00    -0.352 A  
HETATM   19  C   UNL     1     -11.187  14.881  68.792  1.00  0.00    -0.288 A  
BRANCH  11  20
HETATM   20  C   UNL     1     -12.771  10.795  71.258  1.00  0.00    -0.546 C  
BRANCH  20  21
HETATM   21  C   UNL     1     -12.346   9.382  71.596  1.00  0.00    -0.465 A  
HETATM   22 CL   UNL     1     -10.843   5.152  72.216  1.00  0.00    -0.266 Cl 
HETATM   23  C   UNL     1     -13.214   8.288  71.463  1.00  0.00    -0.308 A  
HETATM   24  C   UNL     1     -10.538   7.830  72.124  1.00  0.00    -0.295 A  
HETATM   25  C   UNL     1     -12.752   6.983  71.671  1.00  0.00    -0.417 A  
HETATM   26  C   UNL     1     -11.001   9.134  71.922  1.00  0.00    -0.372 A  
HETATM   27  C   UNL     1     -11.417   6.760  71.997  1.00  0.00    -0.282 A  
ENDBRANCH  20  21
ENDBRANCH  11  20
ENDBRANCH   6   9
TORSDOF 3
ENDMDL
MODEL       28
REMARK 921   NORMALIZED FREE ENERGY PREDICTED BY IDOCK:   -6.63 KCAL/MOL
REMARK 922        TOTAL FREE ENERGY PREDICTED BY IDOCK:   -8.56 KCAL/MOL
REMARK 923 INTER-LIGAND FREE ENERGY PREDICTED BY IDOCK:   -8.01 KCAL/MOL
REMARK 924 INTRA-LIGAND FREE ENERGY PREDICTED BY IDOCK:   -0.55 KCAL/MOL
REMARK 927      BINDING AFFINITY PREDICTED BY RF-SCORE:    0.00 PKD
ROOT
HETATM    1  C   UNL     1     -10.500  18.539  67.562  1.00  0.00    -0.418 C  
HETATM    2  N   UNL     1     -10.395  17.089  67.356  1.00  0.00    -0.312 NA 
HETATM    3  C   UNL     1     -11.263  16.409  68.325  1.00  0.00    -0.300 C  
HETATM    4  C   UNL     1     -11.288  14.884  68.254  1.00  0.00    -0.325 C  
HETATM    5  C   UNL     1     -11.985  14.357  67.001  1.00  0.00    -0.424 C  
HETATM    6  C   UNL     1     -11.050  14.195  65.792  1.00  0.00    -0.309 C  
HETATM    7  C   UNL     1     -10.654  16.752  65.948  1.00  0.00    -0.248 C  
HETATM    8  C   UNL     1     -10.098  15.378  65.556  1.00  0.00    -0.405 C  
ENDROOT
BRANCH   6   9
HETATM    9  N   UNL     1     -10.310  12.908  65.816  1.00  0.00    -0.280 N  
HETATM   10  N   UNL     1      -9.863  12.472  67.039  1.00  0.00    -0.213 NA 
HETATM   11  C   UNL     1      -9.260  11.330  67.152  1.00  0.00    -0.163 C  
HETATM   12  O   UNL     1     -10.483  12.588  63.524  1.00  0.00    -0.420 OA 
HETATM   13  C   UNL     1      -8.989  10.453  65.995  1.00  0.00    -0.178 A  
HETATM   14  C   UNL     1      -8.362   9.206  66.105  1.00  0.00    -0.123 A  
HETATM   15  C   UNL     1     -10.106  12.204  64.632  1.00  0.00    -0.257 C  
HETATM   16  C   UNL     1      -8.176   8.414  64.966  1.00  0.00    -0.155 A  
HETATM   17  C   UNL     1      -9.413  10.905  64.747  1.00  0.00    -0.279 A  
HETATM   18  C   UNL     1      -8.598   8.870  63.719  1.00  0.00    -0.105 A  
HETATM   19  C   UNL     1      -9.213  10.115  63.606  1.00  0.00    -0.320 A  
BRANCH  11  20
HETATM   20  C   UNL     1      -8.884  10.893  68.563  1.00  0.00    -0.153 C  
BRANCH  20  21
HETATM   21  C   UNL     1     -10.020  10.432  69.450  1.00  0.00    -0.240 A  
HETATM   22 CL   UNL     1     -13.357   9.429  72.348  1.00  0.00    -0.523 Cl 
HETATM   23  C   UNL     1      -9.858   9.415  70.403  1.00  0.00    -0.313 A  
HETATM   24  C   UNL     1     -12.274  10.817  70.305  1.00  0.00    -0.431 A  
HETATM   25  C   UNL     1     -10.895   9.095  71.287  1.00  0.00    -0.402 A  
HETATM   26  C   UNL     1     -11.239  11.132  69.419  1.00  0.00    -0.334 A  
HETATM   27  C   UNL     1     -12.097   9.799  71.236  1.00  0.00    -0.382 A  
ENDBRANCH  20  21
ENDBRANCH  11  20
ENDBRANCH   6   9
TORSDOF 3
ENDMDL
MODEL       29
REMARK 921   NORMALIZED FREE ENERGY PREDICTED BY IDOCK:   -6.62 KCAL/MOL
REMARK 922        TOTAL FREE ENERGY PREDICTED BY IDOCK:   -8.56 KCAL/MOL
REMARK 923 INTER-LIGAND FREE ENERGY PREDICTED BY IDOCK:   -7.94 KCAL/MOL
REMARK 924 INTRA-LIGAND FREE ENERGY PREDICTED BY IDOCK:   -0.62 KCAL/MOL
REMARK 927      BINDING AFFINITY PREDICTED BY RF-SCORE:    0.00 PKD
ROOT
HETATM    1  C   UNL     1     -12.473   6.642  72.043  1.00  0.00    -0.244 C  
HETATM    2  N   UNL     1     -12.116   7.586  70.978  1.00  0.00    -0.300 NA 
HETATM    3  C   UNL     1     -12.217   8.954  71.505  1.00  0.00    -0.327 C  
HETATM    4  C   UNL     1     -11.872  10.078  70.530  1.00  0.00    -0.387 C  
HETATM    5  C   UNL     1     -10.385  10.135  70.190  1.00  0.00    -0.280 C  
HETATM    6  C   UNL     1      -9.986   9.254  68.994  1.00  0.00    -0.182 C  
HETATM    7  C   UNL     1     -10.808   7.238  70.403  1.00  0.00    -0.246 C  
HETATM    8  C   UNL     1     -10.595   7.843  69.010  1.00  0.00    -0.177 C  
ENDROOT
BRANCH   6   9
HETATM    9  N   UNL     1     -10.222   9.925  67.691  1.00  0.00    -0.194 N  
HETATM   10  N   UNL     1     -11.105  10.977  67.686  1.00  0.00    -0.281 NA 
HETATM   11  C   UNL     1     -11.321  11.651  66.600  1.00  0.00    -0.270 C  
HETATM   12  O   UNL     1      -8.773   8.530  66.535  1.00  0.00    -0.122 OA 
HETATM   13  C   UNL     1     -10.671  11.324  65.315  1.00  0.00    -0.302 A  
HETATM   14  C   UNL     1     -10.873  12.059  64.140  1.00  0.00    -0.405 A  
HETATM   15  C   UNL     1      -9.554   9.482  66.553  1.00  0.00    -0.201 C  
HETATM   16  C   UNL     1     -10.190  11.710  62.971  1.00  0.00    -0.294 A  
HETATM   17  C   UNL     1      -9.797  10.238  65.309  1.00  0.00    -0.372 A  
HETATM   18  C   UNL     1      -9.319  10.622  62.965  1.00  0.00    -0.342 A  
HETATM   19  C   UNL     1      -9.124   9.883  64.131  1.00  0.00    -0.294 A  
BRANCH  11  20
HETATM   20  C   UNL     1     -12.247  12.856  66.718  1.00  0.00    -0.204 C  
BRANCH  20  21
HETATM   21  C   UNL     1     -11.622  14.141  67.215  1.00  0.00    -0.399 A  
HETATM   22 CL   UNL     1     -10.165  18.170  68.693  1.00  0.00    -0.393 Cl 
HETATM   23  C   UNL     1     -10.878  14.984  66.376  1.00  0.00    -0.326 A  
HETATM   24  C   UNL     1     -11.448  15.815  68.983  1.00  0.00    -0.394 A  
HETATM   25  C   UNL     1     -10.415  16.221  66.839  1.00  0.00    -0.302 A  
HETATM   26  C   UNL     1     -11.906  14.577  68.522  1.00  0.00    -0.355 A  
HETATM   27  C   UNL     1     -10.704  16.633  68.138  1.00  0.00    -0.349 A  
ENDBRANCH  20  21
ENDBRANCH  11  20
ENDBRANCH   6   9
TORSDOF 3
ENDMDL
MODEL       30
REMARK 921   NORMALIZED FREE ENERGY PREDICTED BY IDOCK:   -6.57 KCAL/MOL
REMARK 922        TOTAL FREE ENERGY PREDICTED BY IDOCK:   -8.49 KCAL/MOL
REMARK 923 INTER-LIGAND FREE ENERGY PREDICTED BY IDOCK:   -7.78 KCAL/MOL
REMARK 924 INTRA-LIGAND FREE ENERGY PREDICTED BY IDOCK:   -0.71 KCAL/MOL
REMARK 927      BINDING AFFINITY PREDICTED BY RF-SCORE:    0.00 PKD
ROOT
HETATM    1  C   UNL     1     -12.018  15.306  64.131  1.00  0.00    -0.130 C  
HETATM    2  N   UNL     1     -11.568  14.216  65.005  1.00  0.00    -0.345 NA 
HETATM    3  C   UNL     1     -11.834  12.935  64.337  1.00  0.00    -0.383 C  
HETATM    4  C   UNL     1     -11.421  11.679  65.102  1.00  0.00    -0.180 C  
HETATM    5  C   UNL     1      -9.907  11.511  65.198  1.00  0.00    -0.294 C  
HETATM    6  C   UNL     1      -9.280  12.210  66.416  1.00  0.00    -0.207 C  
HETATM    7  C   UNL     1     -10.170  14.427  65.409  1.00  0.00    -0.382 C  
HETATM    8  C   UNL     1      -9.792  13.637  66.668  1.00  0.00    -0.284 C  
ENDROOT
BRANCH   6   9
HETATM    9  N   UNL     1      -9.363  11.385  67.648  1.00  0.00    -0.157 N  
HETATM   10  N   UNL     1     -10.547  11.423  68.341  1.00  0.00    -0.193 NA 
HETATM   11  C   UNL     1     -10.719  10.687  69.394  1.00  0.00    -0.244 C  
HETATM   12  O   UNL     1      -7.194  10.587  67.444  1.00  0.00    -0.089 OA 
HETATM   13  C   UNL     1      -9.665   9.800  69.928  1.00  0.00    -0.273 A  
HETATM   14  C   UNL     1      -9.844   8.980  71.049  1.00  0.00    -0.352 A  
HETATM   15  C   UNL     1      -8.269  10.619  68.043  1.00  0.00    -0.113 C  
HETATM   16  C   UNL     1      -8.810   8.137  71.470  1.00  0.00    -0.195 A  
HETATM   17  C   UNL     1      -8.451   9.782  69.245  1.00  0.00    -0.152 A  
HETATM   18  C   UNL     1      -7.595   8.122  70.788  1.00  0.00    -0.071 A  
HETATM   19  C   UNL     1      -7.411   8.946  69.679  1.00  0.00    -0.071 A  
BRANCH  11  20
HETATM   20  C   UNL     1     -12.099  10.730  70.040  1.00  0.00    -0.423 C  
BRANCH  20  21
HETATM   21  C   UNL     1     -12.464  12.009  70.762  1.00  0.00    -0.372 A  
HETATM   22 CL   UNL     1     -13.986  15.767  72.786  1.00  0.00    -0.634 Cl 
HETATM   23  C   UNL     1     -12.162  13.275  70.239  1.00  0.00    -0.391 A  
HETATM   24  C   UNL     1     -13.713  13.094  72.557  1.00  0.00    -0.563 A  
HETATM   25  C   UNL     1     -12.619  14.436  70.874  1.00  0.00    -0.422 A  
HETATM   26  C   UNL     1     -13.251  11.935  71.925  1.00  0.00    -0.467 A  
HETATM   27  C   UNL     1     -13.395  14.341  72.028  1.00  0.00    -0.398 A  
ENDBRANCH  20  21
ENDBRANCH  11  20
ENDBRANCH   6   9
TORSDOF 3
ENDMDL
MODEL       31
REMARK 921   NORMALIZED FREE ENERGY PREDICTED BY IDOCK:   -6.55 KCAL/MOL
REMARK 922        TOTAL FREE ENERGY PREDICTED BY IDOCK:   -8.47 KCAL/MOL
REMARK 923 INTER-LIGAND FREE ENERGY PREDICTED BY IDOCK:   -7.72 KCAL/MOL
REMARK 924 INTRA-LIGAND FREE ENERGY PREDICTED BY IDOCK:   -0.75 KCAL/MOL
REMARK 927      BINDING AFFINITY PREDICTED BY RF-SCORE:    0.00 PKD
ROOT
HETATM    1  C   UNL     1      -8.469   8.216  73.450  1.00  0.00    -0.239 C  
HETATM    2  N   UNL     1      -8.725   8.841  72.147  1.00  0.00    -0.391 NA 
HETATM    3  C   UNL     1      -7.693   8.399  71.199  1.00  0.00    -0.100 C  
HETATM    4  C   UNL     1      -7.804   8.947  69.779  1.00  0.00    -0.090 C  
HETATM    5  C   UNL     1      -8.996   8.378  69.012  1.00  0.00    -0.147 C  
HETATM    6  C   UNL     1     -10.296   9.177  69.203  1.00  0.00    -0.212 C  
HETATM    7  C   UNL     1     -10.109   8.587  71.720  1.00  0.00    -0.281 C  
HETATM    8  C   UNL     1     -10.591   9.580  70.656  1.00  0.00    -0.374 C  
ENDROOT
BRANCH   6   9
HETATM    9  N   UNL     1     -10.380  10.348  68.294  1.00  0.00    -0.162 N  
HETATM   10  N   UNL     1     -10.220  11.588  68.862  1.00  0.00    -0.187 NA 
HETATM   11  C   UNL     1     -10.223  12.655  68.127  1.00  0.00    -0.240 C  
HETATM   12  O   UNL     1     -10.771   9.051  66.409  1.00  0.00    -0.050 OA 
HETATM   13  C   UNL     1     -10.426  12.617  66.664  1.00  0.00    -0.261 A  
HETATM   14  C   UNL     1     -10.405  13.758  65.854  1.00  0.00    -0.315 A  
HETATM   15  C   UNL     1     -10.607  10.154  66.933  1.00  0.00    -0.200 C  
HETATM   16  C   UNL     1     -10.565  13.636  64.470  1.00  0.00    -0.428 A  
HETATM   17  C   UNL     1     -10.619  11.364  66.088  1.00  0.00    -0.316 A  
HETATM   18  C   UNL     1     -10.763  12.382  63.895  1.00  0.00    -0.465 A  
HETATM   19  C   UNL     1     -10.794  11.246  64.701  1.00  0.00    -0.335 A  
BRANCH  11  20
HETATM   20  C   UNL     1      -9.946  13.974  68.839  1.00  0.00    -0.103 C  
BRANCH  20  21
HETATM   21  C   UNL     1     -11.044  14.496  69.740  1.00  0.00    -0.239 A  
HETATM   22 CL   UNL     1     -14.057  15.967  72.789  1.00  0.00    -0.544 Cl 
HETATM   23  C   UNL     1     -12.197  13.749  70.024  1.00  0.00    -0.407 A  
HETATM   24  C   UNL     1     -11.780  16.169  71.359  1.00  0.00    -0.506 A  
HETATM   25  C   UNL     1     -13.135  14.212  70.954  1.00  0.00    -0.338 A  
HETATM   26  C   UNL     1     -10.846  15.708  70.426  1.00  0.00    -0.358 A  
HETATM   27  C   UNL     1     -12.921  15.418  71.620  1.00  0.00    -0.436 A  
ENDBRANCH  20  21
ENDBRANCH  11  20
ENDBRANCH   6   9
TORSDOF 3
ENDMDL
MODEL       32
REMARK 921   NORMALIZED FREE ENERGY PREDICTED BY IDOCK:   -6.55 KCAL/MOL
REMARK 922        TOTAL FREE ENERGY PREDICTED BY IDOCK:   -8.47 KCAL/MOL
REMARK 923 INTER-LIGAND FREE ENERGY PREDICTED BY IDOCK:   -8.50 KCAL/MOL
REMARK 924 INTRA-LIGAND FREE ENERGY PREDICTED BY IDOCK:    0.03 KCAL/MOL
REMARK 927      BINDING AFFINITY PREDICTED BY RF-SCORE:    0.00 PKD
ROOT
HETATM    1  C   UNL     1      -9.139   4.105  72.269  1.00  0.00    -0.116 C  
HETATM    2  N   UNL     1      -9.683   5.385  71.798  1.00  0.00    -0.159 NA 
HETATM    3  C   UNL     1      -9.706   5.377  70.329  1.00  0.00    -0.192 C  
HETATM    4  C   UNL     1     -10.253   6.634  69.657  1.00  0.00    -0.213 C  
HETATM    5  C   UNL     1     -11.758   6.807  69.851  1.00  0.00    -0.279 C  
HETATM    6  C   UNL     1     -12.136   7.573  71.130  1.00  0.00    -0.307 C  
HETATM    7  C   UNL     1     -10.980   5.655  72.437  1.00  0.00    -0.259 C  
HETATM    8  C   UNL     1     -11.365   7.139  72.386  1.00  0.00    -0.312 C  
ENDROOT
BRANCH   6   9
HETATM    9  N   UNL     1     -12.078   9.045  70.947  1.00  0.00    -0.247 N  
HETATM   10  N   UNL     1     -11.202   9.519  70.002  1.00  0.00    -0.232 NA 
HETATM   11  C   UNL     1     -11.134  10.787  69.742  1.00  0.00    -0.281 C  
HETATM   12  O   UNL     1     -13.675   9.465  72.577  1.00  0.00    -0.448 OA 
HETATM   13  C   UNL     1     -11.955  11.791  70.450  1.00  0.00    -0.422 A  
HETATM   14  C   UNL     1     -11.912  13.161  70.163  1.00  0.00    -0.381 A  
HETATM   15  C   UNL     1     -12.897   9.870  71.713  1.00  0.00    -0.442 C  
HETATM   16  C   UNL     1     -12.750  14.046  70.850  1.00  0.00    -0.420 A  
HETATM   17  C   UNL     1     -12.824  11.318  71.431  1.00  0.00    -0.515 A  
HETATM   18  C   UNL     1     -13.616  13.571  71.833  1.00  0.00    -0.510 A  
HETATM   19  C   UNL     1     -13.652  12.209  72.128  1.00  0.00    -0.285 A  
BRANCH  11  20
HETATM   20  C   UNL     1     -10.197  11.204  68.615  1.00  0.00    -0.216 C  
BRANCH  20  21
HETATM   21  C   UNL     1     -10.749  12.194  67.612  1.00  0.00    -0.252 A  
HETATM   22 CL   UNL     1     -12.176  14.926  64.289  1.00  0.00    -0.472 Cl 
HETATM   23  C   UNL     1     -10.239  13.495  67.488  1.00  0.00    -0.234 A  
HETATM   24  C   UNL     1     -12.158  12.604  65.661  1.00  0.00    -0.502 A  
HETATM   25  C   UNL     1     -10.693  14.343  66.471  1.00  0.00    -0.306 A  
HETATM   26  C   UNL     1     -11.708  11.759  66.680  1.00  0.00    -0.174 A  
HETATM   27  C   UNL     1     -11.647  13.894  65.560  1.00  0.00    -0.327 A  
ENDBRANCH  20  21
ENDBRANCH  11  20
ENDBRANCH   6   9
TORSDOF 3
ENDMDL
MODEL       33
REMARK 921   NORMALIZED FREE ENERGY PREDICTED BY IDOCK:   -6.55 KCAL/MOL
REMARK 922        TOTAL FREE ENERGY PREDICTED BY IDOCK:   -8.47 KCAL/MOL
REMARK 923 INTER-LIGAND FREE ENERGY PREDICTED BY IDOCK:   -7.41 KCAL/MOL
REMARK 924 INTRA-LIGAND FREE ENERGY PREDICTED BY IDOCK:   -1.06 KCAL/MOL
REMARK 927      BINDING AFFINITY PREDICTED BY RF-SCORE:    0.00 PKD
ROOT
HETATM    1  C   UNL     1     -10.500   7.386  73.198  1.00  0.00    -0.356 C  
HETATM    2  N   UNL     1     -10.354   8.077  71.911  1.00  0.00    -0.210 NA 
HETATM    3  C   UNL     1      -9.010   8.666  71.842  1.00  0.00    -0.231 C  
HETATM    4  C   UNL     1      -8.673   9.424  70.560  1.00  0.00    -0.276 C  
HETATM    5  C   UNL     1      -8.521   8.508  69.348  1.00  0.00    -0.127 C  
HETATM    6  C   UNL     1      -9.838   8.242  68.601  1.00  0.00    -0.176 C  
HETATM    7  C   UNL     1     -10.692   7.172  70.803  1.00  0.00    -0.231 C  
HETATM    8  C   UNL     1     -11.036   7.923  69.511  1.00  0.00    -0.078 C  
ENDROOT
BRANCH   6   9
HETATM    9  N   UNL     1     -10.171   9.320  67.636  1.00  0.00    -0.215 N  
HETATM   10  N   UNL     1     -10.884  10.388  68.120  1.00  0.00    -0.243 NA 
HETATM   11  C   UNL     1     -11.163  11.396  67.355  1.00  0.00    -0.305 C  
HETATM   12  O   UNL     1      -9.129   8.257  65.855  1.00  0.00    -0.182 OA 
HETATM   13  C   UNL     1     -10.770  11.451  65.932  1.00  0.00    -0.311 A  
HETATM   14  C   UNL     1     -11.041  12.544  65.100  1.00  0.00    -0.335 A  
HETATM   15  C   UNL     1      -9.754   9.215  66.311  1.00  0.00    -0.274 C  
HETATM   16  C   UNL     1     -10.600  12.537  63.772  1.00  0.00    -0.471 A  
HETATM   17  C   UNL     1     -10.072  10.355  65.428  1.00  0.00    -0.354 A  
HETATM   18  C   UNL     1      -9.906  11.439  63.269  1.00  0.00    -0.428 A  
HETATM   19  C   UNL     1      -9.644  10.346  64.093  1.00  0.00    -0.381 A  
BRANCH  11  20
HETATM   20  C   UNL     1     -11.878  12.573  68.009  1.00  0.00    -0.382 C  
BRANCH  20  21
HETATM   21  C   UNL     1     -11.051  13.818  68.243  1.00  0.00    -0.279 A  
HETATM   22 CL   UNL     1      -8.608  17.627  68.498  1.00  0.00    -0.286 Cl 
HETATM   23  C   UNL     1      -9.665  13.766  68.457  1.00  0.00    -0.193 A  
HETATM   24  C   UNL     1     -10.910  16.255  68.196  1.00  0.00    -0.342 A  
HETATM   25  C   UNL     1      -8.915  14.943  68.552  1.00  0.00    -0.179 A  
HETATM   26  C   UNL     1     -11.660  15.078  68.106  1.00  0.00    -0.360 A  
HETATM   27  C   UNL     1      -9.539  16.182  68.418  1.00  0.00    -0.209 A  
ENDBRANCH  20  21
ENDBRANCH  11  20
ENDBRANCH   6   9
TORSDOF 3
ENDMDL
MODEL       34
REMARK 921   NORMALIZED FREE ENERGY PREDICTED BY IDOCK:   -6.53 KCAL/MOL
REMARK 922        TOTAL FREE ENERGY PREDICTED BY IDOCK:   -8.45 KCAL/MOL
REMARK 923 INTER-LIGAND FREE ENERGY PREDICTED BY IDOCK:   -7.55 KCAL/MOL
REMARK 924 INTRA-LIGAND FREE ENERGY PREDICTED BY IDOCK:   -0.90 KCAL/MOL
REMARK 927      BINDING AFFINITY PREDICTED BY RF-SCORE:    0.00 PKD
ROOT
HETATM    1  C   UNL     1      -7.711  17.113  66.207  1.00  0.00    -0.315 C  
HETATM    2  N   UNL     1      -8.373  16.106  67.046  1.00  0.00    -0.195 NA 
HETATM    3  C   UNL     1      -7.964  16.311  68.442  1.00  0.00    -0.173 C  
HETATM    4  C   UNL     1      -8.565  15.352  69.467  1.00  0.00    -0.212 C  
HETATM    5  C   UNL     1     -10.059  15.578  69.690  1.00  0.00    -0.297 C  
HETATM    6  C   UNL     1     -10.958  14.787  68.726  1.00  0.00    -0.259 C  
HETATM    7  C   UNL     1      -9.825  16.124  66.816  1.00  0.00    -0.245 C  
HETATM    8  C   UNL     1     -10.509  14.824  67.257  1.00  0.00    -0.264 C  
ENDROOT
BRANCH   6   9
HETATM    9  N   UNL     1     -11.189  13.393  69.182  1.00  0.00    -0.259 N  
HETATM   10  N   UNL     1     -10.443  12.411  68.578  1.00  0.00    -0.230 NA 
HETATM   11  C   UNL     1     -10.544  11.177  68.960  1.00  0.00    -0.218 C  
HETATM   12  O   UNL     1     -12.815  14.002  70.721  1.00  0.00    -0.323 OA 
HETATM   13  C   UNL     1     -11.472  10.745  70.025  1.00  0.00    -0.412 A  
HETATM   14  C   UNL     1     -11.574   9.420  70.466  1.00  0.00    -0.291 A  
HETATM   15  C   UNL     1     -12.124  13.137  70.181  1.00  0.00    -0.321 C  
HETATM   16  C   UNL     1     -12.448   9.096  71.509  1.00  0.00    -0.418 A  
HETATM   17  C   UNL     1     -12.254  11.733  70.620  1.00  0.00    -0.443 A  
HETATM   18  C   UNL     1     -13.232  10.085  72.100  1.00  0.00    -0.489 A  
HETATM   19  C   UNL     1     -13.140  11.402  71.655  1.00  0.00    -0.498 A  
BRANCH  11  20
HETATM   20  C   UNL     1      -9.609  10.176  68.292  1.00  0.00    -0.150 C  
BRANCH  20  21
HETATM   21  C   UNL     1      -9.328  10.395  66.821  1.00  0.00    -0.181 A  
HETATM   22 CL   UNL     1      -8.651  10.633  62.346  1.00  0.00    -0.259 Cl 
HETATM   23  C   UNL     1      -8.031  10.328  66.289  1.00  0.00    -0.124 A  
HETATM   24  C   UNL     1     -10.202  10.619  64.552  1.00  0.00    -0.399 A  
HETATM   25  C   UNL     1      -7.822  10.418  64.908  1.00  0.00    -0.099 A  
HETATM   26  C   UNL     1     -10.409  10.534  65.933  1.00  0.00    -0.275 A  
HETATM   27  C   UNL     1      -8.907  10.560  64.046  1.00  0.00    -0.195 A  
ENDBRANCH  20  21
ENDBRANCH  11  20
ENDBRANCH   6   9
TORSDOF 3
ENDMDL
MODEL       35
REMARK 921   NORMALIZED FREE ENERGY PREDICTED BY IDOCK:   -6.53 KCAL/MOL
REMARK 922        TOTAL FREE ENERGY PREDICTED BY IDOCK:   -8.45 KCAL/MOL
REMARK 923 INTER-LIGAND FREE ENERGY PREDICTED BY IDOCK:   -8.93 KCAL/MOL
REMARK 924 INTRA-LIGAND FREE ENERGY PREDICTED BY IDOCK:    0.48 KCAL/MOL
REMARK 927      BINDING AFFINITY PREDICTED BY RF-SCORE:    0.00 PKD
ROOT
HETATM    1  C   UNL     1      -7.457  20.406  67.061  1.00  0.00    -0.310 C  
HETATM    2  N   UNL     1      -8.382  19.329  67.434  1.00  0.00    -0.283 NA 
HETATM    3  C   UNL     1      -9.562  19.397  66.561  1.00  0.00    -0.370 C  
HETATM    4  C   UNL     1     -10.638  18.340  66.801  1.00  0.00    -0.338 C  
HETATM    5  C   UNL     1     -10.198  16.938  66.386  1.00  0.00    -0.326 C  
HETATM    6  C   UNL     1      -9.475  16.159  67.498  1.00  0.00    -0.223 C  
HETATM    7  C   UNL     1      -7.686  18.034  67.437  1.00  0.00    -0.208 C  
HETATM    8  C   UNL     1      -8.419  16.971  68.264  1.00  0.00    -0.233 C  
ENDROOT
BRANCH   6   9
HETATM    9  N   UNL     1     -10.420  15.493  68.430  1.00  0.00    -0.235 N  
HETATM   10  N   UNL     1     -10.814  14.218  68.109  1.00  0.00    -0.239 NA 
HETATM   11  C   UNL     1     -11.591  13.548  68.901  1.00  0.00    -0.323 C  
HETATM   12  O   UNL     1     -10.528  17.314  69.865  1.00  0.00    -0.057 OA 
HETATM   13  C   UNL     1     -12.120  14.109  70.161  1.00  0.00    -0.411 A  
HETATM   14  C   UNL     1     -12.939  13.389  71.040  1.00  0.00    -0.260 A  
HETATM   15  C   UNL     1     -10.857  16.165  69.570  1.00  0.00    -0.329 C  
HETATM   16  C   UNL     1     -13.368  13.976  72.235  1.00  0.00    -0.574 A  
HETATM   17  C   UNL     1     -11.748  15.414  70.477  1.00  0.00    -0.356 A  
HETATM   18  C   UNL     1     -12.997  15.283  72.547  1.00  0.00    -0.488 A  
HETATM   19  C   UNL     1     -12.191  16.005  71.669  1.00  0.00    -0.514 A  
BRANCH  11  20
HETATM   20  C   UNL     1     -11.898  12.110  68.501  1.00  0.00    -0.365 C  
BRANCH  20  21
HETATM   21  C   UNL     1     -11.429  11.678  67.129  1.00  0.00    -0.344 A  
HETATM   22 CL   UNL     1      -9.601  10.475  63.160  1.00  0.00    -0.358 Cl 
HETATM   23  C   UNL     1     -11.576  12.494  65.998  1.00  0.00    -0.456 A  
HETATM   24  C   UNL     1     -10.144  10.104  65.776  1.00  0.00    -0.324 A  
HETATM   25  C   UNL     1     -11.025  12.114  64.768  1.00  0.00    -0.356 A  
HETATM   26  C   UNL     1     -10.699  10.482  67.002  1.00  0.00    -0.310 A  
HETATM   27  C   UNL     1     -10.309  10.923  64.663  1.00  0.00    -0.338 A  
ENDBRANCH  20  21
ENDBRANCH  11  20
ENDBRANCH   6   9
TORSDOF 3
ENDMDL
MODEL       36
REMARK 921   NORMALIZED FREE ENERGY PREDICTED BY IDOCK:   -6.44 KCAL/MOL
REMARK 922        TOTAL FREE ENERGY PREDICTED BY IDOCK:   -8.34 KCAL/MOL
REMARK 923 INTER-LIGAND FREE ENERGY PREDICTED BY IDOCK:   -7.97 KCAL/MOL
REMARK 924 INTRA-LIGAND FREE ENERGY PREDICTED BY IDOCK:   -0.37 KCAL/MOL
REMARK 927      BINDING AFFINITY PREDICTED BY RF-SCORE:    0.00 PKD
ROOT
HETATM    1  C   UNL     1      -9.787  15.143  65.829  1.00  0.00    -0.351 C  
HETATM    2  N   UNL     1     -10.045  13.876  66.525  1.00  0.00    -0.279 NA 
HETATM    3  C   UNL     1     -10.786  12.983  65.623  1.00  0.00    -0.275 C  
HETATM    4  C   UNL     1     -11.138  11.605  66.179  1.00  0.00    -0.335 C  
HETATM    5  C   UNL     1      -9.918  10.702  66.350  1.00  0.00    -0.273 C  
HETATM    6  C   UNL     1      -9.223  10.849  67.714  1.00  0.00    -0.153 C  
HETATM    7  C   UNL     1      -8.792  13.320  67.056  1.00  0.00    -0.212 C  
HETATM    8  C   UNL     1      -9.026  12.301  68.178  1.00  0.00    -0.192 C  
ENDROOT
BRANCH   6   9
HETATM    9  N   UNL     1      -9.869  10.031  68.771  1.00  0.00    -0.161 N  
HETATM   10  N   UNL     1     -10.997  10.551  69.356  1.00  0.00    -0.233 NA 
HETATM   11  C   UNL     1     -11.651   9.872  70.245  1.00  0.00    -0.250 C  
HETATM   12  O   UNL     1      -8.307   8.321  68.617  1.00  0.00    -0.122 OA 
HETATM   13  C   UNL     1     -11.222   8.535  70.704  1.00  0.00    -0.278 A  
HETATM   14  C   UNL     1     -11.932   7.779  71.644  1.00  0.00    -0.330 A  
HETATM   15  C   UNL     1      -9.327   8.796  69.118  1.00  0.00    -0.149 C  
HETATM   16  C   UNL     1     -11.482   6.503  71.999  1.00  0.00    -0.342 A  
HETATM   17  C   UNL     1     -10.061   8.017  70.135  1.00  0.00    -0.194 A  
HETATM   18  C   UNL     1     -10.318   5.987  71.432  1.00  0.00    -0.269 A  
HETATM   19  C   UNL     1      -9.604   6.742  70.504  1.00  0.00    -0.174 A  
BRANCH  11  20
HETATM   20  C   UNL     1     -12.940  10.496  70.768  1.00  0.00    -0.413 C  
BRANCH  20  21
HETATM   21  C   UNL     1     -12.886  11.971  71.102  1.00  0.00    -0.331 A  
HETATM   22 CL   UNL     1     -12.284  16.330  72.189  1.00  0.00    -0.521 Cl 
HETATM   23  C   UNL     1     -13.388  12.483  72.308  1.00  0.00    -0.475 A  
HETATM   24  C   UNL     1     -12.013  14.189  70.572  1.00  0.00    -0.393 A  
HETATM   25  C   UNL     1     -13.216  13.834  72.635  1.00  0.00    -0.571 A  
HETATM   26  C   UNL     1     -12.190  12.841  70.243  1.00  0.00    -0.351 A  
HETATM   27  C   UNL     1     -12.527  14.679  71.768  1.00  0.00    -0.345 A  
ENDBRANCH  20  21
ENDBRANCH  11  20
ENDBRANCH   6   9
TORSDOF 3
ENDMDL
MODEL       37
REMARK 921   NORMALIZED FREE ENERGY PREDICTED BY IDOCK:   -6.40 KCAL/MOL
REMARK 922        TOTAL FREE ENERGY PREDICTED BY IDOCK:   -8.29 KCAL/MOL
REMARK 923 INTER-LIGAND FREE ENERGY PREDICTED BY IDOCK:   -8.28 KCAL/MOL
REMARK 924 INTRA-LIGAND FREE ENERGY PREDICTED BY IDOCK:   -0.01 KCAL/MOL
REMARK 927      BINDING AFFINITY PREDICTED BY RF-SCORE:    0.00 PKD
ROOT
HETATM    1  C   UNL     1     -10.611   9.794  66.383  1.00  0.00    -0.047 C  
HETATM    2  N   UNL     1     -10.507  11.258  66.412  1.00  0.00    -0.249 NA 
HETATM    3  C   UNL     1      -9.490  11.680  65.440  1.00  0.00    -0.171 C  
HETATM    4  C   UNL     1      -9.250  13.184  65.327  1.00  0.00     0.687 C  
HETATM    5  C   UNL     1     -10.419  13.927  64.684  1.00  0.00    -0.419 C  
HETATM    6  C   UNL     1     -11.493  14.381  65.687  1.00  0.00    -0.336 C  
HETATM    7  C   UNL     1     -11.833  11.868  66.228  1.00  0.00    -0.028 C  
HETATM    8  C   UNL     1     -11.890  13.318  66.724  1.00  0.00    -0.448 C  
ENDROOT
BRANCH   6   9
HETATM    9  N   UNL     1     -11.148  15.668  66.343  1.00  0.00    -0.197 N  
HETATM   10  N   UNL     1     -10.952  15.639  67.702  1.00  0.00    -0.317 NA 
HETATM   11  C   UNL     1     -10.592  16.708  68.339  1.00  0.00    -0.343 C  
HETATM   12  O   UNL     1     -11.221  16.874  64.362  1.00  0.00    -1.159 OA 
HETATM   13  C   UNL     1     -10.401  18.011  67.669  1.00  0.00    -0.397 A  
HETATM   14  C   UNL     1      -9.987  19.168  68.339  1.00  0.00    -0.493 A  
HETATM   15  C   UNL     1     -11.032  16.826  65.578  1.00  0.00    -0.031 C  
HETATM   16  C   UNL     1      -9.791  20.356  67.627  1.00  0.00    -0.538 A  
HETATM   17  C   UNL     1     -10.629  18.052  66.295  1.00  0.00    -0.262 A  
HETATM   18  C   UNL     1     -10.022  20.396  66.253  1.00  0.00    -0.352 A  
HETATM   19  C   UNL     1     -10.444  19.248  65.586  1.00  0.00    -0.303 A  
BRANCH  11  20
HETATM   20  C   UNL     1     -10.311  16.553  69.829  1.00  0.00    -0.163 C  
BRANCH  20  21
HETATM   21  C   UNL     1     -11.223  15.617  70.592  1.00  0.00    -0.382 A  
HETATM   22 CL   UNL     1     -14.280  12.922  72.576  1.00  0.00    -0.239 Cl 
HETATM   23  C   UNL     1     -11.800  15.973  71.821  1.00  0.00    -0.599 A  
HETATM   24  C   UNL     1     -12.554  13.571  70.608  1.00  0.00    -0.345 A  
HETATM   25  C   UNL     1     -12.731  15.131  72.441  1.00  0.00    -0.432 A  
HETATM   26  C   UNL     1     -11.619  14.409  69.992  1.00  0.00    -0.334 A  
HETATM   27  C   UNL     1     -13.107  13.937  71.831  1.00  0.00    -0.385 A  
ENDBRANCH  20  21
ENDBRANCH  11  20
ENDBRANCH   6   9
TORSDOF 3
ENDMDL
MODEL       38
REMARK 921   NORMALIZED FREE ENERGY PREDICTED BY IDOCK:   -6.38 KCAL/MOL
REMARK 922        TOTAL FREE ENERGY PREDICTED BY IDOCK:   -8.27 KCAL/MOL
REMARK 923 INTER-LIGAND FREE ENERGY PREDICTED BY IDOCK:   -7.16 KCAL/MOL
REMARK 924 INTRA-LIGAND FREE ENERGY PREDICTED BY IDOCK:   -1.12 KCAL/MOL
REMARK 927      BINDING AFFINITY PREDICTED BY RF-SCORE:    0.00 PKD
ROOT
HETATM    1  C   UNL     1      -7.779   4.918  67.112  1.00  0.00    -0.092 C  
HETATM    2  N   UNL     1      -8.603   5.986  67.692  1.00  0.00    -0.107 NA 
HETATM    3  C   UNL     1      -9.996   5.789  67.272  1.00  0.00    -0.154 C  
HETATM    4  C   UNL     1     -11.006   6.810  67.791  1.00  0.00    -0.321 C  
HETATM    5  C   UNL     1     -11.261   6.687  69.292  1.00  0.00    -0.326 C  
HETATM    6  C   UNL     1     -10.292   7.510  70.156  1.00  0.00    -0.216 C  
HETATM    7  C   UNL     1      -8.397   6.057  69.146  1.00  0.00    -0.114 C  
HETATM    8  C   UNL     1      -8.817   7.409  69.737  1.00  0.00    -0.141 C  
ENDROOT
BRANCH   6   9
HETATM    9  N   UNL     1     -10.715   8.927  70.288  1.00  0.00    -0.215 N  
HETATM   10  N   UNL     1     -10.128   9.833  69.439  1.00  0.00    -0.195 NA 
HETATM   11  C   UNL     1     -10.486  11.078  69.453  1.00  0.00    -0.142 C  
HETATM   12  O   UNL     1     -12.195   8.484  72.020  1.00  0.00    -0.320 OA 
HETATM   13  C   UNL     1     -11.505  11.606  70.384  1.00  0.00     0.001 A  
HETATM   14  C   UNL     1     -11.920  12.942  70.393  1.00  0.00    -0.329 A  
HETATM   15  C   UNL     1     -11.671   9.279  71.239  1.00  0.00    -0.346 C  
HETATM   16  C   UNL     1     -12.920  13.357  71.279  1.00  0.00    -0.368 A  
HETATM   17  C   UNL     1     -12.081  10.697  71.268  1.00  0.00    -0.401 A  
HETATM   18  C   UNL     1     -13.494  12.448  72.165  1.00  0.00    -0.481 A  
HETATM   19  C   UNL     1     -13.074  11.119  72.165  1.00  0.00    -0.288 A  
BRANCH  11  20
HETATM   20  C   UNL     1      -9.842  11.985  68.411  1.00  0.00    -0.204 C  
BRANCH  20  21
HETATM   21  C   UNL     1     -10.579  12.132  67.098  1.00  0.00    -0.254 A  
HETATM   22 CL   UNL     1     -12.397  12.721  62.988  1.00  0.00    -0.283 Cl 
HETATM   23  C   UNL     1     -11.465  13.192  66.853  1.00  0.00    -0.384 A  
HETATM   24  C   UNL     1     -10.836  11.435  64.772  1.00  0.00    -0.339 A  
HETATM   25  C   UNL     1     -12.039  13.363  65.588  1.00  0.00    -0.476 A  
HETATM   26  C   UNL     1     -10.268  11.262  66.038  1.00  0.00    -0.295 A  
HETATM   27  C   UNL     1     -11.720  12.487  64.553  1.00  0.00    -0.362 A  
ENDBRANCH  20  21
ENDBRANCH  11  20
ENDBRANCH   6   9
TORSDOF 3
ENDMDL
MODEL       39
REMARK 921   NORMALIZED FREE ENERGY PREDICTED BY IDOCK:   -6.34 KCAL/MOL
REMARK 922        TOTAL FREE ENERGY PREDICTED BY IDOCK:   -8.23 KCAL/MOL
REMARK 923 INTER-LIGAND FREE ENERGY PREDICTED BY IDOCK:   -7.12 KCAL/MOL
REMARK 924 INTRA-LIGAND FREE ENERGY PREDICTED BY IDOCK:   -1.10 KCAL/MOL
REMARK 927      BINDING AFFINITY PREDICTED BY RF-SCORE:    0.00 PKD
ROOT
HETATM    1  C   UNL     1     -10.861  15.666  65.129  1.00  0.00    -0.431 C  
HETATM    2  N   UNL     1     -10.734  14.703  66.230  1.00  0.00    -0.309 NA 
HETATM    3  C   UNL     1     -10.287  15.417  67.433  1.00  0.00    -0.262 C  
HETATM    4  C   UNL     1     -10.106  14.570  68.690  1.00  0.00    -0.244 C  
HETATM    5  C   UNL     1     -11.429  14.072  69.269  1.00  0.00    -0.344 C  
HETATM    6  C   UNL     1     -11.899  12.731  68.680  1.00  0.00    -0.304 C  
HETATM    7  C   UNL     1     -11.982  13.941  66.389  1.00  0.00    -0.438 C  
HETATM    8  C   UNL     1     -11.778  12.626  67.152  1.00  0.00    -0.438 C  
ENDROOT
BRANCH   6   9
HETATM    9  N   UNL     1     -11.267  11.566  69.349  1.00  0.00    -0.260 N  
HETATM   10  N   UNL     1     -10.044  11.164  68.872  1.00  0.00    -0.201 NA 
HETATM   11  C   UNL     1      -9.402  10.191  69.439  1.00  0.00    -0.219 C  
HETATM   12  O   UNL     1     -13.020  11.277  70.842  1.00  0.00    -0.273 OA 
HETATM   13  C   UNL     1      -9.942   9.444  70.593  1.00  0.00    -0.349 A  
HETATM   14  C   UNL     1      -9.249   8.409  71.232  1.00  0.00    -0.228 A  
HETATM   15  C   UNL     1     -11.916  10.942  70.412  1.00  0.00    -0.362 C  
HETATM   16  C   UNL     1      -9.811   7.775  72.345  1.00  0.00    -0.264 A  
HETATM   17  C   UNL     1     -11.197   9.829  71.062  1.00  0.00    -0.451 A  
HETATM   18  C   UNL     1     -11.068   8.158  72.811  1.00  0.00    -0.407 A  
HETATM   19  C   UNL     1     -11.764   9.181  72.169  1.00  0.00    -0.305 A  
BRANCH  11  20
HETATM   20  C   UNL     1      -8.013   9.880  68.893  1.00  0.00    -0.096 C  
BRANCH  20  21
HETATM   21  C   UNL     1      -7.938   9.467  67.439  1.00  0.00    -0.106 A  
HETATM   22 CL   UNL     1      -8.018   8.557  63.000  1.00  0.00    -0.156 Cl 
HETATM   23  C   UNL     1      -8.567   8.309  66.958  1.00  0.00    -0.124 A  
HETATM   24  C   UNL     1      -7.353  10.054  65.143  1.00  0.00    -0.139 A  
HETATM   25  C   UNL     1      -8.576   8.020  65.588  1.00  0.00    -0.167 A  
HETATM   26  C   UNL     1      -7.339  10.338  66.512  1.00  0.00    -0.113 A  
HETATM   27  C   UNL     1      -7.973   8.895  64.687  1.00  0.00    -0.132 A  
ENDBRANCH  20  21
ENDBRANCH  11  20
ENDBRANCH   6   9
TORSDOF 3
ENDMDL
MODEL       40
REMARK 921   NORMALIZED FREE ENERGY PREDICTED BY IDOCK:   -6.33 KCAL/MOL
REMARK 922        TOTAL FREE ENERGY PREDICTED BY IDOCK:   -8.22 KCAL/MOL
REMARK 923 INTER-LIGAND FREE ENERGY PREDICTED BY IDOCK:   -7.41 KCAL/MOL
REMARK 924 INTRA-LIGAND FREE ENERGY PREDICTED BY IDOCK:   -0.80 KCAL/MOL
REMARK 927      BINDING AFFINITY PREDICTED BY RF-SCORE:    0.00 PKD
ROOT
HETATM    1  C   UNL     1      -8.892   3.716  67.920  1.00  0.00    -0.117 C  
HETATM    2  N   UNL     1      -9.175   5.146  68.098  1.00  0.00    -0.113 NA 
HETATM    3  C   UNL     1      -7.927   5.834  68.454  1.00  0.00    -0.104 C  
HETATM    4  C   UNL     1      -8.029   7.342  68.673  1.00  0.00    -0.124 C  
HETATM    5  C   UNL     1      -8.288   8.115  67.382  1.00  0.00    -0.122 C  
HETATM    6  C   UNL     1      -9.779   8.271  67.040  1.00  0.00    -0.211 C  
HETATM    7  C   UNL     1      -9.864   5.682  66.915  1.00  0.00    -0.159 C  
HETATM    8  C   UNL     1     -10.611   6.989  67.208  1.00  0.00    -0.395 C  
ENDROOT
BRANCH   6   9
HETATM    9  N   UNL     1     -10.407   9.414  67.749  1.00  0.00    -0.223 N  
HETATM   10  N   UNL     1     -10.675   9.244  69.085  1.00  0.00    -0.213 NA 
HETATM   11  C   UNL     1     -11.169  10.216  69.787  1.00  0.00    -0.272 C  
HETATM   12  O   UNL     1     -10.472  10.752  65.854  1.00  0.00    -0.252 OA 
HETATM   13  C   UNL     1     -11.500  11.533  69.205  1.00  0.00    -0.370 A  
HETATM   14  C   UNL     1     -12.010  12.599  69.956  1.00  0.00    -0.377 A  
HETATM   15  C   UNL     1     -10.689  10.588  67.055  1.00  0.00    -0.250 C  
HETATM   16  C   UNL     1     -12.261  13.830  69.340  1.00  0.00    -0.325 A  
HETATM   17  C   UNL     1     -11.258  11.699  67.843  1.00  0.00    -0.334 A  
HETATM   18  C   UNL     1     -12.022  13.994  67.977  1.00  0.00    -0.386 A  
HETATM   19  C   UNL     1     -11.525  12.930  67.226  1.00  0.00    -0.388 A  
BRANCH  11  20
HETATM   20  C   UNL     1     -11.346   9.958  71.279  1.00  0.00    -0.404 C  
BRANCH  20  21
HETATM   21  C   UNL     1     -11.229   8.519  71.732  1.00  0.00    -0.379 A  
HETATM   22 CL   UNL     1     -11.227   4.294  73.373  1.00  0.00    -0.374 Cl 
HETATM   23  C   UNL     1     -10.208   8.087  72.592  1.00  0.00    -0.385 A  
HETATM   24  C   UNL     1     -12.246   6.306  71.893  1.00  0.00    -0.256 A  
HETATM   25  C   UNL     1     -10.200   6.776  73.084  1.00  0.00    -0.253 A  
HETATM   26  C   UNL     1     -12.251   7.613  71.396  1.00  0.00    -0.351 A  
HETATM   27  C   UNL     1     -11.219   5.893  72.736  1.00  0.00    -0.276 A  
ENDBRANCH  20  21
ENDBRANCH  11  20
ENDBRANCH   6   9
TORSDOF 3
ENDMDL
MODEL       41
REMARK 921   NORMALIZED FREE ENERGY PREDICTED BY IDOCK:   -6.31 KCAL/MOL
REMARK 922        TOTAL FREE ENERGY PREDICTED BY IDOCK:   -8.19 KCAL/MOL
REMARK 923 INTER-LIGAND FREE ENERGY PREDICTED BY IDOCK:   -7.21 KCAL/MOL
REMARK 924 INTRA-LIGAND FREE ENERGY PREDICTED BY IDOCK:   -0.97 KCAL/MOL
REMARK 927      BINDING AFFINITY PREDICTED BY RF-SCORE:    0.00 PKD
ROOT
HETATM    1  C   UNL     1      -5.606   8.524  64.665  1.00  0.00    -0.047 C  
HETATM    2  N   UNL     1      -6.747   8.742  65.563  1.00  0.00    -0.070 NA 
HETATM    3  C   UNL     1      -7.983   8.392  64.850  1.00  0.00    -0.136 C  
HETATM    4  C   UNL     1      -9.282   8.551  65.637  1.00  0.00    -0.161 C  
HETATM    5  C   UNL     1      -9.432   7.520  66.753  1.00  0.00    -0.230 C  
HETATM    6  C   UNL     1      -8.809   7.957  68.090  1.00  0.00    -0.125 C  
HETATM    7  C   UNL     1      -6.542   8.030  66.833  1.00  0.00    -0.057 C  
HETATM    8  C   UNL     1      -7.411   8.585  67.969  1.00  0.00    -0.097 C  
ENDROOT
BRANCH   6   9
HETATM    9  N   UNL     1      -9.718   8.821  68.884  1.00  0.00    -0.169 N  
HETATM   10  N   UNL     1      -9.678  10.169  68.623  1.00  0.00    -0.157 NA 
HETATM   11  C   UNL     1     -10.481  10.983  69.233  1.00  0.00    -0.180 C  
HETATM   12  O   UNL     1     -10.598   7.048  70.094  1.00  0.00    -0.215 OA 
HETATM   13  C   UNL     1     -11.453  10.532  70.250  1.00  0.00    -0.416 A  
HETATM   14  C   UNL     1     -12.345  11.395  70.898  1.00  0.00    -0.483 A  
HETATM   15  C   UNL     1     -10.561   8.251  69.834  1.00  0.00    -0.232 C  
HETATM   16  C   UNL     1     -13.263  10.886  71.822  1.00  0.00    -0.513 A  
HETATM   17  C   UNL     1     -11.476   9.170  70.540  1.00  0.00    -0.271 A  
HETATM   18  C   UNL     1     -13.283   9.523  72.113  1.00  0.00    -0.539 A  
HETATM   19  C   UNL     1     -12.389   8.664  71.477  1.00  0.00    -0.370 A  
BRANCH  11  20
HETATM   20  C   UNL     1     -10.422  12.446  68.809  1.00  0.00    -0.179 C  
BRANCH  20  21
HETATM   21  C   UNL     1     -10.795  12.746  67.373  1.00  0.00    -0.265 A  
HETATM   22 CL   UNL     1     -12.231  13.325  63.113  1.00  0.00    -0.453 Cl 
HETATM   23  C   UNL     1     -10.022  12.298  66.291  1.00  0.00    -0.249 A  
HETATM   24  C   UNL     1     -12.464  13.563  65.790  1.00  0.00    -0.514 A  
HETATM   25  C   UNL     1     -10.459  12.493  64.975  1.00  0.00    -0.323 A  
HETATM   26  C   UNL     1     -12.024  13.373  67.104  1.00  0.00    -0.415 A  
HETATM   27  C   UNL     1     -11.678  13.121  64.730  1.00  0.00    -0.347 A  
ENDBRANCH  20  21
ENDBRANCH  11  20
ENDBRANCH   6   9
TORSDOF 3
ENDMDL
MODEL       42
REMARK 921   NORMALIZED FREE ENERGY PREDICTED BY IDOCK:   -6.29 KCAL/MOL
REMARK 922        TOTAL FREE ENERGY PREDICTED BY IDOCK:   -8.17 KCAL/MOL
REMARK 923 INTER-LIGAND FREE ENERGY PREDICTED BY IDOCK:   -7.29 KCAL/MOL
REMARK 924 INTRA-LIGAND FREE ENERGY PREDICTED BY IDOCK:   -0.88 KCAL/MOL
REMARK 927      BINDING AFFINITY PREDICTED BY RF-SCORE:    0.00 PKD
ROOT
HETATM    1  C   UNL     1     -10.617  16.060  65.450  1.00  0.00    -0.408 C  
HETATM    2  N   UNL     1     -10.600  14.989  66.454  1.00  0.00    -0.302 NA 
HETATM    3  C   UNL     1     -10.036  15.521  67.702  1.00  0.00    -0.243 C  
HETATM    4  C   UNL     1      -9.947  14.542  68.871  1.00  0.00    -0.206 C  
HETATM    5  C   UNL     1     -11.313  14.172  69.444  1.00  0.00    -0.318 C  
HETATM    6  C   UNL     1     -11.971  12.967  68.752  1.00  0.00    -0.253 C  
HETATM    7  C   UNL     1     -11.935  14.387  66.583  1.00  0.00    -0.392 C  
HETATM    8  C   UNL     1     -11.895  12.991  67.217  1.00  0.00    -0.419 C  
ENDROOT
BRANCH   6   9
HETATM    9  N   UNL     1     -11.489  11.670  69.291  1.00  0.00    -0.274 N  
HETATM   10  N   UNL     1     -10.486  11.042  68.595  1.00  0.00    -0.183 NA 
HETATM   11  C   UNL     1      -9.971   9.936  69.033  1.00  0.00    -0.187 C  
HETATM   12  O   UNL     1     -12.963  11.693  71.083  1.00  0.00    -0.328 OA 
HETATM   13  C   UNL     1     -10.439   9.272  70.267  1.00  0.00    -0.271 A  
HETATM   14  C   UNL     1      -9.876   8.091  70.766  1.00  0.00    -0.197 A  
HETATM   15  C   UNL     1     -12.051  11.153  70.456  1.00  0.00    -0.381 C  
HETATM   16  C   UNL     1     -10.348   7.544  71.964  1.00  0.00    -0.236 A  
HETATM   17  C   UNL     1     -11.478   9.889  70.960  1.00  0.00    -0.466 A  
HETATM   18  C   UNL     1     -11.390   8.161  72.654  1.00  0.00    -0.450 A  
HETATM   19  C   UNL     1     -11.959   9.330  72.153  1.00  0.00    -0.316 A  
BRANCH  11  20
HETATM   20  C   UNL     1      -8.802   9.366  68.239  1.00  0.00    -0.128 C  
BRANCH  20  21
HETATM   21  C   UNL     1      -9.019   8.012  67.599  1.00  0.00    -0.138 A  
HETATM   22 CL   UNL     1      -9.887   3.836  66.064  1.00  0.00    -0.136 Cl 
HETATM   23  C   UNL     1      -7.994   7.059  67.499  1.00  0.00    -0.113 A  
HETATM   24  C   UNL     1     -10.587   6.354  66.732  1.00  0.00    -0.328 A  
HETATM   25  C   UNL     1      -8.260   5.775  67.009  1.00  0.00    -0.101 A  
HETATM   26  C   UNL     1     -10.320   7.638  67.216  1.00  0.00    -0.367 A  
HETATM   27  C   UNL     1      -9.555   5.427  66.631  1.00  0.00    -0.151 A  
ENDBRANCH  20  21
ENDBRANCH  11  20
ENDBRANCH   6   9
TORSDOF 3
ENDMDL
MODEL       43
REMARK 921   NORMALIZED FREE ENERGY PREDICTED BY IDOCK:   -6.29 KCAL/MOL
REMARK 922        TOTAL FREE ENERGY PREDICTED BY IDOCK:   -8.16 KCAL/MOL
REMARK 923 INTER-LIGAND FREE ENERGY PREDICTED BY IDOCK:   -8.01 KCAL/MOL
REMARK 924 INTRA-LIGAND FREE ENERGY PREDICTED BY IDOCK:   -0.15 KCAL/MOL
REMARK 927      BINDING AFFINITY PREDICTED BY RF-SCORE:    0.00 PKD
ROOT
HETATM    1  C   UNL     1      -7.632  17.570  66.086  1.00  0.00    -0.285 C  
HETATM    2  N   UNL     1      -8.531  16.580  66.694  1.00  0.00    -0.234 NA 
HETATM    3  C   UNL     1      -9.624  16.296  65.756  1.00  0.00    -0.231 C  
HETATM    4  C   UNL     1     -10.661  15.275  66.220  1.00  0.00    -0.312 C  
HETATM    5  C   UNL     1     -10.110  13.851  66.278  1.00  0.00    -0.306 C  
HETATM    6  C   UNL     1      -9.455  13.493  67.621  1.00  0.00    -0.222 C  
HETATM    7  C   UNL     1      -7.770  15.402  67.135  1.00  0.00    -0.211 C  
HETATM    8  C   UNL     1      -8.520  14.574  68.186  1.00  0.00    -0.157 C  
ENDROOT
BRANCH   6   9
HETATM    9  N   UNL     1     -10.447  13.058  68.637  1.00  0.00    -0.244 N  
HETATM   10  N   UNL     1     -10.641  11.706  68.777  1.00  0.00    -0.211 NA 
HETATM   11  C   UNL     1     -11.446  11.244  69.681  1.00  0.00    -0.309 C  
HETATM   12  O   UNL     1     -10.975  15.226  69.274  1.00  0.00    -0.234 OA 
HETATM   13  C   UNL     1     -12.219  12.122  70.584  1.00  0.00    -0.392 A  
HETATM   14  C   UNL     1     -13.072  11.639  71.583  1.00  0.00    -0.456 A  
HETATM   15  C   UNL     1     -11.123  14.010  69.397  1.00  0.00    -0.203 C  
HETATM   16  C   UNL     1     -13.740  12.534  72.426  1.00  0.00    -0.284 A  
HETATM   17  C   UNL     1     -12.048  13.496  70.426  1.00  0.00    -0.415 A  
HETATM   18  C   UNL     1     -13.571  13.908  72.264  1.00  0.00    -0.642 A  
HETATM   19  C   UNL     1     -12.730  14.391  71.264  1.00  0.00    -0.414 A  
BRANCH  11  20
HETATM   20  C   UNL     1     -11.524   9.728  69.817  1.00  0.00    -0.145 C  
BRANCH  20  21
HETATM   21  C   UNL     1     -10.719   9.111  70.940  1.00  0.00    -0.343 A  
HETATM   22 CL   UNL     1      -8.204   6.928  74.015  1.00  0.00    -0.142 Cl 
HETATM   23  C   UNL     1     -11.325   8.434  72.009  1.00  0.00    -0.411 A  
HETATM   24  C   UNL     1      -8.538   8.429  71.799  1.00  0.00    -0.234 A  
HETATM   25  C   UNL     1     -10.546   7.774  72.967  1.00  0.00    -0.441 A  
HETATM   26  C   UNL     1      -9.316   9.093  70.845  1.00  0.00    -0.335 A  
HETATM   27  C   UNL     1      -9.158   7.771  72.856  1.00  0.00    -0.197 A  
ENDBRANCH  20  21
ENDBRANCH  11  20
ENDBRANCH   6   9
TORSDOF 3
ENDMDL
MODEL       44
REMARK 921   NORMALIZED FREE ENERGY PREDICTED BY IDOCK:   -6.24 KCAL/MOL
REMARK 922        TOTAL FREE ENERGY PREDICTED BY IDOCK:   -8.11 KCAL/MOL
REMARK 923 INTER-LIGAND FREE ENERGY PREDICTED BY IDOCK:   -7.96 KCAL/MOL
REMARK 924 INTRA-LIGAND FREE ENERGY PREDICTED BY IDOCK:   -0.15 KCAL/MOL
REMARK 927      BINDING AFFINITY PREDICTED BY RF-SCORE:    0.00 PKD
ROOT
HETATM    1  C   UNL     1     -10.289   5.782  73.792  1.00  0.00    -0.257 C  
HETATM    2  N   UNL     1     -10.594   6.651  72.649  1.00  0.00    -0.212 NA 
HETATM    3  C   UNL     1     -12.000   6.460  72.272  1.00  0.00    -0.244 C  
HETATM    4  C   UNL     1     -12.502   7.296  71.096  1.00  0.00    -0.373 C  
HETATM    5  C   UNL     1     -12.612   8.783  71.426  1.00  0.00    -0.337 C  
HETATM    6  C   UNL     1     -11.318   9.573  71.172  1.00  0.00    -0.370 C  
HETATM    7  C   UNL     1     -10.213   8.040  72.946  1.00  0.00    -0.314 C  
HETATM    8  C   UNL     1     -10.040   8.889  71.681  1.00  0.00    -0.411 C  
ENDROOT
BRANCH   6   9
HETATM    9  N   UNL     1     -11.176   9.987  69.753  1.00  0.00    -0.257 N  
HETATM   10  N   UNL     1     -11.701  11.208  69.407  1.00  0.00    -0.302 NA 
HETATM   11  C   UNL     1     -11.567  11.666  68.202  1.00  0.00    -0.319 C  
HETATM   12  O   UNL     1     -10.068   8.044  69.137  1.00  0.00    -0.190 OA 
HETATM   13  C   UNL     1     -10.883  10.910  67.132  1.00  0.00    -0.337 A  
HETATM   14  C   UNL     1     -10.707  11.402  65.834  1.00  0.00    -0.311 A  
HETATM   15  C   UNL     1     -10.529   9.149  68.849  1.00  0.00    -0.218 C  
HETATM   16  C   UNL     1     -10.013  10.643  64.886  1.00  0.00    -0.382 A  
HETATM   17  C   UNL     1     -10.376   9.658  67.471  1.00  0.00    -0.297 A  
HETATM   18  C   UNL     1      -9.510   9.388  65.225  1.00  0.00    -0.296 A  
HETATM   19  C   UNL     1      -9.693   8.892  66.515  1.00  0.00    -0.322 A  
BRANCH  11  20
HETATM   20  C   UNL     1     -12.103  13.069  67.941  1.00  0.00    -0.234 C  
BRANCH  20  21
HETATM   21  C   UNL     1     -11.080  14.126  67.586  1.00  0.00    -0.296 A  
HETATM   22 CL   UNL     1      -7.906  17.033  66.166  1.00  0.00    -0.341 Cl 
HETATM   23  C   UNL     1      -9.867  14.255  68.279  1.00  0.00    -0.235 A  
HETATM   24  C   UNL     1     -10.310  15.821  66.007  1.00  0.00    -0.356 A  
HETATM   25  C   UNL     1      -8.894  15.165  67.849  1.00  0.00    -0.166 A  
HETATM   26  C   UNL     1     -11.284  14.916  66.441  1.00  0.00    -0.331 A  
HETATM   27  C   UNL     1      -9.118  15.941  66.714  1.00  0.00    -0.248 A  
ENDBRANCH  20  21
ENDBRANCH  11  20
ENDBRANCH   6   9
TORSDOF 3
ENDMDL
MODEL       45
REMARK 921   NORMALIZED FREE ENERGY PREDICTED BY IDOCK:   -6.23 KCAL/MOL
REMARK 922        TOTAL FREE ENERGY PREDICTED BY IDOCK:   -8.10 KCAL/MOL
REMARK 923 INTER-LIGAND FREE ENERGY PREDICTED BY IDOCK:   -7.06 KCAL/MOL
REMARK 924 INTRA-LIGAND FREE ENERGY PREDICTED BY IDOCK:   -1.03 KCAL/MOL
REMARK 927      BINDING AFFINITY PREDICTED BY RF-SCORE:    0.00 PKD
ROOT
HETATM    1  C   UNL     1      -6.052  10.236  63.641  1.00  0.00    -0.130 C  
HETATM    2  N   UNL     1      -6.991  10.089  64.760  1.00  0.00    -0.133 NA 
HETATM    3  C   UNL     1      -7.548   8.731  64.734  1.00  0.00    -0.107 C  
HETATM    4  C   UNL     1      -8.548   8.392  65.838  1.00  0.00    -0.179 C  
HETATM    5  C   UNL     1      -7.898   8.284  67.216  1.00  0.00    -0.105 C  
HETATM    6  C   UNL     1      -7.824   9.619  67.975  1.00  0.00    -0.086 C  
HETATM    7  C   UNL     1      -6.343  10.469  66.024  1.00  0.00    -0.124 C  
HETATM    8  C   UNL     1      -7.353  10.811  67.126  1.00  0.00    -0.101 C  
ENDROOT
BRANCH   6   9
HETATM    9  N   UNL     1      -9.087   9.936  68.690  1.00  0.00    -0.129 N  
HETATM   10  N   UNL     1      -9.898  10.889  68.125  1.00  0.00    -0.170 NA 
HETATM   11  C   UNL     1     -11.043  11.180  68.657  1.00  0.00    -0.239 C  
HETATM   12  O   UNL     1      -8.676   8.425  70.402  1.00  0.00    -0.133 OA 
HETATM   13  C   UNL     1     -11.531  10.544  69.898  1.00  0.00    -0.384 A  
HETATM   14  C   UNL     1     -12.777  10.828  70.470  1.00  0.00    -0.388 A  
HETATM   15  C   UNL     1      -9.399   9.269  69.872  1.00  0.00    -0.198 C  
HETATM   16  C   UNL     1     -13.186  10.154  71.625  1.00  0.00    -0.518 A  
HETATM   17  C   UNL     1     -10.698   9.598  70.491  1.00  0.00    -0.374 A  
HETATM   18  C   UNL     1     -12.350   9.210  72.219  1.00  0.00    -0.379 A  
HETATM   19  C   UNL     1     -11.105   8.933  71.657  1.00  0.00    -0.420 A  
BRANCH  11  20
HETATM   20  C   UNL     1     -11.909  12.184  67.906  1.00  0.00    -0.338 C  
BRANCH  20  21
HETATM   21  C   UNL     1     -11.459  13.628  67.950  1.00  0.00    -0.348 A  
HETATM   22 CL   UNL     1     -10.539  18.066  67.987  1.00  0.00    -0.388 Cl 
HETATM   23  C   UNL     1     -10.726  14.215  66.908  1.00  0.00    -0.286 A  
HETATM   24  C   UNL     1     -11.610  15.817  69.021  1.00  0.00    -0.406 A  
HETATM   25  C   UNL     1     -10.429  15.583  66.928  1.00  0.00    -0.301 A  
HETATM   26  C   UNL     1     -11.902  14.450  69.002  1.00  0.00    -0.358 A  
HETATM   27  C   UNL     1     -10.874  16.378  67.982  1.00  0.00    -0.342 A  
ENDBRANCH  20  21
ENDBRANCH  11  20
ENDBRANCH   6   9
TORSDOF 3
ENDMDL
MODEL       46
REMARK 921   NORMALIZED FREE ENERGY PREDICTED BY IDOCK:   -6.22 KCAL/MOL
REMARK 922        TOTAL FREE ENERGY PREDICTED BY IDOCK:   -8.09 KCAL/MOL
REMARK 923 INTER-LIGAND FREE ENERGY PREDICTED BY IDOCK:   -8.10 KCAL/MOL
REMARK 924 INTRA-LIGAND FREE ENERGY PREDICTED BY IDOCK:    0.02 KCAL/MOL
REMARK 927      BINDING AFFINITY PREDICTED BY RF-SCORE:    0.00 PKD
ROOT
HETATM    1  C   UNL     1      -7.316   6.329  69.830  1.00  0.00    -0.079 C  
HETATM    2  N   UNL     1      -8.221   7.393  69.377  1.00  0.00    -0.129 NA 
HETATM    3  C   UNL     1      -9.593   7.044  69.768  1.00  0.00    -0.151 C  
HETATM    4  C   UNL     1     -10.679   8.047  69.384  1.00  0.00    -0.167 C  
HETATM    5  C   UNL     1     -10.599   9.347  70.182  1.00  0.00    -0.279 C  
HETATM    6  C   UNL     1      -9.681  10.408  69.551  1.00  0.00    -0.170 C  
HETATM    7  C   UNL     1      -7.753   8.702  69.858  1.00  0.00    -0.084 C  
HETATM    8  C   UNL     1      -8.332   9.869  69.049  1.00  0.00    -0.130 C  
ENDROOT
BRANCH   6   9
HETATM    9  N   UNL     1     -10.368  11.198  68.498  1.00  0.00    -0.185 N  
HETATM   10  N   UNL     1     -11.036  12.326  68.905  1.00  0.00    -0.227 NA 
HETATM   11  C   UNL     1     -11.611  13.101  68.040  1.00  0.00    -0.334 C  
HETATM   12  O   UNL     1      -9.731   9.763  66.789  1.00  0.00    -0.174 OA 
HETATM   13  C   UNL     1     -11.617  12.813  66.591  1.00  0.00    -0.430 A  
HETATM   14  C   UNL     1     -12.212  13.652  65.642  1.00  0.00    -0.490 A  
HETATM   15  C   UNL     1     -10.309  10.781  67.170  1.00  0.00    -0.224 C  
HETATM   16  C   UNL     1     -12.140  13.331  64.282  1.00  0.00    -0.475 A  
HETATM   17  C   UNL     1     -10.967  11.652  66.176  1.00  0.00    -0.339 A  
HETATM   18  C   UNL     1     -11.493  12.168  63.869  1.00  0.00    -0.519 A  
HETATM   19  C   UNL     1     -10.910  11.325  64.813  1.00  0.00    -0.314 A  
BRANCH  11  20
HETATM   20  C   UNL     1     -12.247  14.376  68.581  1.00  0.00    -0.185 C  
BRANCH  20  21
HETATM   21  C   UNL     1     -12.199  14.568  70.081  1.00  0.00    -0.399 A  
HETATM   22 CL   UNL     1     -12.418  15.413  74.529  1.00  0.00    -0.727 Cl 
HETATM   23  C   UNL     1     -11.253  15.401  70.698  1.00  0.00    -0.370 A  
HETATM   24  C   UNL     1     -13.278  14.257  72.249  1.00  0.00    -0.508 A  
HETATM   25  C   UNL     1     -11.313  15.648  72.075  1.00  0.00    -0.404 A  
HETATM   26  C   UNL     1     -13.215  14.006  70.874  1.00  0.00    -0.245 A  
HETATM   27  C   UNL     1     -12.326  15.078  72.843  1.00  0.00    -0.363 A  
ENDBRANCH  20  21
ENDBRANCH  11  20
ENDBRANCH   6   9
TORSDOF 3
ENDMDL
MODEL       47
REMARK 921   NORMALIZED FREE ENERGY PREDICTED BY IDOCK:   -6.20 KCAL/MOL
REMARK 922        TOTAL FREE ENERGY PREDICTED BY IDOCK:   -8.06 KCAL/MOL
REMARK 923 INTER-LIGAND FREE ENERGY PREDICTED BY IDOCK:   -7.42 KCAL/MOL
REMARK 924 INTRA-LIGAND FREE ENERGY PREDICTED BY IDOCK:   -0.64 KCAL/MOL
REMARK 927      BINDING AFFINITY PREDICTED BY RF-SCORE:    0.00 PKD
ROOT
HETATM    1  C   UNL     1      -7.366  18.055  65.847  1.00  0.00    -0.213 C  
HETATM    2  N   UNL     1      -8.172  17.128  66.651  1.00  0.00    -0.233 NA 
HETATM    3  C   UNL     1      -7.737  17.215  68.051  1.00  0.00    -0.189 C  
HETATM    4  C   UNL     1      -8.475  16.318  69.043  1.00  0.00    -0.244 C  
HETATM    5  C   UNL     1      -9.917  16.759  69.285  1.00  0.00    -0.206 C  
HETATM    6  C   UNL     1     -10.926  16.151  68.298  1.00  0.00    -0.340 C  
HETATM    7  C   UNL     1      -9.606  17.373  66.431  1.00  0.00    -0.276 C  
HETATM    8  C   UNL     1     -10.478  16.176  66.828  1.00  0.00    -0.294 C  
ENDROOT
BRANCH   6   9
HETATM    9  N   UNL     1     -11.366  14.791  68.701  1.00  0.00    -0.271 N  
HETATM   10  N   UNL     1     -11.189  13.784  67.785  1.00  0.00    -0.278 NA 
HETATM   11  C   UNL     1     -11.493  12.560  68.083  1.00  0.00    -0.319 C  
HETATM   12  O   UNL     1     -12.103  15.482  70.790  1.00  0.00    -0.327 OA 
HETATM   13  C   UNL     1     -12.068  12.176  69.388  1.00  0.00    -0.247 A  
HETATM   14  C   UNL     1     -12.377  10.855  69.734  1.00  0.00    -0.326 A  
HETATM   15  C   UNL     1     -11.921  14.589  69.962  1.00  0.00    -0.330 C  
HETATM   16  C   UNL     1     -12.882  10.566  71.006  1.00  0.00    -0.502 A  
HETATM   17  C   UNL     1     -12.277  13.199  70.310  1.00  0.00    -0.376 A  
HETATM   18  C   UNL     1     -13.094  11.591  71.926  1.00  0.00    -0.492 A  
HETATM   19  C   UNL     1     -12.797  12.907  71.580  1.00  0.00    -0.368 A  
BRANCH  11  20
HETATM   20  C   UNL     1     -11.175  11.503  67.032  1.00  0.00    -0.365 C  
BRANCH  20  21
HETATM   21  C   UNL     1     -10.182  10.433  67.433  1.00  0.00    -0.259 A  
HETATM   22 CL   UNL     1      -6.968   7.347  68.264  1.00  0.00    -0.076 Cl 
HETATM   23  C   UNL     1     -10.432   9.067  67.228  1.00  0.00    -0.343 A  
HETATM   24  C   UNL     1      -7.923   9.868  68.165  1.00  0.00    -0.100 A  
HETATM   25  C   UNL     1      -9.444   8.114  67.501  1.00  0.00    -0.184 A  
HETATM   26  C   UNL     1      -8.912  10.819  67.897  1.00  0.00    -0.139 A  
HETATM   27  C   UNL     1      -8.193   8.518  67.965  1.00  0.00    -0.120 A  
ENDBRANCH  20  21
ENDBRANCH  11  20
ENDBRANCH   6   9
TORSDOF 3
ENDMDL
MODEL       48
REMARK 921   NORMALIZED FREE ENERGY PREDICTED BY IDOCK:   -6.17 KCAL/MOL
REMARK 922        TOTAL FREE ENERGY PREDICTED BY IDOCK:   -8.03 KCAL/MOL
REMARK 923 INTER-LIGAND FREE ENERGY PREDICTED BY IDOCK:   -7.08 KCAL/MOL
REMARK 924 INTRA-LIGAND FREE ENERGY PREDICTED BY IDOCK:   -0.95 KCAL/MOL
REMARK 927      BINDING AFFINITY PREDICTED BY RF-SCORE:    0.00 PKD
ROOT
HETATM    1  C   UNL     1     -11.582  16.248  72.087  1.00  0.00    -0.317 C  
HETATM    2  N   UNL     1     -11.327  15.339  70.963  1.00  0.00    -0.339 NA 
HETATM    3  C   UNL     1     -12.595  14.718  70.560  1.00  0.00    -0.359 C  
HETATM    4  C   UNL     1     -12.524  13.739  69.390  1.00  0.00    -0.062 C  
HETATM    5  C   UNL     1     -12.237  14.426  68.056  1.00  0.00    -0.162 C  
HETATM    6  C   UNL     1     -10.739  14.585  67.748  1.00  0.00    -0.256 C  
HETATM    7  C   UNL     1     -10.611  16.043  69.888  1.00  0.00    -0.314 C  
HETATM    8  C   UNL     1      -9.893  15.085  68.930  1.00  0.00    -0.233 C  
ENDROOT
BRANCH   6   9
HETATM    9  N   UNL     1     -10.150  13.362  67.147  1.00  0.00    -0.238 N  
HETATM   10  N   UNL     1      -9.430  12.545  67.982  1.00  0.00    -0.203 NA 
HETATM   11  C   UNL     1      -8.933  11.429  67.546  1.00  0.00    -0.150 C  
HETATM   12  O   UNL     1     -10.977  13.821  65.027  1.00  0.00    -0.322 OA 
HETATM   13  C   UNL     1      -9.077  10.985  66.145  1.00  0.00    -0.208 A  
HETATM   14  C   UNL     1      -8.569   9.772  65.666  1.00  0.00    -0.154 A  
HETATM   15  C   UNL     1     -10.349  13.091  65.795  1.00  0.00    -0.286 C  
HETATM   16  C   UNL     1      -8.781   9.402  64.334  1.00  0.00    -0.227 A  
HETATM   17  C   UNL     1      -9.782  11.826  65.286  1.00  0.00    -0.236 A  
HETATM   18  C   UNL     1      -9.483  10.246  63.475  1.00  0.00    -0.345 A  
HETATM   19  C   UNL     1      -9.981  11.459  63.947  1.00  0.00    -0.357 A  
BRANCH  11  20
HETATM   20  C   UNL     1      -8.228  10.549  68.572  1.00  0.00    -0.123 C  
BRANCH  20  21
HETATM   21  C   UNL     1      -9.111   9.871  69.597  1.00  0.00    -0.245 A  
HETATM   22 CL   UNL     1     -11.848   8.256  72.829  1.00  0.00    -0.389 Cl 
HETATM   23  C   UNL     1      -8.584   9.205  70.714  1.00  0.00    -0.265 A  
HETATM   24  C   UNL     1     -11.353   9.521  70.499  1.00  0.00    -0.343 A  
HETATM   25  C   UNL     1      -9.431   8.692  71.703  1.00  0.00    -0.339 A  
HETATM   26  C   UNL     1     -10.506  10.028  69.508  1.00  0.00    -0.260 A  
HETATM   27  C   UNL     1     -10.811   8.855  71.593  1.00  0.00    -0.349 A  
ENDBRANCH  20  21
ENDBRANCH  11  20
ENDBRANCH   6   9
TORSDOF 3
ENDMDL
MODEL       49
REMARK 921   NORMALIZED FREE ENERGY PREDICTED BY IDOCK:   -6.15 KCAL/MOL
REMARK 922        TOTAL FREE ENERGY PREDICTED BY IDOCK:   -8.01 KCAL/MOL
REMARK 923 INTER-LIGAND FREE ENERGY PREDICTED BY IDOCK:   -7.17 KCAL/MOL
REMARK 924 INTRA-LIGAND FREE ENERGY PREDICTED BY IDOCK:   -0.83 KCAL/MOL
REMARK 927      BINDING AFFINITY PREDICTED BY RF-SCORE:    0.00 PKD
ROOT
HETATM    1  C   UNL     1     -11.004  15.172  65.139  1.00  0.00    -0.417 C  
HETATM    2  N   UNL     1     -10.857  14.253  66.274  1.00  0.00    -0.305 NA 
HETATM    3  C   UNL     1     -10.723  15.041  67.506  1.00  0.00    -0.284 C  
HETATM    4  C   UNL     1     -10.566  14.246  68.800  1.00  0.00    -0.255 C  
HETATM    5  C   UNL     1     -11.841  13.510  69.206  1.00  0.00    -0.392 C  
HETATM    6  C   UNL     1     -11.967  12.104  68.597  1.00  0.00    -0.237 C  
HETATM    7  C   UNL     1     -11.951  13.271  66.282  1.00  0.00    -0.417 C  
HETATM    8  C   UNL     1     -11.616  12.019  67.103  1.00  0.00    -0.387 C  
ENDROOT
BRANCH   6   9
HETATM    9  N   UNL     1     -11.230  11.079  69.380  1.00  0.00    -0.246 N  
HETATM   10  N   UNL     1      -9.902  10.906  69.080  1.00  0.00    -0.202 NA 
HETATM   11  C   UNL     1      -9.176  10.072  69.757  1.00  0.00    -0.199 C  
HETATM   12  O   UNL     1     -13.087  10.483  70.638  1.00  0.00    -0.353 OA 
HETATM   13  C   UNL     1      -9.722   9.246  70.853  1.00  0.00    -0.346 A  
HETATM   14  C   UNL     1      -8.946   8.361  71.610  1.00  0.00    -0.261 A  
HETATM   15  C   UNL     1     -11.893  10.354  70.367  1.00  0.00    -0.328 C  
HETATM   16  C   UNL     1      -9.528   7.642  72.659  1.00  0.00    -0.230 A  
HETATM   17  C   UNL     1     -11.077   9.396  71.140  1.00  0.00    -0.432 A  
HETATM   18  C   UNL     1     -10.884   7.790  72.943  1.00  0.00    -0.453 A  
HETATM   19  C   UNL     1     -11.661   8.663  72.184  1.00  0.00    -0.442 A  
BRANCH  11  20
HETATM   20  C   UNL     1      -7.693  10.019  69.408  1.00  0.00    -0.129 C  
BRANCH  20  21
HETATM   21  C   UNL     1      -7.055  11.321  68.976  1.00  0.00    -0.116 A  
HETATM   22 CL   UNL     1      -5.398  15.425  68.002  1.00  0.00    -0.127 Cl 
HETATM   23  C   UNL     1      -7.431  11.983  67.798  1.00  0.00    -0.121 A  
HETATM   24  C   UNL     1      -5.636  13.225  69.543  1.00  0.00    -0.087 A  
HETATM   25  C   UNL     1      -6.906  13.243  67.490  1.00  0.00    -0.155 A  
HETATM   26  C   UNL     1      -6.157  11.963  69.847  1.00  0.00    -0.153 A  
HETATM   27  C   UNL     1      -6.014  13.860  68.365  1.00  0.00    -0.101 A  
ENDBRANCH  20  21
ENDBRANCH  11  20
ENDBRANCH   6   9
TORSDOF 3
ENDMDL
MODEL       50
REMARK 921   NORMALIZED FREE ENERGY PREDICTED BY IDOCK:   -6.13 KCAL/MOL
REMARK 922        TOTAL FREE ENERGY PREDICTED BY IDOCK:   -7.97 KCAL/MOL
REMARK 923 INTER-LIGAND FREE ENERGY PREDICTED BY IDOCK:   -6.90 KCAL/MOL
REMARK 924 INTRA-LIGAND FREE ENERGY PREDICTED BY IDOCK:   -1.07 KCAL/MOL
REMARK 927      BINDING AFFINITY PREDICTED BY RF-SCORE:    0.00 PKD
ROOT
HETATM    1  C   UNL     1     -10.820  15.815  65.291  1.00  0.00    -0.395 C  
HETATM    2  N   UNL     1     -10.707  14.799  66.345  1.00  0.00    -0.306 NA 
HETATM    3  C   UNL     1     -10.348  15.463  67.605  1.00  0.00    -0.262 C  
HETATM    4  C   UNL     1     -10.193  14.556  68.824  1.00  0.00    -0.244 C  
HETATM    5  C   UNL     1     -11.520  13.976  69.307  1.00  0.00    -0.344 C  
HETATM    6  C   UNL     1     -11.905  12.652  68.626  1.00  0.00    -0.302 C  
HETATM    7  C   UNL     1     -11.928  13.981  66.400  1.00  0.00    -0.438 C  
HETATM    8  C   UNL     1     -11.706  12.636  67.102  1.00  0.00    -0.438 C  
ENDROOT
BRANCH   6   9
HETATM    9  N   UNL     1     -11.258  11.477  69.264  1.00  0.00    -0.258 N  
HETATM   10  N   UNL     1     -10.050  11.079  68.749  1.00  0.00    -0.197 NA 
HETATM   11  C   UNL     1      -9.395  10.098  69.287  1.00  0.00    -0.215 C  
HETATM   12  O   UNL     1     -12.971  11.175  70.800  1.00  0.00    -0.262 OA 
HETATM   13  C   UNL     1      -9.906   9.338  70.446  1.00  0.00    -0.290 A  
HETATM   14  C   UNL     1      -9.199   8.294  71.054  1.00  0.00    -0.191 A  
HETATM   15  C   UNL     1     -11.880  10.843  70.336  1.00  0.00    -0.357 C  
HETATM   16  C   UNL     1      -9.732   7.648  72.174  1.00  0.00    -0.220 A  
HETATM   17  C   UNL     1     -11.146   9.720  70.953  1.00  0.00    -0.428 A  
HETATM   18  C   UNL     1     -10.974   8.028  72.678  1.00  0.00    -0.448 A  
HETATM   19  C   UNL     1     -11.685   9.060  72.068  1.00  0.00    -0.417 A  
BRANCH  11  20
HETATM   20  C   UNL     1      -8.022   9.790  68.700  1.00  0.00    -0.089 C  
BRANCH  20  21
HETATM   21  C   UNL     1      -7.914   8.536  67.861  1.00  0.00    -0.108 A  
HETATM   22 CL   UNL     1      -7.946   4.618  65.583  1.00  0.00    -0.094 Cl 
HETATM   23  C   UNL     1      -6.920   7.571  68.084  1.00  0.00    -0.072 A  
HETATM   24  C   UNL     1      -8.926   7.052  66.207  1.00  0.00    -0.175 A  
HETATM   25  C   UNL     1      -6.921   6.369  67.367  1.00  0.00    -0.075 A  
HETATM   26  C   UNL     1      -8.920   8.255  66.919  1.00  0.00    -0.169 A  
HETATM   27  C   UNL     1      -7.925   6.112  66.435  1.00  0.00    -0.106 A  
ENDBRANCH  20  21
ENDBRANCH  11  20
ENDBRANCH   6   9
TORSDOF 3
ENDMDL
MODEL       51
REMARK 921   NORMALIZED FREE ENERGY PREDICTED BY IDOCK:   -6.09 KCAL/MOL
REMARK 922        TOTAL FREE ENERGY PREDICTED BY IDOCK:   -7.93 KCAL/MOL
REMARK 923 INTER-LIGAND FREE ENERGY PREDICTED BY IDOCK:   -7.75 KCAL/MOL
REMARK 924 INTRA-LIGAND FREE ENERGY PREDICTED BY IDOCK:   -0.18 KCAL/MOL
REMARK 927      BINDING AFFINITY PREDICTED BY RF-SCORE:    0.00 PKD
ROOT
HETATM    1  C   UNL     1     -11.215  16.208  64.493  1.00  0.00    -0.264 C  
HETATM    2  N   UNL     1     -11.255  14.956  65.258  1.00  0.00    -0.354 NA 
HETATM    3  C   UNL     1     -12.041  13.968  64.506  1.00  0.00    -0.459 C  
HETATM    4  C   UNL     1     -12.185  12.591  65.150  1.00  0.00    -0.509 C  
HETATM    5  C   UNL     1     -10.880  11.799  65.161  1.00  0.00    -0.351 C  
HETATM    6  C   UNL     1     -10.005  12.060  66.398  1.00  0.00    -0.219 C  
HETATM    7  C   UNL     1      -9.893  14.527  65.609  1.00  0.00    -0.305 C  
HETATM    8  C   UNL     1      -9.868  13.541  66.784  1.00  0.00    -0.267 C  
ENDROOT
BRANCH   6   9
HETATM    9  N   UNL     1     -10.413  11.238  67.565  1.00  0.00    -0.193 N  
HETATM   10  N   UNL     1      -9.808  10.013  67.703  1.00  0.00    -0.158 NA 
HETATM   11  C   UNL     1     -10.067   9.261  68.727  1.00  0.00    -0.195 C  
HETATM   12  O   UNL     1     -11.930  12.813  68.340  1.00  0.00    -0.319 OA 
HETATM   13  C   UNL     1     -11.034   9.646  69.776  1.00  0.00    -0.266 A  
HETATM   14  C   UNL     1     -11.305   8.857  70.900  1.00  0.00    -0.336 A  
HETATM   15  C   UNL     1     -11.364  11.726  68.458  1.00  0.00    -0.273 C  
HETATM   16  C   UNL     1     -12.204   9.309  71.871  1.00  0.00    -0.448 A  
HETATM   17  C   UNL     1     -11.672  10.875  69.624  1.00  0.00    -0.403 A  
HETATM   18  C   UNL     1     -12.845  10.536  71.716  1.00  0.00    -0.559 A  
HETATM   19  C   UNL     1     -12.584  11.319  70.592  1.00  0.00    -0.377 A  
BRANCH  11  20
HETATM   20  C   UNL     1      -9.278   7.962  68.837  1.00  0.00    -0.144 C  
BRANCH  20  21
HETATM   21  C   UNL     1      -9.367   7.017  67.658  1.00  0.00    -0.128 A  
HETATM   22 CL   UNL     1      -9.640   3.850  64.428  1.00  0.00    -0.161 Cl 
HETATM   23  C   UNL     1      -8.256   6.717  66.855  1.00  0.00    -0.113 A  
HETATM   24  C   UNL     1     -10.652   5.341  66.434  1.00  0.00    -0.338 A  
HETATM   25  C   UNL     1      -8.347   5.750  65.847  1.00  0.00    -0.130 A  
HETATM   26  C   UNL     1     -10.563   6.311  67.437  1.00  0.00    -0.361 A  
HETATM   27  C   UNL     1      -9.542   5.064  65.643  1.00  0.00    -0.123 A  
ENDBRANCH  20  21
ENDBRANCH  11  20
ENDBRANCH   6   9
TORSDOF 3
ENDMDL
MODEL       52
REMARK 921   NORMALIZED FREE ENERGY PREDICTED BY IDOCK:   -6.08 KCAL/MOL
REMARK 922        TOTAL FREE ENERGY PREDICTED BY IDOCK:   -7.92 KCAL/MOL
REMARK 923 INTER-LIGAND FREE ENERGY PREDICTED BY IDOCK:   -6.83 KCAL/MOL
REMARK 924 INTRA-LIGAND FREE ENERGY PREDICTED BY IDOCK:   -1.08 KCAL/MOL
REMARK 927      BINDING AFFINITY PREDICTED BY RF-SCORE:    0.00 PKD
ROOT
HETATM    1  C   UNL     1     -11.021  16.382  67.394  1.00  0.00    -0.145 C  
HETATM    2  N   UNL     1     -10.753  14.940  67.316  1.00  0.00    -0.287 NA 
HETATM    3  C   UNL     1     -11.985  14.252  66.907  1.00  0.00    -0.438 C  
HETATM    4  C   UNL     1     -11.893  12.734  66.766  1.00  0.00    -0.452 C  
HETATM    5  C   UNL     1     -11.049  12.298  65.571  1.00  0.00    -0.348 C  
HETATM    6  C   UNL     1      -9.551  12.154  65.888  1.00  0.00    -0.214 C  
HETATM    7  C   UNL     1      -9.586  14.682  66.460  1.00  0.00    -0.289 C  
HETATM    8  C   UNL     1      -8.959  13.306  66.715  1.00  0.00    -0.183 C  
ENDROOT
BRANCH   6   9
HETATM    9  N   UNL     1      -9.223  10.837  66.491  1.00  0.00    -0.165 N  
HETATM   10  N   UNL     1      -9.154  10.782  67.861  1.00  0.00    -0.147 NA 
HETATM   11  C   UNL     1      -8.930   9.657  68.465  1.00  0.00    -0.124 C  
HETATM   12  O   UNL     1      -9.048   9.768  64.439  1.00  0.00    -0.229 OA 
HETATM   13  C   UNL     1      -8.707   8.391  67.738  1.00  0.00    -0.137 A  
HETATM   14  C   UNL     1      -8.490   7.164  68.377  1.00  0.00    -0.124 A  
HETATM   15  C   UNL     1      -9.009   9.733  65.669  1.00  0.00    -0.163 C  
HETATM   16  C   UNL     1      -8.326   6.000  67.618  1.00  0.00    -0.108 A  
HETATM   17  C   UNL     1      -8.746   8.448  66.346  1.00  0.00    -0.159 A  
HETATM   18  C   UNL     1      -8.361   6.060  66.226  1.00  0.00    -0.122 A  
HETATM   19  C   UNL     1      -8.567   7.282  65.588  1.00  0.00    -0.123 A  
BRANCH  11  20
HETATM   20  C   UNL     1      -8.963   9.682  69.989  1.00  0.00    -0.266 C  
BRANCH  20  21
HETATM   21  C   UNL     1     -10.291   9.360  70.639  1.00  0.00    -0.349 A  
HETATM   22 CL   UNL     1     -14.224   8.784  72.817  1.00  0.00    -0.295 Cl 
HETATM   23  C   UNL     1     -10.413   8.397  71.652  1.00  0.00    -0.321 A  
HETATM   24  C   UNL     1     -12.633   9.959  70.983  1.00  0.00    -0.431 A  
HETATM   25  C   UNL     1     -11.633   8.209  72.313  1.00  0.00    -0.436 A  
HETATM   26  C   UNL     1     -11.416  10.142  70.320  1.00  0.00    -0.381 A  
HETATM   27  C   UNL     1     -12.736   8.992  71.978  1.00  0.00    -0.398 A  
ENDBRANCH  20  21
ENDBRANCH  11  20
ENDBRANCH   6   9
TORSDOF 3
ENDMDL
MODEL       53
REMARK 921   NORMALIZED FREE ENERGY PREDICTED BY IDOCK:   -6.05 KCAL/MOL
REMARK 922        TOTAL FREE ENERGY PREDICTED BY IDOCK:   -7.88 KCAL/MOL
REMARK 923 INTER-LIGAND FREE ENERGY PREDICTED BY IDOCK:   -7.04 KCAL/MOL
REMARK 924 INTRA-LIGAND FREE ENERGY PREDICTED BY IDOCK:   -0.84 KCAL/MOL
REMARK 927      BINDING AFFINITY PREDICTED BY RF-SCORE:    0.00 PKD
ROOT
HETATM    1  C   UNL     1     -13.459  13.398  72.405  1.00  0.00    -0.584 C  
HETATM    2  N   UNL     1     -12.522  13.829  71.360  1.00  0.00    -0.345 NA 
HETATM    3  C   UNL     1     -12.362  12.738  70.390  1.00  0.00    -0.247 C  
HETATM    4  C   UNL     1     -11.421  13.012  69.219  1.00  0.00    -0.348 C  
HETATM    5  C   UNL     1     -11.978  14.037  68.234  1.00  0.00    -0.384 C  
HETATM    6  C   UNL     1     -11.630  15.492  68.588  1.00  0.00    -0.368 C  
HETATM    7  C   UNL     1     -12.952  15.113  70.786  1.00  0.00    -0.414 C  
HETATM    8  C   UNL     1     -11.813  15.851  70.071  1.00  0.00    -0.322 C  
ENDROOT
BRANCH   6   9
HETATM    9  N   UNL     1     -10.283  15.887  68.103  1.00  0.00    -0.229 N  
HETATM   10  N   UNL     1      -9.329  14.901  68.050  1.00  0.00    -0.190 NA 
HETATM   11  C   UNL     1      -8.146  15.153  67.584  1.00  0.00    -0.162 C  
HETATM   12  O   UNL     1     -10.881  18.106  67.780  1.00  0.00    -0.385 OA 
HETATM   13  C   UNL     1      -7.741  16.494  67.117  1.00  0.00    -0.214 A  
HETATM   14  C   UNL     1      -6.476  16.775  66.587  1.00  0.00    -0.176 A  
HETATM   15  C   UNL     1     -10.043  17.205  67.723  1.00  0.00    -0.306 C  
HETATM   16  C   UNL     1      -6.181  18.063  66.128  1.00  0.00    -0.262 A  
HETATM   17  C   UNL     1      -8.697  17.505  67.197  1.00  0.00    -0.247 A  
HETATM   18  C   UNL     1      -7.136  19.074  66.212  1.00  0.00    -0.263 A  
HETATM   19  C   UNL     1      -8.393  18.799  66.749  1.00  0.00    -0.288 A  
BRANCH  11  20
HETATM   20  C   UNL     1      -7.187  13.972  67.482  1.00  0.00    -0.183 C  
BRANCH  20  21
HETATM   21  C   UNL     1      -7.802  12.594  67.598  1.00  0.00    -0.162 A  
HETATM   22 CL   UNL     1     -10.031   8.674  68.055  1.00  0.00    -0.206 Cl 
HETATM   23  C   UNL     1      -7.559  11.757  68.698  1.00  0.00    -0.125 A  
HETATM   24  C   UNL     1      -9.435  10.975  66.779  1.00  0.00    -0.203 A  
HETATM   25  C   UNL     1      -8.236  10.539  68.829  1.00  0.00    -0.134 A  
HETATM   26  C   UNL     1      -8.754  12.189  66.646  1.00  0.00    -0.153 A  
HETATM   27  C   UNL     1      -9.173  10.155  67.872  1.00  0.00    -0.138 A  
ENDBRANCH  20  21
ENDBRANCH  11  20
ENDBRANCH   6   9
TORSDOF 3
ENDMDL
MODEL       54
REMARK 921   NORMALIZED FREE ENERGY PREDICTED BY IDOCK:   -6.04 KCAL/MOL
REMARK 922        TOTAL FREE ENERGY PREDICTED BY IDOCK:   -7.87 KCAL/MOL
REMARK 923 INTER-LIGAND FREE ENERGY PREDICTED BY IDOCK:   -6.86 KCAL/MOL
REMARK 924 INTRA-LIGAND FREE ENERGY PREDICTED BY IDOCK:   -1.02 KCAL/MOL
REMARK 927      BINDING AFFINITY PREDICTED BY RF-SCORE:    0.00 PKD
ROOT
HETATM    1  C   UNL     1     -12.632  12.130  70.713  1.00  0.00    -0.216 C  
HETATM    2  N   UNL     1     -11.800  13.187  70.125  1.00  0.00    -0.295 NA 
HETATM    3  C   UNL     1     -11.490  12.827  68.736  1.00  0.00    -0.304 C  
HETATM    4  C   UNL     1     -10.631  13.822  67.958  1.00  0.00    -0.258 C  
HETATM    5  C   UNL     1     -11.368  15.121  67.637  1.00  0.00    -0.327 C  
HETATM    6  C   UNL     1     -11.249  16.190  68.736  1.00  0.00    -0.365 C  
HETATM    7  C   UNL     1     -12.443  14.499  70.297  1.00  0.00    -0.348 C  
HETATM    8  C   UNL     1     -11.453  15.663  70.166  1.00  0.00    -0.358 C  
ENDROOT
BRANCH   6   9
HETATM    9  N   UNL     1      -9.995  16.976  68.629  1.00  0.00    -0.278 N  
HETATM   10  N   UNL     1      -8.859  16.408  69.151  1.00  0.00    -0.226 NA 
HETATM   11  C   UNL     1      -7.714  17.006  69.046  1.00  0.00    -0.180 C  
HETATM   12  O   UNL     1     -11.022  18.759  67.555  1.00  0.00    -0.407 OA 
HETATM   13  C   UNL     1      -7.559  18.325  68.398  1.00  0.00    -0.302 A  
HETATM   14  C   UNL     1      -6.325  18.970  68.253  1.00  0.00    -0.242 A  
HETATM   15  C   UNL     1     -10.011  18.226  68.013  1.00  0.00    -0.347 C  
HETATM   16  C   UNL     1      -6.253  20.201  67.592  1.00  0.00    -0.250 A  
HETATM   17  C   UNL     1      -8.713  18.919  67.893  1.00  0.00    -0.327 A  
HETATM   18  C   UNL     1      -7.410  20.796  67.091  1.00  0.00    -0.385 A  
HETATM   19  C   UNL     1      -8.640  20.159  67.243  1.00  0.00    -0.414 A  
BRANCH  11  20
HETATM   20  C   UNL     1      -6.500  16.253  69.576  1.00  0.00    -0.203 C  
BRANCH  20  21
HETATM   21  C   UNL     1      -6.402  14.788  69.209  1.00  0.00    -0.115 A  
HETATM   22 CL   UNL     1      -6.563  10.403  68.076  1.00  0.00    -0.060 Cl 
HETATM   23  C   UNL     1      -6.152  13.793  70.166  1.00  0.00    -0.139 A  
HETATM   24  C   UNL     1      -6.747  13.040  67.540  1.00  0.00    -0.156 A  
HETATM   25  C   UNL     1      -6.185  12.439  69.810  1.00  0.00    -0.119 A  
HETATM   26  C   UNL     1      -6.707  14.392  67.895  1.00  0.00    -0.177 A  
HETATM   27  C   UNL     1      -6.486  12.068  68.501  1.00  0.00    -0.058 A  
ENDBRANCH  20  21
ENDBRANCH  11  20
ENDBRANCH   6   9
TORSDOF 3
ENDMDL
MODEL       55
REMARK 921   NORMALIZED FREE ENERGY PREDICTED BY IDOCK:   -6.04 KCAL/MOL
REMARK 922        TOTAL FREE ENERGY PREDICTED BY IDOCK:   -7.87 KCAL/MOL
REMARK 923 INTER-LIGAND FREE ENERGY PREDICTED BY IDOCK:   -6.96 KCAL/MOL
REMARK 924 INTRA-LIGAND FREE ENERGY PREDICTED BY IDOCK:   -0.92 KCAL/MOL
REMARK 927      BINDING AFFINITY PREDICTED BY RF-SCORE:    0.00 PKD
ROOT
HETATM    1  C   UNL     1     -10.409  17.963  68.672  1.00  0.00    -0.337 C  
HETATM    2  N   UNL     1     -10.313  16.588  68.165  1.00  0.00    -0.283 NA 
HETATM    3  C   UNL     1     -11.297  15.755  68.867  1.00  0.00    -0.356 C  
HETATM    4  C   UNL     1     -11.346  14.283  68.460  1.00  0.00    -0.309 C  
HETATM    5  C   UNL     1     -11.911  14.072  67.058  1.00  0.00    -0.472 C  
HETATM    6  C   UNL     1     -10.852  14.133  65.945  1.00  0.00    -0.294 C  
HETATM    7  C   UNL     1     -10.422  16.576  66.698  1.00  0.00    -0.266 C  
HETATM    8  C   UNL     1      -9.855  15.295  66.074  1.00  0.00    -0.357 C  
ENDROOT
BRANCH   6   9
HETATM    9  N   UNL     1     -10.146  12.839  65.762  1.00  0.00    -0.285 N  
HETATM   10  N   UNL     1      -9.547  12.297  66.872  1.00  0.00    -0.207 NA 
HETATM   11  C   UNL     1      -8.961  11.142  66.807  1.00  0.00    -0.165 C  
HETATM   12  O   UNL     1     -10.640  12.714  63.498  1.00  0.00    -0.403 OA 
HETATM   13  C   UNL     1      -8.872  10.362  65.556  1.00  0.00    -0.193 A  
HETATM   14  C   UNL     1      -8.265   9.102  65.477  1.00  0.00    -0.124 A  
HETATM   15  C   UNL     1     -10.123  12.234  64.507  1.00  0.00    -0.254 C  
HETATM   16  C   UNL     1      -8.256   8.406  64.263  1.00  0.00    -0.130 A  
HETATM   17  C   UNL     1      -9.452  10.922  64.421  1.00  0.00    -0.287 A  
HETATM   18  C   UNL     1      -8.834   8.970  63.127  1.00  0.00    -0.034 A  
HETATM   19  C   UNL     1      -9.429  10.228  63.202  1.00  0.00    -0.337 A  
BRANCH  11  20
HETATM   20  C   UNL     1      -8.406  10.585  68.112  1.00  0.00    -0.119 C  
BRANCH  20  21
HETATM   21  C   UNL     1      -9.390   9.870  69.012  1.00  0.00    -0.175 A  
HETATM   22 CL   UNL     1     -12.535   7.572  71.329  1.00  0.00    -0.360 Cl 
HETATM   23  C   UNL     1     -10.435  10.545  69.662  1.00  0.00    -0.257 A  
HETATM   24  C   UNL     1     -10.309   7.757  69.819  1.00  0.00    -0.221 A  
HETATM   25  C   UNL     1     -11.396   9.835  70.391  1.00  0.00    -0.362 A  
HETATM   26  C   UNL     1      -9.345   8.467  69.095  1.00  0.00    -0.153 A  
HETATM   27  C   UNL     1     -11.331   8.445  70.463  1.00  0.00    -0.216 A  
ENDBRANCH  20  21
ENDBRANCH  11  20
ENDBRANCH   6   9
TORSDOF 3
ENDMDL
MODEL       56
REMARK 921   NORMALIZED FREE ENERGY PREDICTED BY IDOCK:   -6.01 KCAL/MOL
REMARK 922        TOTAL FREE ENERGY PREDICTED BY IDOCK:   -7.83 KCAL/MOL
REMARK 923 INTER-LIGAND FREE ENERGY PREDICTED BY IDOCK:   -7.86 KCAL/MOL
REMARK 924 INTRA-LIGAND FREE ENERGY PREDICTED BY IDOCK:    0.03 KCAL/MOL
REMARK 927      BINDING AFFINITY PREDICTED BY RF-SCORE:    0.00 PKD
ROOT
HETATM    1  C   UNL     1      -9.096   6.800  68.553  1.00  0.00    -0.129 C  
HETATM    2  N   UNL     1      -9.496   8.193  68.786  1.00  0.00    -0.147 NA 
HETATM    3  C   UNL     1      -8.287   9.015  68.926  1.00  0.00    -0.125 C  
HETATM    4  C   UNL     1      -8.510  10.506  69.169  1.00  0.00    -0.152 C  
HETATM    5  C   UNL     1      -9.069  11.231  67.946  1.00  0.00    -0.150 C  
HETATM    6  C   UNL     1     -10.604  11.222  67.866  1.00  0.00    -0.194 C  
HETATM    7  C   UNL     1     -10.431   8.638  67.742  1.00  0.00    -0.224 C  
HETATM    8  C   UNL     1     -11.253   9.862  68.167  1.00  0.00    -0.142 C  
ENDROOT
BRANCH   6   9
HETATM    9  N   UNL     1     -11.220  12.301  68.680  1.00  0.00    -0.239 N  
HETATM   10  N   UNL     1     -11.140  13.578  68.181  1.00  0.00    -0.247 NA 
HETATM   11  C   UNL     1     -11.703  14.566  68.803  1.00  0.00    -0.327 C  
HETATM   12  O   UNL     1     -11.912  10.853  70.356  1.00  0.00    -0.300 OA 
HETATM   13  C   UNL     1     -12.427  14.396  70.079  1.00  0.00    -0.353 A  
HETATM   14  C   UNL     1     -13.062  15.449  70.748  1.00  0.00    -0.479 A  
HETATM   15  C   UNL     1     -11.846  11.989  69.884  1.00  0.00    -0.331 C  
HETATM   16  C   UNL     1     -13.763  15.201  71.934  1.00  0.00    -0.577 A  
HETATM   17  C   UNL     1     -12.485  13.108  70.605  1.00  0.00    -0.363 A  
HETATM   18  C   UNL     1     -13.817  13.912  72.460  1.00  0.00    -0.620 A  
HETATM   19  C   UNL     1     -13.177  12.865  71.801  1.00  0.00    -0.479 A  
BRANCH  11  20
HETATM   20  C   UNL     1     -11.635  15.928  68.122  1.00  0.00    -0.224 C  
BRANCH  20  21
HETATM   21  C   UNL     1     -10.380  16.738  68.361  1.00  0.00    -0.319 A  
HETATM   22 CL   UNL     1      -6.667  19.322  68.650  1.00  0.00    -0.305 Cl 
HETATM   23  C   UNL     1      -9.103  16.158  68.354  1.00  0.00    -0.199 A  
HETATM   24  C   UNL     1      -9.335  18.936  68.556  1.00  0.00    -0.412 A  
HETATM   25  C   UNL     1      -7.957  16.956  68.460  1.00  0.00    -0.242 A  
HETATM   26  C   UNL     1     -10.479  18.138  68.456  1.00  0.00    -0.267 A  
HETATM   27  C   UNL     1      -8.078  18.340  68.557  1.00  0.00    -0.314 A  
ENDBRANCH  20  21
ENDBRANCH  11  20
ENDBRANCH   6   9
TORSDOF 3
ENDMDL
MODEL       57
REMARK 921   NORMALIZED FREE ENERGY PREDICTED BY IDOCK:   -5.95 KCAL/MOL
REMARK 922        TOTAL FREE ENERGY PREDICTED BY IDOCK:   -7.77 KCAL/MOL
REMARK 923 INTER-LIGAND FREE ENERGY PREDICTED BY IDOCK:   -7.09 KCAL/MOL
REMARK 924 INTRA-LIGAND FREE ENERGY PREDICTED BY IDOCK:   -0.68 KCAL/MOL
REMARK 927      BINDING AFFINITY PREDICTED BY RF-SCORE:    0.00 PKD
ROOT
HETATM    1  C   UNL     1     -11.380   7.728  72.361  1.00  0.00    -0.346 C  
HETATM    2  N   UNL     1     -10.932   8.249  71.064  1.00  0.00    -0.239 NA 
HETATM    3  C   UNL     1      -9.738   9.078  71.275  1.00  0.00    -0.301 C  
HETATM    4  C   UNL     1      -9.123   9.703  70.024  1.00  0.00    -0.269 C  
HETATM    5  C   UNL     1      -8.460   8.676  69.110  1.00  0.00    -0.124 C  
HETATM    6  C   UNL     1      -9.415   8.053  68.079  1.00  0.00    -0.146 C  
HETATM    7  C   UNL     1     -10.762   7.150  70.102  1.00  0.00    -0.240 C  
HETATM    8  C   UNL     1     -10.780   7.631  68.646  1.00  0.00    -0.095 C  
ENDROOT
BRANCH   6   9
HETATM    9  N   UNL     1      -9.575   8.899  66.869  1.00  0.00    -0.174 N  
HETATM   10  N   UNL     1     -10.490   9.920  66.943  1.00  0.00    -0.233 NA 
HETATM   11  C   UNL     1     -10.646  10.738  65.950  1.00  0.00    -0.147 C  
HETATM   12  O   UNL     1      -7.997   7.716  65.646  1.00  0.00    -0.102 OA 
HETATM   13  C   UNL     1      -9.890  10.613  64.686  1.00  0.00    -0.382 A  
HETATM   14  C   UNL     1     -10.029  11.504  63.615  1.00  0.00    -0.409 A  
HETATM   15  C   UNL     1      -8.809   8.638  65.736  1.00  0.00    -0.193 C  
HETATM   16  C   UNL     1      -9.248  11.342  62.466  1.00  0.00    -0.265 A  
HETATM   17  C   UNL     1      -8.983   9.560  64.596  1.00  0.00    -0.266 A  
HETATM   18  C   UNL     1      -8.344  10.285  62.375  1.00  0.00    -0.196 A  
HETATM   19  C   UNL     1      -8.212   9.392  63.436  1.00  0.00    -0.168 A  
BRANCH  11  20
HETATM   20  C   UNL     1     -11.618  11.892  66.162  1.00  0.00    -0.299 C  
BRANCH  20  21
HETATM   21  C   UNL     1     -11.605  12.540  67.530  1.00  0.00    -0.424 A  
HETATM   22 CL   UNL     1     -12.019  14.428  71.629  1.00  0.00    -0.337 Cl 
HETATM   23  C   UNL     1     -11.439  13.923  67.700  1.00  0.00    -0.354 A  
HETATM   24  C   UNL     1     -12.023  12.337  69.927  1.00  0.00    -0.377 A  
HETATM   25  C   UNL     1     -11.551  14.502  68.970  1.00  0.00    -0.330 A  
HETATM   26  C   UNL     1     -11.906  11.758  68.659  1.00  0.00    -0.369 A  
HETATM   27  C   UNL     1     -11.845  13.708  70.076  1.00  0.00    -0.308 A  
ENDBRANCH  20  21
ENDBRANCH  11  20
ENDBRANCH   6   9
TORSDOF 3
ENDMDL
MODEL       58
REMARK 921   NORMALIZED FREE ENERGY PREDICTED BY IDOCK:   -5.94 KCAL/MOL
REMARK 922        TOTAL FREE ENERGY PREDICTED BY IDOCK:   -7.75 KCAL/MOL
REMARK 923 INTER-LIGAND FREE ENERGY PREDICTED BY IDOCK:   -7.39 KCAL/MOL
REMARK 924 INTRA-LIGAND FREE ENERGY PREDICTED BY IDOCK:   -0.36 KCAL/MOL
REMARK 927      BINDING AFFINITY PREDICTED BY RF-SCORE:    0.00 PKD
ROOT
HETATM    1  C   UNL     1     -10.642   6.156  69.932  1.00  0.00    -0.265 C  
HETATM    2  N   UNL     1     -10.443   7.581  69.642  1.00  0.00    -0.229 NA 
HETATM    3  C   UNL     1      -9.544   8.149  70.655  1.00  0.00    -0.166 C  
HETATM    4  C   UNL     1      -9.215   9.633  70.507  1.00  0.00    -0.212 C  
HETATM    5  C   UNL     1      -8.323   9.928  69.303  1.00  0.00    -0.151 C  
HETATM    6  C   UNL     1      -9.100  10.180  68.001  1.00  0.00    -0.131 C  
HETATM    7  C   UNL     1     -10.002   7.762  68.250  1.00  0.00    -0.178 C  
HETATM    8  C   UNL     1     -10.242   9.187  67.735  1.00  0.00    -0.278 C  
ENDROOT
BRANCH   6   9
HETATM    9  N   UNL     1      -9.573  11.583  67.886  1.00  0.00    -0.172 N  
HETATM   10  N   UNL     1     -10.779  11.882  68.469  1.00  0.00    -0.216 NA 
HETATM   11  C   UNL     1     -11.233  13.096  68.462  1.00  0.00    -0.272 C  
HETATM   12  O   UNL     1      -7.719  12.269  66.670  1.00  0.00     0.008 OA 
HETATM   13  C   UNL     1     -10.515  14.212  67.813  1.00  0.00    -0.246 A  
HETATM   14  C   UNL     1     -10.979  15.533  67.820  1.00  0.00    -0.317 A  
HETATM   15  C   UNL     1      -8.795  12.523  67.214  1.00  0.00    -0.195 C  
HETATM   16  C   UNL     1     -10.222  16.543  67.218  1.00  0.00    -0.287 A  
HETATM   17  C   UNL     1      -9.305  13.908  67.194  1.00  0.00    -0.244 A  
HETATM   18  C   UNL     1      -9.013  16.237  66.595  1.00  0.00    -0.283 A  
HETATM   19  C   UNL     1      -8.554  14.921  66.578  1.00  0.00    -0.131 A  
BRANCH  11  20
HETATM   20  C   UNL     1     -12.535  13.342  69.214  1.00  0.00     0.097 C  
BRANCH  20  21
HETATM   21  C   UNL     1     -12.419  14.039  70.552  1.00  0.00    -0.429 A  
HETATM   22 CL   UNL     1     -12.515  16.212  74.529  1.00  0.00    -0.677 Cl 
HETATM   23  C   UNL     1     -11.850  15.315  70.684  1.00  0.00    -0.376 A  
HETATM   24  C   UNL     1     -13.042  14.119  72.911  1.00  0.00    -0.544 A  
HETATM   25  C   UNL     1     -11.866  15.978  71.917  1.00  0.00    -0.619 A  
HETATM   26  C   UNL     1     -13.021  13.455  71.681  1.00  0.00    -0.445 A  
HETATM   27  C   UNL     1     -12.464  15.379  73.024  1.00  0.00    -0.431 A  
ENDBRANCH  20  21
ENDBRANCH  11  20
ENDBRANCH   6   9
TORSDOF 3
ENDMDL
MODEL       59
REMARK 921   NORMALIZED FREE ENERGY PREDICTED BY IDOCK:   -5.93 KCAL/MOL
REMARK 922        TOTAL FREE ENERGY PREDICTED BY IDOCK:   -7.74 KCAL/MOL
REMARK 923 INTER-LIGAND FREE ENERGY PREDICTED BY IDOCK:   -6.67 KCAL/MOL
REMARK 924 INTRA-LIGAND FREE ENERGY PREDICTED BY IDOCK:   -1.08 KCAL/MOL
REMARK 927      BINDING AFFINITY PREDICTED BY RF-SCORE:    0.00 PKD
ROOT
HETATM    1  C   UNL     1      -8.761  17.251  66.218  1.00  0.00    -0.224 C  
HETATM    2  N   UNL     1      -9.241  16.152  67.066  1.00  0.00    -0.205 NA 
HETATM    3  C   UNL     1      -8.676  16.312  68.412  1.00  0.00    -0.205 C  
HETATM    4  C   UNL     1      -9.075  15.255  69.439  1.00  0.00    -0.228 C  
HETATM    5  C   UNL     1     -10.541  15.354  69.857  1.00  0.00    -0.315 C  
HETATM    6  C   UNL     1     -11.497  14.549  68.961  1.00  0.00    -0.290 C  
HETATM    7  C   UNL     1     -10.709  16.071  67.015  1.00  0.00    -0.277 C  
HETATM    8  C   UNL     1     -11.240  14.700  67.453  1.00  0.00    -0.351 C  
ENDROOT
BRANCH   6   9
HETATM    9  N   UNL     1     -11.572  13.119  69.351  1.00  0.00    -0.295 N  
HETATM   10  N   UNL     1     -10.827  12.234  68.612  1.00  0.00    -0.229 NA 
HETATM   11  C   UNL     1     -10.793  10.977  68.926  1.00  0.00    -0.217 C  
HETATM   12  O   UNL     1     -13.056  13.513  71.091  1.00  0.00    -0.293 OA 
HETATM   13  C   UNL     1     -11.562  10.415  70.056  1.00  0.00    -0.378 A  
HETATM   14  C   UNL     1     -11.515   9.065  70.423  1.00  0.00    -0.202 A  
HETATM   15  C   UNL     1     -12.368  12.736  70.428  1.00  0.00    -0.247 C  
HETATM   16  C   UNL     1     -12.241   8.617  71.532  1.00  0.00    -0.368 A  
HETATM   17  C   UNL     1     -12.343  11.305  70.790  1.00  0.00    -0.495 A  
HETATM   18  C   UNL     1     -13.025   9.507  72.263  1.00  0.00    -0.466 A  
HETATM   19  C   UNL     1     -13.081  10.850  71.893  1.00  0.00    -0.537 A  
BRANCH  11  20
HETATM   20  C   UNL     1      -9.867  10.092  68.101  1.00  0.00    -0.162 C  
BRANCH  20  21
HETATM   21  C   UNL     1      -8.622   9.587  68.797  1.00  0.00    -0.123 A  
HETATM   22 CL   UNL     1      -5.169   7.882  71.188  1.00  0.00    -0.026 Cl 
HETATM   23  C   UNL     1      -7.810  10.424  69.577  1.00  0.00    -0.161 A  
HETATM   24  C   UNL     1      -7.269   7.682  69.507  1.00  0.00    -0.080 A  
HETATM   25  C   UNL     1      -6.734   9.898  70.302  1.00  0.00    -0.126 A  
HETATM   26  C   UNL     1      -8.340   8.209  68.778  1.00  0.00    -0.126 A  
HETATM   27  C   UNL     1      -6.470   8.531  70.267  1.00  0.00    -0.038 A  
ENDBRANCH  20  21
ENDBRANCH  11  20
ENDBRANCH   6   9
TORSDOF 3
ENDMDL
MODEL       60
REMARK 921   NORMALIZED FREE ENERGY PREDICTED BY IDOCK:   -5.89 KCAL/MOL
REMARK 922        TOTAL FREE ENERGY PREDICTED BY IDOCK:   -7.70 KCAL/MOL
REMARK 923 INTER-LIGAND FREE ENERGY PREDICTED BY IDOCK:   -7.47 KCAL/MOL
REMARK 924 INTRA-LIGAND FREE ENERGY PREDICTED BY IDOCK:   -0.22 KCAL/MOL
REMARK 927      BINDING AFFINITY PREDICTED BY RF-SCORE:    0.00 PKD
ROOT
HETATM    1  C   UNL     1     -10.718  15.831  65.189  1.00  0.00    -0.435 C  
HETATM    2  N   UNL     1     -10.765  14.604  65.994  1.00  0.00    -0.302 NA 
HETATM    3  C   UNL     1     -11.087  13.474  65.113  1.00  0.00    -0.316 C  
HETATM    4  C   UNL     1     -11.172  12.103  65.782  1.00  0.00    -0.384 C  
HETATM    5  C   UNL     1      -9.813  11.580  66.241  1.00  0.00    -0.245 C  
HETATM    6  C   UNL     1      -9.426  12.022  67.662  1.00  0.00    -0.185 C  
HETATM    7  C   UNL     1      -9.524  14.453  66.768  1.00  0.00    -0.267 C  
HETATM    8  C   UNL     1      -9.686  13.506  67.964  1.00  0.00    -0.228 C  
ENDROOT
BRANCH   6   9
HETATM    9  N   UNL     1     -10.018  11.150  68.708  1.00  0.00    -0.201 N  
HETATM   10  N   UNL     1      -9.292  10.046  69.081  1.00  0.00    -0.182 NA 
HETATM   11  C   UNL     1      -9.714   9.268  70.028  1.00  0.00    -0.207 C  
HETATM   12  O   UNL     1     -11.926  12.453  68.930  1.00  0.00    -0.303 OA 
HETATM   13  C   UNL     1     -10.992   9.492  70.735  1.00  0.00    -0.389 A  
HETATM   14  C   UNL     1     -11.448   8.676  71.777  1.00  0.00    -0.394 A  
HETATM   15  C   UNL     1     -11.253  11.477  69.264  1.00  0.00    -0.272 C  
HETATM   16  C   UNL     1     -12.650   8.977  72.425  1.00  0.00    -0.403 A  
HETATM   17  C   UNL     1     -11.746  10.594  70.339  1.00  0.00    -0.446 A  
HETATM   18  C   UNL     1     -13.406  10.077  72.026  1.00  0.00    -0.513 A  
HETATM   19  C   UNL     1     -12.959  10.885  70.982  1.00  0.00    -0.396 A  
BRANCH  11  20
HETATM   20  C   UNL     1      -8.794   8.122  70.430  1.00  0.00    -0.141 C  
BRANCH  20  21
HETATM   21  C   UNL     1      -9.005   6.805  69.715  1.00  0.00    -0.144 A  
HETATM   22 CL   UNL     1      -9.395   2.669  67.903  1.00  0.00    -0.253 Cl 
HETATM   23  C   UNL     1      -8.299   6.465  68.551  1.00  0.00    -0.113 A  
HETATM   24  C   UNL     1      -9.962   4.559  69.742  1.00  0.00    -0.268 A  
HETATM   25  C   UNL     1      -8.433   5.192  67.984  1.00  0.00    -0.100 A  
HETATM   26  C   UNL     1      -9.832   5.833  70.305  1.00  0.00    -0.244 A  
HETATM   27  C   UNL     1      -9.261   4.245  68.582  1.00  0.00    -0.140 A  
ENDBRANCH  20  21
ENDBRANCH  11  20
ENDBRANCH   6   9
TORSDOF 3
ENDMDL
MODEL       61
REMARK 921   NORMALIZED FREE ENERGY PREDICTED BY IDOCK:   -5.85 KCAL/MOL
REMARK 922        TOTAL FREE ENERGY PREDICTED BY IDOCK:   -7.65 KCAL/MOL
REMARK 923 INTER-LIGAND FREE ENERGY PREDICTED BY IDOCK:   -7.48 KCAL/MOL
REMARK 924 INTRA-LIGAND FREE ENERGY PREDICTED BY IDOCK:   -0.17 KCAL/MOL
REMARK 927      BINDING AFFINITY PREDICTED BY RF-SCORE:    0.00 PKD
ROOT
HETATM    1  C   UNL     1      -9.255   1.811  69.148  1.00  0.00    -0.128 C  
HETATM    2  N   UNL     1      -9.455   3.228  69.476  1.00  0.00    -0.162 NA 
HETATM    3  C   UNL     1      -8.415   3.645  70.426  1.00  0.00    -0.057 C  
HETATM    4  C   UNL     1      -8.462   5.103  70.878  1.00  0.00    -0.121 C  
HETATM    5  C   UNL     1      -8.083   6.082  69.769  1.00  0.00    -0.114 C  
HETATM    6  C   UNL     1      -9.272   6.527  68.900  1.00  0.00    -0.129 C  
HETATM    7  C   UNL     1      -9.531   4.031  68.247  1.00  0.00    -0.156 C  
HETATM    8  C   UNL     1     -10.210   5.388  68.469  1.00  0.00    -0.237 C  
ENDROOT
BRANCH   6   9
HETATM    9  N   UNL     1     -10.033   7.646  69.511  1.00  0.00    -0.179 N  
HETATM   10  N   UNL     1      -9.658   8.918  69.155  1.00  0.00    -0.160 NA 
HETATM   11  C   UNL     1     -10.309   9.947  69.600  1.00  0.00    -0.241 C  
HETATM   12  O   UNL     1     -11.414   6.242  70.737  1.00  0.00    -0.333 OA 
HETATM   13  C   UNL     1     -11.456   9.826  70.524  1.00  0.00    -0.370 A  
HETATM   14  C   UNL     1     -12.186  10.926  70.992  1.00  0.00    -0.464 A  
HETATM   15  C   UNL     1     -11.075   7.375  70.393  1.00  0.00    -0.265 C  
HETATM   16  C   UNL     1     -13.285  10.727  71.834  1.00  0.00    -0.524 A  
HETATM   17  C   UNL     1     -11.821   8.539  70.911  1.00  0.00    -0.243 A  
HETATM   18  C   UNL     1     -13.646   9.439  72.224  1.00  0.00    -0.532 A  
HETATM   19  C   UNL     1     -12.915   8.345  71.767  1.00  0.00    -0.368 A  
BRANCH  11  20
HETATM   20  C   UNL     1      -9.873  11.310  69.076  1.00  0.00    -0.101 C  
BRANCH  20  21
HETATM   21  C   UNL     1     -10.352  11.683  67.690  1.00  0.00    -0.210 A  
HETATM   22 CL   UNL     1     -12.164  12.565  63.630  1.00  0.00    -0.606 Cl 
HETATM   23  C   UNL     1      -9.854  11.062  66.534  1.00  0.00    -0.241 A  
HETATM   24  C   UNL     1     -11.980  12.862  66.304  1.00  0.00    -0.472 A  
HETATM   25  C   UNL     1     -10.404  11.348  65.279  1.00  0.00    -0.336 A  
HETATM   26  C   UNL     1     -11.427  12.580  67.557  1.00  0.00    -0.397 A  
HETATM   27  C   UNL     1     -11.466  12.243  65.169  1.00  0.00    -0.341 A  
ENDBRANCH  20  21
ENDBRANCH  11  20
ENDBRANCH   6   9
TORSDOF 3
ENDMDL
MODEL       62
REMARK 921   NORMALIZED FREE ENERGY PREDICTED BY IDOCK:   -5.84 KCAL/MOL
REMARK 922        TOTAL FREE ENERGY PREDICTED BY IDOCK:   -7.64 KCAL/MOL
REMARK 923 INTER-LIGAND FREE ENERGY PREDICTED BY IDOCK:   -7.52 KCAL/MOL
REMARK 924 INTRA-LIGAND FREE ENERGY PREDICTED BY IDOCK:   -0.11 KCAL/MOL
REMARK 927      BINDING AFFINITY PREDICTED BY RF-SCORE:    0.00 PKD
ROOT
HETATM    1  C   UNL     1      -7.436  20.749  67.483  1.00  0.00    -0.289 C  
HETATM    2  N   UNL     1      -7.959  19.379  67.408  1.00  0.00    -0.263 NA 
HETATM    3  C   UNL     1      -6.875  18.441  67.729  1.00  0.00    -0.208 C  
HETATM    4  C   UNL     1      -7.240  16.958  67.707  1.00  0.00    -0.158 C  
HETATM    5  C   UNL     1      -8.160  16.554  68.856  1.00  0.00    -0.240 C  
HETATM    6  C   UNL     1      -9.656  16.716  68.540  1.00  0.00    -0.241 C  
HETATM    7  C   UNL     1      -9.162  19.244  68.243  1.00  0.00    -0.341 C  
HETATM    8  C   UNL     1     -10.024  18.038  67.848  1.00  0.00    -0.335 C  
ENDROOT
BRANCH   6   9
HETATM    9  N   UNL     1     -10.210  15.553  67.803  1.00  0.00    -0.240 N  
HETATM   10  N   UNL     1     -10.853  14.595  68.547  1.00  0.00    -0.243 NA 
HETATM   11  C   UNL     1     -11.413  13.578  67.971  1.00  0.00    -0.307 C  
HETATM   12  O   UNL     1      -9.478  16.318  65.738  1.00  0.00    -0.433 OA 
HETATM   13  C   UNL     1     -11.373  13.367  66.509  1.00  0.00    -0.346 A  
HETATM   14  C   UNL     1     -11.995  12.288  65.870  1.00  0.00    -0.358 A  
HETATM   15  C   UNL     1     -10.067  15.478  66.419  1.00  0.00    -0.288 C  
HETATM   16  C   UNL     1     -11.946  12.178  64.477  1.00  0.00    -0.415 A  
HETATM   17  C   UNL     1     -10.695  14.320  65.753  1.00  0.00    -0.308 A  
HETATM   18  C   UNL     1     -11.265  13.131  63.722  1.00  0.00    -0.316 A  
HETATM   19  C   UNL     1     -10.636  14.200  64.357  1.00  0.00    -0.120 A  
BRANCH  11  20
HETATM   20  C   UNL     1     -12.179  12.619  68.874  1.00  0.00    -0.001 C  
BRANCH  20  21
HETATM   21  C   UNL     1     -11.379  11.494  69.495  1.00  0.00    -0.342 A  
HETATM   22 CL   UNL     1      -9.113   7.871  71.004  1.00  0.00    -0.147 Cl 
HETATM   23  C   UNL     1     -11.842  10.774  70.607  1.00  0.00    -0.460 A  
HETATM   24  C   UNL     1      -9.494   9.952  69.332  1.00  0.00    -0.226 A  
HETATM   25  C   UNL     1     -11.132   9.665  71.082  1.00  0.00    -0.444 A  
HETATM   26  C   UNL     1     -10.201  11.063  68.861  1.00  0.00    -0.218 A  
HETATM   27  C   UNL     1      -9.964   9.257  70.441  1.00  0.00    -0.237 A  
ENDBRANCH  20  21
ENDBRANCH  11  20
ENDBRANCH   6   9
TORSDOF 3
ENDMDL
MODEL       63
REMARK 921   NORMALIZED FREE ENERGY PREDICTED BY IDOCK:   -5.84 KCAL/MOL
REMARK 922        TOTAL FREE ENERGY PREDICTED BY IDOCK:   -7.64 KCAL/MOL
REMARK 923 INTER-LIGAND FREE ENERGY PREDICTED BY IDOCK:   -7.02 KCAL/MOL
REMARK 924 INTRA-LIGAND FREE ENERGY PREDICTED BY IDOCK:   -0.62 KCAL/MOL
REMARK 927      BINDING AFFINITY PREDICTED BY RF-SCORE:    0.00 PKD
ROOT
HETATM    1  C   UNL     1     -12.098  14.909  64.332  1.00  0.00    -0.401 C  
HETATM    2  N   UNL     1     -11.766  13.912  65.357  1.00  0.00    -0.328 NA 
HETATM    3  C   UNL     1     -10.427  13.375  65.078  1.00  0.00    -0.365 C  
HETATM    4  C   UNL     1      -9.908  12.321  66.053  1.00  0.00    -0.263 C  
HETATM    5  C   UNL     1      -9.579  12.894  67.430  1.00  0.00    -0.203 C  
HETATM    6  C   UNL     1     -10.773  12.906  68.399  1.00  0.00    -0.255 C  
HETATM    7  C   UNL     1     -11.938  14.482  66.701  1.00  0.00    -0.338 C  
HETATM    8  C   UNL     1     -12.090  13.407  67.784  1.00  0.00    -0.299 C  
ENDROOT
BRANCH   6   9
HETATM    9  N   UNL     1     -10.962  11.602  69.082  1.00  0.00    -0.231 N  
HETATM   10  N   UNL     1     -10.231  10.541  68.608  1.00  0.00    -0.174 NA 
HETATM   11  C   UNL     1     -10.297   9.383  69.187  1.00  0.00    -0.211 C  
HETATM   12  O   UNL     1     -12.523  12.440  70.582  1.00  0.00    -0.315 OA 
HETATM   13  C   UNL     1     -11.167   9.122  70.352  1.00  0.00    -0.279 A  
HETATM   14  C   UNL     1     -11.229   7.885  71.004  1.00  0.00    -0.288 A  
HETATM   15  C   UNL     1     -11.846  11.504  70.154  1.00  0.00    -0.356 C  
HETATM   16  C   UNL     1     -12.049   7.726  72.126  1.00  0.00    -0.346 A  
HETATM   17  C   UNL     1     -11.934  10.188  70.818  1.00  0.00    -0.442 A  
HETATM   18  C   UNL     1     -12.818   8.793  72.589  1.00  0.00    -0.294 A  
HETATM   19  C   UNL     1     -12.766  10.022  71.935  1.00  0.00    -0.493 A  
BRANCH  11  20
HETATM   20  C   UNL     1      -9.379   8.295  68.643  1.00  0.00    -0.143 C  
BRANCH  20  21
HETATM   21  C   UNL     1      -8.634   8.618  67.366  1.00  0.00    -0.134 A  
HETATM   22 CL   UNL     1      -6.401  10.021  63.680  1.00  0.00    -0.126 Cl 
HETATM   23  C   UNL     1      -9.276   8.677  66.120  1.00  0.00    -0.271 A  
HETATM   24  C   UNL     1      -6.591   9.431  66.305  1.00  0.00    -0.070 A  
HETATM   25  C   UNL     1      -8.581   9.094  64.979  1.00  0.00    -0.204 A  
HETATM   26  C   UNL     1      -7.285   9.008  67.443  1.00  0.00    -0.083 A  
HETATM   27  C   UNL     1      -7.243   9.472  65.077  1.00  0.00    -0.110 A  
ENDBRANCH  20  21
ENDBRANCH  11  20
ENDBRANCH   6   9
TORSDOF 3
ENDMDL
MODEL       64
REMARK 921   NORMALIZED FREE ENERGY PREDICTED BY IDOCK:   -5.82 KCAL/MOL
REMARK 922        TOTAL FREE ENERGY PREDICTED BY IDOCK:   -7.62 KCAL/MOL
REMARK 923 INTER-LIGAND FREE ENERGY PREDICTED BY IDOCK:   -6.95 KCAL/MOL
REMARK 924 INTRA-LIGAND FREE ENERGY PREDICTED BY IDOCK:   -0.67 KCAL/MOL
REMARK 927      BINDING AFFINITY PREDICTED BY RF-SCORE:    0.00 PKD
ROOT
HETATM    1  C   UNL     1     -10.491  16.737  66.522  1.00  0.00    -0.258 C  
HETATM    2  N   UNL     1     -10.526  15.270  66.570  1.00  0.00    -0.291 NA 
HETATM    3  C   UNL     1     -11.430  14.784  65.519  1.00  0.00    -0.329 C  
HETATM    4  C   UNL     1     -11.586  13.268  65.413  1.00  0.00    -0.346 C  
HETATM    5  C   UNL     1     -10.329  12.575  64.892  1.00  0.00    -0.323 C  
HETATM    6  C   UNL     1      -9.329  12.190  65.994  1.00  0.00    -0.170 C  
HETATM    7  C   UNL     1      -9.161  14.724  66.516  1.00  0.00    -0.276 C  
HETATM    8  C   UNL     1      -9.079  13.286  67.042  1.00  0.00    -0.232 C  
ENDROOT
BRANCH   6   9
HETATM    9  N   UNL     1      -9.669  10.898  66.642  1.00  0.00    -0.185 N  
HETATM   10  N   UNL     1     -10.400  10.958  67.802  1.00  0.00    -0.179 NA 
HETATM   11  C   UNL     1     -10.785   9.872  68.396  1.00  0.00    -0.232 C  
HETATM   12  O   UNL     1      -8.579   9.630  65.032  1.00  0.00    -0.141 OA 
HETATM   13  C   UNL     1     -10.446   8.524  67.894  1.00  0.00    -0.262 A  
HETATM   14  C   UNL     1     -10.877   7.343  68.509  1.00  0.00    -0.071 A  
HETATM   15  C   UNL     1      -9.251   9.702  66.062  1.00  0.00    -0.182 C  
HETATM   16  C   UNL     1     -10.547   6.104  67.951  1.00  0.00    -0.331 A  
HETATM   17  C   UNL     1      -9.678   8.459  66.733  1.00  0.00    -0.309 A  
HETATM   18  C   UNL     1      -9.776   6.040  66.792  1.00  0.00    -0.182 A  
HETATM   19  C   UNL     1      -9.337   7.214  66.184  1.00  0.00    -0.097 A  
BRANCH  11  20
HETATM   20  C   UNL     1     -11.669  10.043  69.626  1.00  0.00    -0.098 C  
BRANCH  20  21
HETATM   21  C   UNL     1     -11.233   9.311  70.876  1.00  0.00    -0.372 A  
HETATM   22 CL   UNL     1      -9.727   6.814  74.346  1.00  0.00    -0.313 Cl 
HETATM   23  C   UNL     1     -12.119   8.530  71.633  1.00  0.00    -0.373 A  
HETATM   24  C   UNL     1      -9.404   8.536  72.295  1.00  0.00    -0.363 A  
HETATM   25  C   UNL     1     -11.655   7.773  72.715  1.00  0.00    -0.368 A  
HETATM   26  C   UNL     1      -9.868   9.297  71.218  1.00  0.00    -0.318 A  
HETATM   27  C   UNL     1     -10.300   7.776  73.039  1.00  0.00    -0.347 A  
ENDBRANCH  20  21
ENDBRANCH  11  20
ENDBRANCH   6   9
TORSDOF 3
ENDMDL
MODEL       65
REMARK 921   NORMALIZED FREE ENERGY PREDICTED BY IDOCK:   -5.80 KCAL/MOL
REMARK 922        TOTAL FREE ENERGY PREDICTED BY IDOCK:   -7.59 KCAL/MOL
REMARK 923 INTER-LIGAND FREE ENERGY PREDICTED BY IDOCK:   -6.62 KCAL/MOL
REMARK 924 INTRA-LIGAND FREE ENERGY PREDICTED BY IDOCK:   -0.97 KCAL/MOL
REMARK 927      BINDING AFFINITY PREDICTED BY RF-SCORE:    0.00 PKD
ROOT
HETATM    1  C   UNL     1      -7.727   4.521  67.669  1.00  0.00    -0.085 C  
HETATM    2  N   UNL     1      -8.600   5.634  68.060  1.00  0.00    -0.102 NA 
HETATM    3  C   UNL     1      -9.969   5.341  67.616  1.00  0.00    -0.165 C  
HETATM    4  C   UNL     1     -11.024   6.394  67.945  1.00  0.00    -0.416 C  
HETATM    5  C   UNL     1     -11.342   6.472  69.437  1.00  0.00    -0.395 C  
HETATM    6  C   UNL     1     -10.432   7.436  70.216  1.00  0.00    -0.221 C  
HETATM    7  C   UNL     1      -8.461   5.913  69.498  1.00  0.00    -0.114 C  
HETATM    8  C   UNL     1      -8.938   7.320  69.876  1.00  0.00    -0.142 C  
ENDROOT
BRANCH   6   9
HETATM    9  N   UNL     1     -10.894   8.845  70.132  1.00  0.00    -0.230 N  
HETATM   10  N   UNL     1     -10.617   9.520  68.969  1.00  0.00    -0.219 NA 
HETATM   11  C   UNL     1     -11.036  10.734  68.796  1.00  0.00    -0.259 C  
HETATM   12  O   UNL     1     -11.820   8.830  72.260  1.00  0.00    -0.360 OA 
HETATM   13  C   UNL     1     -11.798  11.470  69.826  1.00  0.00    -0.429 A  
HETATM   14  C   UNL     1     -12.280  12.772  69.643  1.00  0.00    -0.188 A  
HETATM   15  C   UNL     1     -11.578   9.414  71.203  1.00  0.00    -0.345 C  
HETATM   16  C   UNL     1     -13.029  13.388  70.651  1.00  0.00    -0.057 A  
HETATM   17  C   UNL     1     -12.055  10.799  71.019  1.00  0.00    -0.452 A  
HETATM   18  C   UNL     1     -13.282  12.717  71.846  1.00  0.00    -0.504 A  
HETATM   19  C   UNL     1     -12.794  11.425  72.034  1.00  0.00    -0.265 A  
BRANCH  11  20
HETATM   20  C   UNL     1     -10.757  11.365  67.437  1.00  0.00    -0.274 C  
BRANCH  20  21
HETATM   21  C   UNL     1      -9.754  12.499  67.414  1.00  0.00    -0.194 A  
HETATM   22 CL   UNL     1      -6.900  16.002  67.763  1.00  0.00    -0.151 Cl 
HETATM   23  C   UNL     1      -9.971  13.674  66.678  1.00  0.00    -0.283 A  
HETATM   24  C   UNL     1      -7.747  13.512  68.363  1.00  0.00    -0.135 A  
HETATM   25  C   UNL     1      -9.079  14.748  66.774  1.00  0.00    -0.291 A  
HETATM   26  C   UNL     1      -8.634  12.437  68.262  1.00  0.00    -0.172 A  
HETATM   27  C   UNL     1      -7.974  14.665  67.618  1.00  0.00    -0.179 A  
ENDBRANCH  20  21
ENDBRANCH  11  20
ENDBRANCH   6   9
TORSDOF 3
ENDMDL
MODEL       66
REMARK 921   NORMALIZED FREE ENERGY PREDICTED BY IDOCK:   -5.78 KCAL/MOL
REMARK 922        TOTAL FREE ENERGY PREDICTED BY IDOCK:   -7.57 KCAL/MOL
REMARK 923 INTER-LIGAND FREE ENERGY PREDICTED BY IDOCK:   -6.74 KCAL/MOL
REMARK 924 INTRA-LIGAND FREE ENERGY PREDICTED BY IDOCK:   -0.83 KCAL/MOL
REMARK 927      BINDING AFFINITY PREDICTED BY RF-SCORE:    0.00 PKD
ROOT
HETATM    1  C   UNL     1      -6.359   6.552  68.759  1.00  0.00    -0.038 C  
HETATM    2  N   UNL     1      -6.978   7.741  68.161  1.00  0.00    -0.077 NA 
HETATM    3  C   UNL     1      -5.935   8.748  67.923  1.00  0.00    -0.050 C  
HETATM    4  C   UNL     1      -6.398  10.060  67.292  1.00  0.00    -0.067 C  
HETATM    5  C   UNL     1      -6.821   9.903  65.834  1.00  0.00    -0.101 C  
HETATM    6  C   UNL     1      -8.301   9.532  65.652  1.00  0.00    -0.126 C  
HETATM    7  C   UNL     1      -7.762   7.368  66.974  1.00  0.00    -0.111 C  
HETATM    8  C   UNL     1      -8.804   8.428  66.596  1.00  0.00    -0.164 C  
ENDROOT
BRANCH   6   9
HETATM    9  N   UNL     1      -9.193  10.719  65.693  1.00  0.00    -0.191 N  
HETATM   10  N   UNL     1      -9.179  11.466  66.845  1.00  0.00    -0.172 NA 
HETATM   11  C   UNL     1      -9.885  12.549  66.937  1.00  0.00    -0.227 C  
HETATM   12  O   UNL     1     -10.025  10.359  63.557  1.00  0.00    -0.277 OA 
HETATM   13  C   UNL     1     -10.759  13.027  65.846  1.00  0.00    -0.292 A  
HETATM   14  C   UNL     1     -11.507  14.208  65.921  1.00  0.00    -0.338 A  
HETATM   15  C   UNL     1      -9.986  11.027  64.591  1.00  0.00    -0.301 C  
HETATM   16  C   UNL     1     -12.281  14.615  64.829  1.00  0.00    -0.403 A  
HETATM   17  C   UNL     1     -10.800  12.255  64.687  1.00  0.00    -0.349 A  
HETATM   18  C   UNL     1     -12.324  13.840  63.672  1.00  0.00    -0.256 A  
HETATM   19  C   UNL     1     -11.588  12.659  63.600  1.00  0.00    -0.575 A  
BRANCH  11  20
HETATM   20  C   UNL     1      -9.731  13.357  68.220  1.00  0.00    -0.226 C  
BRANCH  20  21
HETATM   21  C   UNL     1     -10.902  13.328  69.179  1.00  0.00    -0.148 A  
HETATM   22 CL   UNL     1     -14.114  13.361  72.376  1.00  0.00    -0.609 Cl 
HETATM   23  C   UNL     1     -11.444  12.127  69.660  1.00  0.00    -0.308 A  
HETATM   24  C   UNL     1     -12.374  14.551  70.694  1.00  0.00    -0.407 A  
HETATM   25  C   UNL     1     -12.448  12.139  70.635  1.00  0.00    -0.330 A  
HETATM   26  C   UNL     1     -11.375  14.539  69.715  1.00  0.00    -0.305 A  
HETATM   27  C   UNL     1     -12.906  13.350  71.150  1.00  0.00    -0.291 A  
ENDBRANCH  20  21
ENDBRANCH  11  20
ENDBRANCH   6   9
TORSDOF 3
ENDMDL
MODEL       67
REMARK 921   NORMALIZED FREE ENERGY PREDICTED BY IDOCK:   -5.76 KCAL/MOL
REMARK 922        TOTAL FREE ENERGY PREDICTED BY IDOCK:   -7.55 KCAL/MOL
REMARK 923 INTER-LIGAND FREE ENERGY PREDICTED BY IDOCK:   -6.49 KCAL/MOL
REMARK 924 INTRA-LIGAND FREE ENERGY PREDICTED BY IDOCK:   -1.06 KCAL/MOL
REMARK 927      BINDING AFFINITY PREDICTED BY RF-SCORE:    0.00 PKD
ROOT
HETATM    1  C   UNL     1      -9.961   6.175  74.114  1.00  0.00    -0.267 C  
HETATM    2  N   UNL     1     -10.116   6.720  72.759  1.00  0.00    -0.173 NA 
HETATM    3  C   UNL     1     -11.210   6.008  72.086  1.00  0.00    -0.291 C  
HETATM    4  C   UNL     1     -11.522   6.450  70.657  1.00  0.00    -0.426 C  
HETATM    5  C   UNL     1     -12.153   7.839  70.588  1.00  0.00    -0.030 C  
HETATM    6  C   UNL     1     -11.129   8.983  70.501  1.00  0.00    -0.254 C  
HETATM    7  C   UNL     1     -10.265   8.182  72.810  1.00  0.00    -0.302 C  
HETATM    8  C   UNL     1      -9.944   8.856  71.471  1.00  0.00    -0.391 C  
ENDROOT
BRANCH   6   9
HETATM    9  N   UNL     1     -10.662   9.220  69.112  1.00  0.00    -0.213 N  
HETATM   10  N   UNL     1      -9.730   8.345  68.612  1.00  0.00    -0.160 NA 
HETATM   11  C   UNL     1      -9.315   8.450  67.388  1.00  0.00    -0.148 C  
HETATM   12  O   UNL     1     -11.998  11.095  68.820  1.00  0.00    -0.451 OA 
HETATM   13  C   UNL     1      -9.782   9.515  66.477  1.00  0.00    -0.284 A  
HETATM   14  C   UNL     1      -9.363   9.626  65.145  1.00  0.00    -0.322 A  
HETATM   15  C   UNL     1     -11.175  10.290  68.382  1.00  0.00    -0.224 C  
HETATM   16  C   UNL     1      -9.881  10.639  64.332  1.00  0.00    -0.395 A  
HETATM   17  C   UNL     1     -10.705  10.424  66.989  1.00  0.00    -0.298 A  
HETATM   18  C   UNL     1     -10.802  11.550  64.847  1.00  0.00    -0.345 A  
HETATM   19  C   UNL     1     -11.212  11.447  66.175  1.00  0.00    -0.203 A  
BRANCH  11  20
HETATM   20  C   UNL     1      -8.350   7.377  66.900  1.00  0.00    -0.122 C  
BRANCH  20  21
HETATM   21  C   UNL     1      -8.962   6.207  66.160  1.00  0.00    -0.164 A  
HETATM   22 CL   UNL     1     -10.929   3.002  63.631  1.00  0.00    -0.176 Cl 
HETATM   23  C   UNL     1     -10.164   5.610  66.571  1.00  0.00    -0.259 A  
HETATM   24  C   UNL     1      -8.987   4.793  64.170  1.00  0.00    -0.093 A  
HETATM   25  C   UNL     1     -10.761   4.608  65.796  1.00  0.00    -0.195 A  
HETATM   26  C   UNL     1      -8.387   5.790  64.947  1.00  0.00    -0.127 A  
HETATM   27  C   UNL     1     -10.173   4.207  64.599  1.00  0.00    -0.180 A  
ENDBRANCH  20  21
ENDBRANCH  11  20
ENDBRANCH   6   9
TORSDOF 3
ENDMDL
MODEL       68
REMARK 921   NORMALIZED FREE ENERGY PREDICTED BY IDOCK:   -5.75 KCAL/MOL
REMARK 922        TOTAL FREE ENERGY PREDICTED BY IDOCK:   -7.53 KCAL/MOL
REMARK 923 INTER-LIGAND FREE ENERGY PREDICTED BY IDOCK:   -6.71 KCAL/MOL
REMARK 924 INTRA-LIGAND FREE ENERGY PREDICTED BY IDOCK:   -0.82 KCAL/MOL
REMARK 927      BINDING AFFINITY PREDICTED BY RF-SCORE:    0.00 PKD
ROOT
HETATM    1  C   UNL     1      -9.504  10.783  62.582  1.00  0.00    -0.300 C  
HETATM    2  N   UNL     1      -9.693  10.477  64.006  1.00  0.00    -0.304 NA 
HETATM    3  C   UNL     1      -8.544   9.693  64.477  1.00  0.00    -0.188 C  
HETATM    4  C   UNL     1      -8.564   9.287  65.949  1.00  0.00    -0.163 C  
HETATM    5  C   UNL     1      -8.365  10.469  66.896  1.00  0.00    -0.126 C  
HETATM    6  C   UNL     1      -9.671  11.180  67.285  1.00  0.00    -0.166 C  
HETATM    7  C   UNL     1      -9.955  11.710  64.763  1.00  0.00    -0.254 C  
HETATM    8  C   UNL     1     -10.631  11.441  66.113  1.00  0.00    -0.316 C  
ENDROOT
BRANCH   6   9
HETATM    9  N   UNL     1     -10.369  10.508  68.410  1.00  0.00    -0.168 N  
HETATM   10  N   UNL     1     -10.092   9.178  68.606  1.00  0.00    -0.188 NA 
HETATM   11  C   UNL     1     -10.617   8.534  69.602  1.00  0.00    -0.220 C  
HETATM   12  O   UNL     1     -11.524  12.420  69.038  1.00  0.00    -0.259 OA 
HETATM   13  C   UNL     1     -11.552   9.165  70.555  1.00  0.00    -0.238 A  
HETATM   14  C   UNL     1     -12.105   8.491  71.651  1.00  0.00    -0.373 A  
HETATM   15  C   UNL     1     -11.250  11.232  69.210  1.00  0.00    -0.272 C  
HETATM   16  C   UNL     1     -12.953   9.169  72.533  1.00  0.00    -0.416 A  
HETATM   17  C   UNL     1     -11.859  10.507  70.343  1.00  0.00    -0.431 A  
HETATM   18  C   UNL     1     -13.262  10.511  72.317  1.00  0.00    -0.253 A  
HETATM   19  C   UNL     1     -12.720  11.181  71.222  1.00  0.00    -0.531 A  
BRANCH  11  20
HETATM   20  C   UNL     1     -10.177   7.087  69.786  1.00  0.00    -0.213 C  
BRANCH  20  21
HETATM   21  C   UNL     1      -9.879   6.307  68.524  1.00  0.00    -0.152 A  
HETATM   22 CL   UNL     1      -8.825   4.359  64.570  1.00  0.00    -0.142 Cl 
HETATM   23  C   UNL     1     -10.885   5.942  67.617  1.00  0.00    -0.331 A  
HETATM   24  C   UNL     1      -8.213   5.447  66.961  1.00  0.00    -0.104 A  
HETATM   25  C   UNL     1     -10.559   5.325  66.403  1.00  0.00    -0.338 A  
HETATM   26  C   UNL     1      -8.540   6.058  68.176  1.00  0.00    -0.114 A  
HETATM   27  C   UNL     1      -9.226   5.083  66.079  1.00  0.00    -0.153 A  
ENDBRANCH  20  21
ENDBRANCH  11  20
ENDBRANCH   6   9
TORSDOF 3
ENDMDL
MODEL       69
REMARK 921   NORMALIZED FREE ENERGY PREDICTED BY IDOCK:   -5.74 KCAL/MOL
REMARK 922        TOTAL FREE ENERGY PREDICTED BY IDOCK:   -7.52 KCAL/MOL
REMARK 923 INTER-LIGAND FREE ENERGY PREDICTED BY IDOCK:   -7.37 KCAL/MOL
REMARK 924 INTRA-LIGAND FREE ENERGY PREDICTED BY IDOCK:   -0.15 KCAL/MOL
REMARK 927      BINDING AFFINITY PREDICTED BY RF-SCORE:    0.00 PKD
ROOT
HETATM    1  C   UNL     1      -7.423   5.762  67.557  1.00  0.00    -0.078 C  
HETATM    2  N   UNL     1      -8.300   6.934  67.446  1.00  0.00    -0.121 NA 
HETATM    3  C   UNL     1      -9.652   6.554  67.874  1.00  0.00    -0.118 C  
HETATM    4  C   UNL     1     -10.707   7.658  67.833  1.00  0.00    -0.176 C  
HETATM    5  C   UNL     1     -10.486   8.732  68.895  1.00  0.00    -0.217 C  
HETATM    6  C   UNL     1      -9.565   9.877  68.441  1.00  0.00    -0.148 C  
HETATM    7  C   UNL     1      -7.719   8.077  68.167  1.00  0.00    -0.118 C  
HETATM    8  C   UNL     1      -8.295   9.421  67.705  1.00  0.00    -0.119 C  
ENDROOT
BRANCH   6   9
HETATM    9  N   UNL     1     -10.291  10.915  67.666  1.00  0.00    -0.189 N  
HETATM   10  N   UNL     1     -10.743  12.007  68.364  1.00  0.00    -0.220 NA 
HETATM   11  C   UNL     1     -11.335  12.983  67.750  1.00  0.00    -0.292 C  
HETATM   12  O   UNL     1     -10.094   9.771  65.656  1.00  0.00    -0.296 OA 
HETATM   13  C   UNL     1     -11.586  12.975  66.294  1.00  0.00    -0.408 A  
HETATM   14  C   UNL     1     -12.200  14.033  65.613  1.00  0.00    -0.462 A  
HETATM   15  C   UNL     1     -10.477  10.752  66.295  1.00  0.00    -0.226 C  
HETATM   16  C   UNL     1     -12.366  13.968  64.226  1.00  0.00    -0.393 A  
HETATM   17  C   UNL     1     -11.155  11.855  65.586  1.00  0.00    -0.362 A  
HETATM   18  C   UNL     1     -11.939  12.845  63.520  1.00  0.00    -0.629 A  
HETATM   19  C   UNL     1     -11.337  11.787  64.197  1.00  0.00    -0.430 A  
BRANCH  11  20
HETATM   20  C   UNL     1     -11.718  14.190  68.598  1.00  0.00    -0.385 C  
BRANCH  20  21
HETATM   21  C   UNL     1     -10.790  15.383  68.530  1.00  0.00    -0.264 A  
HETATM   22 CL   UNL     1      -7.973  18.926  68.778  1.00  0.00    -0.370 Cl 
HETATM   23  C   UNL     1     -11.264  16.689  68.334  1.00  0.00    -0.239 A  
HETATM   24  C   UNL     1      -8.551  16.293  68.874  1.00  0.00    -0.260 A  
HETATM   25  C   UNL     1     -10.390  17.781  68.394  1.00  0.00    -0.378 A  
HETATM   26  C   UNL     1      -9.424  15.202  68.808  1.00  0.00    -0.209 A  
HETATM   27  C   UNL     1      -9.039  17.579  68.667  1.00  0.00    -0.263 A  
ENDBRANCH  20  21
ENDBRANCH  11  20
ENDBRANCH   6   9
TORSDOF 3
ENDMDL
MODEL       70
REMARK 921   NORMALIZED FREE ENERGY PREDICTED BY IDOCK:   -5.67 KCAL/MOL
REMARK 922        TOTAL FREE ENERGY PREDICTED BY IDOCK:   -7.44 KCAL/MOL
REMARK 923 INTER-LIGAND FREE ENERGY PREDICTED BY IDOCK:   -6.68 KCAL/MOL
REMARK 924 INTRA-LIGAND FREE ENERGY PREDICTED BY IDOCK:   -0.76 KCAL/MOL
REMARK 927      BINDING AFFINITY PREDICTED BY RF-SCORE:    0.00 PKD
ROOT
HETATM    1  C   UNL     1     -12.138  13.158  63.526  1.00  0.00    -0.514 C  
HETATM    2  N   UNL     1     -11.752  12.101  64.470  1.00  0.00    -0.348 NA 
HETATM    3  C   UNL     1     -10.607  11.367  63.915  1.00  0.00    -0.392 C  
HETATM    4  C   UNL     1     -10.060  10.226  64.770  1.00  0.00    -0.336 C  
HETATM    5  C   UNL     1      -9.355  10.714  66.034  1.00  0.00    -0.219 C  
HETATM    6  C   UNL     1     -10.293  10.895  67.239  1.00  0.00    -0.216 C  
HETATM    7  C   UNL     1     -11.536  12.666  65.810  1.00  0.00    -0.387 C  
HETATM    8  C   UNL     1     -11.616  11.608  66.918  1.00  0.00    -0.246 C  
ENDROOT
BRANCH   6   9
HETATM    9  N   UNL     1     -10.531   9.624  67.967  1.00  0.00    -0.216 N  
HETATM   10  N   UNL     1     -10.614   8.481  67.211  1.00  0.00    -0.288 NA 
HETATM   11  C   UNL     1     -10.763   7.325  67.777  1.00  0.00    -0.197 C  
HETATM   12  O   UNL     1     -10.601  10.650  70.047  1.00  0.00    -0.230 OA 
HETATM   13  C   UNL     1     -10.883   7.162  69.240  1.00  0.00    -0.204 A  
HETATM   14  C   UNL     1     -11.018   5.918  69.868  1.00  0.00    -0.444 A  
HETATM   15  C   UNL     1     -10.654   9.633  69.355  1.00  0.00    -0.225 C  
HETATM   16  C   UNL     1     -11.087   5.843  71.263  1.00  0.00    -0.307 A  
HETATM   17  C   UNL     1     -10.831   8.322  70.010  1.00  0.00    -0.232 A  
HETATM   18  C   UNL     1     -11.038   7.004  72.031  1.00  0.00    -0.276 A  
HETATM   19  C   UNL     1     -10.914   8.245  71.408  1.00  0.00    -0.301 A  
BRANCH  11  20
HETATM   20  C   UNL     1     -10.751   6.108  66.858  1.00  0.00    -0.413 C  
BRANCH  20  21
HETATM   21  C   UNL     1      -9.414   5.429  66.657  1.00  0.00    -0.151 A  
HETATM   22 CL   UNL     1      -5.555   3.281  65.639  1.00  0.00    -0.017 Cl 
HETATM   23  C   UNL     1      -9.111   4.189  67.239  1.00  0.00    -0.161 A  
HETATM   24  C   UNL     1      -7.299   5.329  65.443  1.00  0.00    -0.069 A  
HETATM   25  C   UNL     1      -7.911   3.534  66.936  1.00  0.00    -0.080 A  
HETATM   26  C   UNL     1      -8.495   5.985  65.750  1.00  0.00    -0.146 A  
HETATM   27  C   UNL     1      -7.012   4.105  66.038  1.00  0.00    -0.066 A  
ENDBRANCH  20  21
ENDBRANCH  11  20
ENDBRANCH   6   9
TORSDOF 3
ENDMDL
MODEL       71
REMARK 921   NORMALIZED FREE ENERGY PREDICTED BY IDOCK:   -5.66 KCAL/MOL
REMARK 922        TOTAL FREE ENERGY PREDICTED BY IDOCK:   -7.43 KCAL/MOL
REMARK 923 INTER-LIGAND FREE ENERGY PREDICTED BY IDOCK:   -6.88 KCAL/MOL
REMARK 924 INTRA-LIGAND FREE ENERGY PREDICTED BY IDOCK:   -0.54 KCAL/MOL
REMARK 927      BINDING AFFINITY PREDICTED BY RF-SCORE:    0.00 PKD
ROOT
HETATM    1  C   UNL     1     -12.576  12.077  63.353  1.00  0.00    -0.469 C  
HETATM    2  N   UNL     1     -11.816  12.692  64.448  1.00  0.00    -0.362 NA 
HETATM    3  C   UNL     1     -12.753  13.376  65.348  1.00  0.00    -0.426 C  
HETATM    4  C   UNL     1     -12.137  14.073  66.559  1.00  0.00    -0.488 C  
HETATM    5  C   UNL     1     -11.589  13.094  67.595  1.00  0.00    -0.392 C  
HETATM    6  C   UNL     1     -10.129  12.679  67.347  1.00  0.00    -0.218 C  
HETATM    7  C   UNL     1     -10.952  11.693  65.095  1.00  0.00    -0.266 C  
HETATM    8  C   UNL     1      -9.803  12.330  65.887  1.00  0.00    -0.266 C  
ENDROOT
BRANCH   6   9
HETATM    9  N   UNL     1      -9.160  13.664  67.893  1.00  0.00    -0.189 N  
HETATM   10  N   UNL     1      -9.484  14.991  67.761  1.00  0.00    -0.194 NA 
HETATM   11  C   UNL     1      -8.719  15.910  68.262  1.00  0.00    -0.174 C  
HETATM   12  O   UNL     1      -7.678  12.033  68.618  1.00  0.00    -0.125 OA 
HETATM   13  C   UNL     1      -7.457  15.600  68.966  1.00  0.00    -0.181 A  
HETATM   14  C   UNL     1      -6.634  16.579  69.535  1.00  0.00    -0.217 A  
HETATM   15  C   UNL     1      -7.993  13.218  68.507  1.00  0.00    -0.097 C  
HETATM   16  C   UNL     1      -5.474  16.204  70.221  1.00  0.00    -0.175 A  
HETATM   17  C   UNL     1      -7.110  14.256  69.075  1.00  0.00    -0.116 A  
HETATM   18  C   UNL     1      -5.126  14.859  70.327  1.00  0.00    -0.107 A  
HETATM   19  C   UNL     1      -5.939  13.884  69.752  1.00  0.00    -0.124 A  
BRANCH  11  20
HETATM   20  C   UNL     1      -9.210  17.348  68.143  1.00  0.00    -0.270 C  
BRANCH  20  21
HETATM   21  C   UNL     1      -8.350  18.288  67.326  1.00  0.00    -0.246 A  
HETATM   22 CL   UNL     1      -5.415  20.908  65.077  1.00  0.00    -0.244 Cl 
HETATM   23  C   UNL     1      -8.203  19.643  67.656  1.00  0.00    -0.335 A  
HETATM   24  C   UNL     1      -6.665  18.572  65.583  1.00  0.00    -0.300 A  
HETATM   25  C   UNL     1      -7.308  20.455  66.950  1.00  0.00    -0.349 A  
HETATM   26  C   UNL     1      -7.563  17.763  66.285  1.00  0.00    -0.322 A  
HETATM   27  C   UNL     1      -6.541  19.917  65.919  1.00  0.00    -0.231 A  
ENDBRANCH  20  21
ENDBRANCH  11  20
ENDBRANCH   6   9
TORSDOF 3
ENDMDL
MODEL       72
REMARK 921   NORMALIZED FREE ENERGY PREDICTED BY IDOCK:   -5.65 KCAL/MOL
REMARK 922        TOTAL FREE ENERGY PREDICTED BY IDOCK:   -7.42 KCAL/MOL
REMARK 923 INTER-LIGAND FREE ENERGY PREDICTED BY IDOCK:   -6.49 KCAL/MOL
REMARK 924 INTRA-LIGAND FREE ENERGY PREDICTED BY IDOCK:   -0.93 KCAL/MOL
REMARK 927      BINDING AFFINITY PREDICTED BY RF-SCORE:    0.00 PKD
ROOT
HETATM    1  C   UNL     1     -14.106   8.871  72.426  1.00  0.00    -0.420 C  
HETATM    2  N   UNL     1     -13.100   8.941  71.359  1.00  0.00    -0.302 NA 
HETATM    3  C   UNL     1     -12.425  10.243  71.431  1.00  0.00    -0.424 C  
HETATM    4  C   UNL     1     -11.333  10.493  70.393  1.00  0.00    -0.411 C  
HETATM    5  C   UNL     1     -10.087   9.642  70.623  1.00  0.00    -0.324 C  
HETATM    6  C   UNL     1     -10.139   8.267  69.937  1.00  0.00    -0.195 C  
HETATM    7  C   UNL     1     -12.207   7.774  71.421  1.00  0.00    -0.319 C  
HETATM    8  C   UNL     1     -11.473   7.521  70.098  1.00  0.00    -0.116 C  
ENDROOT
BRANCH   6   9
HETATM    9  N   UNL     1      -9.728   8.328  68.511  1.00  0.00    -0.153 N  
HETATM   10  N   UNL     1     -10.174   9.403  67.783  1.00  0.00    -0.208 NA 
HETATM   11  C   UNL     1      -9.812   9.560  66.548  1.00  0.00    -0.240 C  
HETATM   12  O   UNL     1      -8.528   6.345  68.611  1.00  0.00    -0.122 OA 
HETATM   13  C   UNL     1      -8.939   8.597  65.845  1.00  0.00    -0.245 A  
HETATM   14  C   UNL     1      -8.518   8.766  64.520  1.00  0.00    -0.158 A  
HETATM   15  C   UNL     1      -8.922   7.325  67.979  1.00  0.00    -0.131 C  
HETATM   16  C   UNL     1      -7.659   7.830  63.935  1.00  0.00    -0.118 A  
HETATM   17  C   UNL     1      -8.509   7.489  66.571  1.00  0.00    -0.131 A  
HETATM   18  C   UNL     1      -7.232   6.720  64.662  1.00  0.00    -0.075 A  
HETATM   19  C   UNL     1      -7.658   6.545  65.977  1.00  0.00    -0.087 A  
BRANCH  11  20
HETATM   20  C   UNL     1     -10.285  10.831  65.854  1.00  0.00    -0.319 C  
BRANCH  20  21
HETATM   21  C   UNL     1     -10.492  12.043  66.736  1.00  0.00    -0.243 A  
HETATM   22 CL   UNL     1     -11.286  15.881  69.012  1.00  0.00    -0.347 Cl 
HETATM   23  C   UNL     1      -9.433  12.882  67.113  1.00  0.00    -0.229 A  
HETATM   24  C   UNL     1     -12.049  13.601  67.789  1.00  0.00    -0.325 A  
HETATM   25  C   UNL     1      -9.679  14.059  67.831  1.00  0.00    -0.229 A  
HETATM   26  C   UNL     1     -11.803  12.423  67.077  1.00  0.00    -0.368 A  
HETATM   27  C   UNL     1     -10.984  14.415  68.163  1.00  0.00    -0.254 A  
ENDBRANCH  20  21
ENDBRANCH  11  20
ENDBRANCH   6   9
TORSDOF 3
ENDMDL
MODEL       73
REMARK 921   NORMALIZED FREE ENERGY PREDICTED BY IDOCK:   -5.65 KCAL/MOL
REMARK 922        TOTAL FREE ENERGY PREDICTED BY IDOCK:   -7.41 KCAL/MOL
REMARK 923 INTER-LIGAND FREE ENERGY PREDICTED BY IDOCK:   -7.13 KCAL/MOL
REMARK 924 INTRA-LIGAND FREE ENERGY PREDICTED BY IDOCK:   -0.28 KCAL/MOL
REMARK 927      BINDING AFFINITY PREDICTED BY RF-SCORE:    0.00 PKD
ROOT
HETATM    1  C   UNL     1      -6.211  10.427  64.141  1.00  0.00    -0.061 C  
HETATM    2  N   UNL     1      -7.111  10.159  65.270  1.00  0.00    -0.133 NA 
HETATM    3  C   UNL     1      -7.543   8.757  65.208  1.00  0.00    -0.091 C  
HETATM    4  C   UNL     1      -8.486   8.293  66.317  1.00  0.00    -0.134 C  
HETATM    5  C   UNL     1      -7.803   8.202  67.680  1.00  0.00    -0.114 C  
HETATM    6  C   UNL     1      -7.837   9.515  68.480  1.00  0.00    -0.085 C  
HETATM    7  C   UNL     1      -6.477  10.558  66.535  1.00  0.00    -0.099 C  
HETATM    8  C   UNL     1      -7.493  10.771  67.664  1.00  0.00    -0.095 C  
ENDROOT
BRANCH   6   9
HETATM    9  N   UNL     1      -9.110   9.691  69.226  1.00  0.00    -0.161 N  
HETATM   10  N   UNL     1      -9.867  10.791  68.908  1.00  0.00    -0.194 NA 
HETATM   11  C   UNL     1     -11.018  10.985  69.473  1.00  0.00    -0.243 C  
HETATM   12  O   UNL     1      -8.808   7.775  70.500  1.00  0.00    -0.142 OA 
HETATM   13  C   UNL     1     -11.568  10.073  70.497  1.00  0.00    -0.403 A  
HETATM   14  C   UNL     1     -12.820  10.255  71.096  1.00  0.00    -0.504 A  
HETATM   15  C   UNL     1      -9.483   8.758  70.189  1.00  0.00    -0.169 C  
HETATM   16  C   UNL     1     -13.289   9.325  72.029  1.00  0.00    -0.518 A  
HETATM   17  C   UNL     1     -10.789   8.972  70.844  1.00  0.00    -0.323 A  
HETATM   18  C   UNL     1     -12.507   8.226  72.379  1.00  0.00    -0.355 A  
HETATM   19  C   UNL     1     -11.256   8.049  71.791  1.00  0.00    -0.317 A  
BRANCH  11  20
HETATM   20  C   UNL     1     -11.823  12.185  68.987  1.00  0.00    -0.361 C  
BRANCH  20  21
HETATM   21  C   UNL     1     -11.933  13.353  69.942  1.00  0.00    -0.408 A  
HETATM   22 CL   UNL     1     -11.852  16.735  72.959  1.00  0.00    -0.387 Cl 
HETATM   23  C   UNL     1     -12.739  13.307  71.090  1.00  0.00    -0.404 A  
HETATM   24  C   UNL     1     -11.081  15.519  70.679  1.00  0.00    -0.378 A  
HETATM   25  C   UNL     1     -12.726  14.360  72.012  1.00  0.00    -0.403 A  
HETATM   26  C   UNL     1     -11.099  14.470  69.754  1.00  0.00    -0.239 A  
HETATM   27  C   UNL     1     -11.895  15.459  71.805  1.00  0.00    -0.412 A  
ENDBRANCH  20  21
ENDBRANCH  11  20
ENDBRANCH   6   9
TORSDOF 3
ENDMDL
MODEL       74
REMARK 921   NORMALIZED FREE ENERGY PREDICTED BY IDOCK:   -5.64 KCAL/MOL
REMARK 922        TOTAL FREE ENERGY PREDICTED BY IDOCK:   -7.41 KCAL/MOL
REMARK 923 INTER-LIGAND FREE ENERGY PREDICTED BY IDOCK:   -7.33 KCAL/MOL
REMARK 924 INTRA-LIGAND FREE ENERGY PREDICTED BY IDOCK:   -0.08 KCAL/MOL
REMARK 927      BINDING AFFINITY PREDICTED BY RF-SCORE:    0.00 PKD
ROOT
HETATM    1  C   UNL     1     -11.282   7.253  71.526  1.00  0.00    -0.245 C  
HETATM    2  N   UNL     1     -11.512   8.435  70.687  1.00  0.00    -0.253 NA 
HETATM    3  C   UNL     1     -12.755   9.087  71.119  1.00  0.00    -0.192 C  
HETATM    4  C   UNL     1     -13.154  10.349  70.357  1.00  0.00    -0.112 C  
HETATM    5  C   UNL     1     -12.233  11.533  70.642  1.00  0.00    -0.473 C  
HETATM    6  C   UNL     1     -11.009  11.606  69.714  1.00  0.00     0.068 C  
HETATM    7  C   UNL     1     -10.324   9.303  70.688  1.00  0.00    -0.263 C  
HETATM    8  C   UNL     1     -10.293  10.264  69.494  1.00  0.00    -0.267 C  
ENDROOT
BRANCH   6   9
HETATM    9  N   UNL     1     -11.317  12.268  68.421  1.00  0.00    -0.267 N  
HETATM   10  N   UNL     1     -11.465  13.633  68.442  1.00  0.00    -0.288 NA 
HETATM   11  C   UNL     1     -11.677  14.290  67.346  1.00  0.00    -0.394 C  
HETATM   12  O   UNL     1     -11.324  10.278  67.228  1.00  0.00    -0.280 OA 
HETATM   13  C   UNL     1     -11.803  13.630  66.031  1.00  0.00    -0.415 A  
HETATM   14  C   UNL     1     -12.006  14.328  64.835  1.00  0.00    -0.430 A  
HETATM   15  C   UNL     1     -11.436  11.504  67.263  1.00  0.00    -0.263 C  
HETATM   16  C   UNL     1     -12.075  13.634  63.623  1.00  0.00    -0.397 A  
HETATM   17  C   UNL     1     -11.684  12.242  66.009  1.00  0.00    -0.451 A  
HETATM   18  C   UNL     1     -11.960  12.245  63.602  1.00  0.00    -0.633 A  
HETATM   19  C   UNL     1     -11.768  11.547  64.793  1.00  0.00    -0.013 A  
BRANCH  11  20
HETATM   20  C   UNL     1     -11.736  15.809  67.461  1.00  0.00     0.151 C  
BRANCH  20  21
HETATM   21  C   UNL     1     -10.408  16.535  67.473  1.00  0.00    -0.294 A  
HETATM   22 CL   UNL     1      -6.268  18.359  67.745  1.00  0.00    -0.184 Cl 
HETATM   23  C   UNL     1     -10.164  17.632  68.313  1.00  0.00    -0.374 A  
HETATM   24  C   UNL     1      -8.063  16.583  66.797  1.00  0.00    -0.286 A  
HETATM   25  C   UNL     1      -8.889  18.205  68.383  1.00  0.00    -0.305 A  
HETATM   26  C   UNL     1      -9.339  16.015  66.723  1.00  0.00    -0.260 A  
HETATM   27  C   UNL     1      -7.844  17.677  67.628  1.00  0.00    -0.207 A  
ENDBRANCH  20  21
ENDBRANCH  11  20
ENDBRANCH   6   9
TORSDOF 3
ENDMDL
MODEL       75
REMARK 921   NORMALIZED FREE ENERGY PREDICTED BY IDOCK:   -5.63 KCAL/MOL
REMARK 922        TOTAL FREE ENERGY PREDICTED BY IDOCK:   -7.39 KCAL/MOL
REMARK 923 INTER-LIGAND FREE ENERGY PREDICTED BY IDOCK:   -7.11 KCAL/MOL
REMARK 924 INTRA-LIGAND FREE ENERGY PREDICTED BY IDOCK:   -0.28 KCAL/MOL
REMARK 927      BINDING AFFINITY PREDICTED BY RF-SCORE:    0.00 PKD
ROOT
HETATM    1  C   UNL     1      -7.250   7.955  71.627  1.00  0.00    -0.069 C  
HETATM    2  N   UNL     1      -7.812   8.770  70.542  1.00  0.00    -0.090 NA 
HETATM    3  C   UNL     1      -6.862   9.842  70.216  1.00  0.00    -0.123 C  
HETATM    4  C   UNL     1      -7.279  10.793  69.096  1.00  0.00    -0.107 C  
HETATM    5  C   UNL     1      -7.269  10.131  67.720  1.00  0.00    -0.087 C  
HETATM    6  C   UNL     1      -8.595   9.444  67.352  1.00  0.00    -0.125 C  
HETATM    7  C   UNL     1      -8.197   7.916  69.408  1.00  0.00    -0.130 C  
HETATM    8  C   UNL     1      -9.208   8.594  68.476  1.00  0.00    -0.138 C  
ENDROOT
BRANCH   6   9
HETATM    9  N   UNL     1      -9.590  10.394  66.793  1.00  0.00    -0.167 N  
HETATM   10  N   UNL     1     -10.290  11.159  67.692  1.00  0.00    -0.186 NA 
HETATM   11  C   UNL     1     -11.135  12.052  67.281  1.00  0.00    -0.285 C  
HETATM   12  O   UNL     1      -9.164   9.786  64.594  1.00  0.00    -0.236 OA 
HETATM   13  C   UNL     1     -11.420  12.282  65.850  1.00  0.00    -0.428 A  
HETATM   14  C   UNL     1     -12.310  13.260  65.390  1.00  0.00    -0.528 A  
HETATM   15  C   UNL     1      -9.770  10.477  65.414  1.00  0.00    -0.257 C  
HETATM   16  C   UNL     1     -12.498  13.444  64.016  1.00  0.00    -0.310 A  
HETATM   17  C   UNL     1     -10.735  11.486  64.935  1.00  0.00    -0.357 A  
HETATM   18  C   UNL     1     -11.814  12.644  63.102  1.00  0.00    -0.341 A  
HETATM   19  C   UNL     1     -10.936  11.663  63.558  1.00  0.00    -0.485 A  
BRANCH  11  20
HETATM   20  C   UNL     1     -11.793  12.913  68.353  1.00  0.00    -0.357 C  
BRANCH  20  21
HETATM   21  C   UNL     1     -11.286  14.333  68.482  1.00  0.00    -0.309 A  
HETATM   22 CL   UNL     1     -10.197  18.707  68.955  1.00  0.00    -0.355 Cl 
HETATM   23  C   UNL     1     -10.951  15.111  67.364  1.00  0.00    -0.314 A  
HETATM   24  C   UNL     1     -10.933  16.290  69.898  1.00  0.00    -0.365 A  
HETATM   25  C   UNL     1     -10.598  16.458  67.513  1.00  0.00    -0.309 A  
HETATM   26  C   UNL     1     -11.280  14.943  69.749  1.00  0.00    -0.308 A  
HETATM   27  C   UNL     1     -10.594  17.042  68.778  1.00  0.00    -0.346 A  
ENDBRANCH  20  21
ENDBRANCH  11  20
ENDBRANCH   6   9
TORSDOF 3
ENDMDL
MODEL       76
REMARK 921   NORMALIZED FREE ENERGY PREDICTED BY IDOCK:   -5.60 KCAL/MOL
REMARK 922        TOTAL FREE ENERGY PREDICTED BY IDOCK:   -7.36 KCAL/MOL
REMARK 923 INTER-LIGAND FREE ENERGY PREDICTED BY IDOCK:   -6.32 KCAL/MOL
REMARK 924 INTRA-LIGAND FREE ENERGY PREDICTED BY IDOCK:   -1.04 KCAL/MOL
REMARK 927      BINDING AFFINITY PREDICTED BY RF-SCORE:    0.00 PKD
ROOT
HETATM    1  C   UNL     1     -11.673  16.116  72.188  1.00  0.00    -0.474 C  
HETATM    2  N   UNL     1     -11.384  15.217  71.064  1.00  0.00    -0.323 NA 
HETATM    3  C   UNL     1     -12.631  14.558  70.653  1.00  0.00    -0.352 C  
HETATM    4  C   UNL     1     -12.524  13.584  69.482  1.00  0.00    -0.054 C  
HETATM    5  C   UNL     1     -12.251  14.280  68.151  1.00  0.00    -0.164 C  
HETATM    6  C   UNL     1     -10.757  14.485  67.851  1.00  0.00    -0.245 C  
HETATM    7  C   UNL     1     -10.684  15.943  69.994  1.00  0.00    -0.339 C  
HETATM    8  C   UNL     1      -9.933  15.008  69.039  1.00  0.00    -0.246 C  
ENDROOT
BRANCH   6   9
HETATM    9  N   UNL     1     -10.128  13.281  67.252  1.00  0.00    -0.232 N  
HETATM   10  N   UNL     1      -9.420  12.464  68.098  1.00  0.00    -0.210 NA 
HETATM   11  C   UNL     1      -8.890  11.364  67.662  1.00  0.00    -0.139 C  
HETATM   12  O   UNL     1     -10.896  13.756  65.114  1.00  0.00    -0.310 OA 
HETATM   13  C   UNL     1      -8.983  10.937  66.251  1.00  0.00    -0.188 A  
HETATM   14  C   UNL     1      -8.439   9.739  65.772  1.00  0.00    -0.141 A  
HETATM   15  C   UNL     1     -10.280  13.026  65.891  1.00  0.00    -0.292 C  
HETATM   16  C   UNL     1      -8.603   9.386  64.429  1.00  0.00    -0.214 A  
HETATM   17  C   UNL     1      -9.675  11.778  65.383  1.00  0.00    -0.242 A  
HETATM   18  C   UNL     1      -9.293  10.230  63.560  1.00  0.00    -0.341 A  
HETATM   19  C   UNL     1      -9.826  11.427  64.033  1.00  0.00    -0.316 A  
BRANCH  11  20
HETATM   20  C   UNL     1      -8.202  10.481  68.697  1.00  0.00    -0.130 C  
BRANCH  20  21
HETATM   21  C   UNL     1      -8.962   9.251  69.145  1.00  0.00    -0.144 A  
HETATM   22 CL   UNL     1     -11.090   5.658  70.907  1.00  0.00    -0.265 Cl 
HETATM   23  C   UNL     1      -8.487   7.952  68.909  1.00  0.00    -0.128 A  
HETATM   24  C   UNL     1     -10.774   8.302  70.478  1.00  0.00    -0.238 A  
HETATM   25  C   UNL     1      -9.155   6.843  69.440  1.00  0.00    -0.141 A  
HETATM   26  C   UNL     1     -10.109   9.410  69.942  1.00  0.00    -0.243 A  
HETATM   27  C   UNL     1     -10.292   7.022  70.224  1.00  0.00    -0.203 A  
ENDBRANCH  20  21
ENDBRANCH  11  20
ENDBRANCH   6   9
TORSDOF 3
ENDMDL
MODEL       77
REMARK 921   NORMALIZED FREE ENERGY PREDICTED BY IDOCK:   -5.59 KCAL/MOL
REMARK 922        TOTAL FREE ENERGY PREDICTED BY IDOCK:   -7.34 KCAL/MOL
REMARK 923 INTER-LIGAND FREE ENERGY PREDICTED BY IDOCK:   -6.67 KCAL/MOL
REMARK 924 INTRA-LIGAND FREE ENERGY PREDICTED BY IDOCK:   -0.67 KCAL/MOL
REMARK 927      BINDING AFFINITY PREDICTED BY RF-SCORE:    0.00 PKD
ROOT
HETATM    1  C   UNL     1      -7.670   4.817  64.129  1.00  0.00    -0.079 C  
HETATM    2  N   UNL     1      -8.422   5.535  65.165  1.00  0.00    -0.146 NA 
HETATM    3  C   UNL     1      -9.627   4.763  65.496  1.00  0.00    -0.161 C  
HETATM    4  C   UNL     1     -10.535   5.358  66.570  1.00  0.00    -0.352 C  
HETATM    5  C   UNL     1      -9.915   5.315  67.965  1.00  0.00    -0.202 C  
HETATM    6  C   UNL     1      -9.054   6.544  68.301  1.00  0.00    -0.119 C  
HETATM    7  C   UNL     1      -7.550   5.845  66.308  1.00  0.00    -0.094 C  
HETATM    8  C   UNL     1      -8.099   6.982  67.179  1.00  0.00    -0.118 C  
ENDROOT
BRANCH   6   9
HETATM    9  N   UNL     1      -9.865   7.688  68.791  1.00  0.00    -0.160 N  
HETATM   10  N   UNL     1     -10.042   8.739  67.925  1.00  0.00    -0.195 NA 
HETATM   11  C   UNL     1     -10.785   9.748  68.257  1.00  0.00    -0.233 C  
HETATM   12  O   UNL     1     -10.245   6.727  70.868  1.00  0.00    -0.194 OA 
HETATM   13  C   UNL     1     -11.452   9.850  69.571  1.00  0.00    -0.120 A  
HETATM   14  C   UNL     1     -12.278  10.921  69.933  1.00  0.00    -0.408 A  
HETATM   15  C   UNL     1     -10.408   7.652  70.073  1.00  0.00    -0.223 C  
HETATM   16  C   UNL     1     -12.907  10.927  71.183  1.00  0.00    -0.508 A  
HETATM   17  C   UNL     1     -11.250   8.800  70.464  1.00  0.00    -0.278 A  
HETATM   18  C   UNL     1     -12.701   9.877  72.076  1.00  0.00    -0.456 A  
HETATM   19  C   UNL     1     -11.871   8.816  71.721  1.00  0.00    -0.414 A  
BRANCH  11  20
HETATM   20  C   UNL     1     -10.993  10.821  67.194  1.00  0.00    -0.324 C  
BRANCH  20  21
HETATM   21  C   UNL     1     -10.737  12.250  67.620  1.00  0.00    -0.250 A  
HETATM   22 CL   UNL     1      -9.906  16.626  68.456  1.00  0.00    -0.241 Cl 
HETATM   23  C   UNL     1      -9.530  12.648  68.214  1.00  0.00    -0.203 A  
HETATM   24  C   UNL     1     -11.429  14.590  67.556  1.00  0.00    -0.375 A  
HETATM   25  C   UNL     1      -9.282  13.998  68.487  1.00  0.00    -0.170 A  
HETATM   26  C   UNL     1     -11.679  13.240  67.288  1.00  0.00    -0.424 A  
HETATM   27  C   UNL     1     -10.230  14.963  68.154  1.00  0.00    -0.226 A  
ENDBRANCH  20  21
ENDBRANCH  11  20
ENDBRANCH   6   9
TORSDOF 3
ENDMDL
MODEL       78
REMARK 921   NORMALIZED FREE ENERGY PREDICTED BY IDOCK:   -5.56 KCAL/MOL
REMARK 922        TOTAL FREE ENERGY PREDICTED BY IDOCK:   -7.31 KCAL/MOL
REMARK 923 INTER-LIGAND FREE ENERGY PREDICTED BY IDOCK:   -7.10 KCAL/MOL
REMARK 924 INTRA-LIGAND FREE ENERGY PREDICTED BY IDOCK:   -0.21 KCAL/MOL
REMARK 927      BINDING AFFINITY PREDICTED BY RF-SCORE:    0.00 PKD
ROOT
HETATM    1  C   UNL     1      -8.555  11.017  66.151  1.00  0.00    -0.175 C  
HETATM    2  N   UNL     1      -8.981   9.912  67.018  1.00  0.00    -0.138 NA 
HETATM    3  C   UNL     1      -9.937   9.075  66.281  1.00  0.00    -0.281 C  
HETATM    4  C   UNL     1     -10.488   7.863  67.030  1.00  0.00    -0.419 C  
HETATM    5  C   UNL     1      -9.441   6.773  67.250  1.00  0.00    -0.156 C  
HETATM    6  C   UNL     1      -8.627   6.946  68.543  1.00  0.00    -0.123 C  
HETATM    7  C   UNL     1      -7.811   9.197  67.548  1.00  0.00    -0.100 C  
HETATM    8  C   UNL     1      -8.137   8.379  68.804  1.00  0.00    -0.121 C  
ENDROOT
BRANCH   6   9
HETATM    9  N   UNL     1      -9.326   6.393  69.731  1.00  0.00    -0.146 N  
HETATM   10  N   UNL     1     -10.355   7.140  70.249  1.00  0.00    -0.198 NA 
HETATM   11  C   UNL     1     -11.052   6.700  71.249  1.00  0.00    -0.267 C  
HETATM   12  O   UNL     1      -7.998   4.492  69.819  1.00  0.00    -0.060 OA 
HETATM   13  C   UNL     1     -10.774   5.406  71.906  1.00  0.00    -0.275 A  
HETATM   14  C   UNL     1     -11.534   4.905  72.970  1.00  0.00    -0.327 A  
HETATM   15  C   UNL     1      -8.929   5.167  70.259  1.00  0.00    -0.124 C  
HETATM   16  C   UNL     1     -11.233   3.652  73.514  1.00  0.00    -0.285 A  
HETATM   17  C   UNL     1      -9.712   4.658  71.403  1.00  0.00    -0.246 A  
HETATM   18  C   UNL     1     -10.168   2.907  73.013  1.00  0.00    -0.227 A  
HETATM   19  C   UNL     1      -9.404   3.409  71.961  1.00  0.00    -0.186 A  
BRANCH  11  20
HETATM   20  C   UNL     1     -12.229   7.560  71.692  1.00  0.00    -0.352 C  
BRANCH  20  21
HETATM   21  C   UNL     1     -12.139   9.038  71.378  1.00  0.00    -0.392 A  
HETATM   22 CL   UNL     1     -12.272  13.419  70.226  1.00  0.00    -0.416 Cl 
HETATM   23  C   UNL     1     -11.302   9.537  70.368  1.00  0.00    -0.318 A  
HETATM   24  C   UNL     1     -13.055  11.281  71.672  1.00  0.00    -0.513 A  
HETATM   25  C   UNL     1     -11.333  10.894  70.025  1.00  0.00    -0.386 A  
HETATM   26  C   UNL     1     -13.020   9.927  72.018  1.00  0.00    -0.518 A  
HETATM   27  C   UNL     1     -12.210  11.759  70.675  1.00  0.00    -0.349 A  
ENDBRANCH  20  21
ENDBRANCH  11  20
ENDBRANCH   6   9
TORSDOF 3
ENDMDL
MODEL       79
REMARK 921   NORMALIZED FREE ENERGY PREDICTED BY IDOCK:   -5.55 KCAL/MOL
REMARK 922        TOTAL FREE ENERGY PREDICTED BY IDOCK:   -7.30 KCAL/MOL
REMARK 923 INTER-LIGAND FREE ENERGY PREDICTED BY IDOCK:   -7.06 KCAL/MOL
REMARK 924 INTRA-LIGAND FREE ENERGY PREDICTED BY IDOCK:   -0.24 KCAL/MOL
REMARK 927      BINDING AFFINITY PREDICTED BY RF-SCORE:    0.00 PKD
ROOT
HETATM    1  C   UNL     1     -10.524   8.396  66.815  1.00  0.00    -0.245 C  
HETATM    2  N   UNL     1     -10.326   9.834  67.036  1.00  0.00    -0.238 NA 
HETATM    3  C   UNL     1      -8.917  10.070  67.378  1.00  0.00    -0.131 C  
HETATM    4  C   UNL     1      -8.522  11.522  67.638  1.00  0.00    -0.135 C  
HETATM    5  C   UNL     1      -8.537  12.379  66.374  1.00  0.00     0.076 C  
HETATM    6  C   UNL     1      -9.903  13.019  66.073  1.00  0.00    -0.255 C  
HETATM    7  C   UNL     1     -10.822  10.602  65.885  1.00  0.00     0.040 C  
HETATM    8  C   UNL     1     -11.102  12.070  66.229  1.00  0.00    -0.363 C  
ENDROOT
BRANCH   6   9
HETATM    9  N   UNL     1     -10.116  14.280  66.827  1.00  0.00    -0.259 N  
HETATM   10  N   UNL     1     -10.690  14.172  68.069  1.00  0.00    -0.239 NA 
HETATM   11  C   UNL     1     -10.856  15.220  68.813  1.00  0.00    -0.254 C  
HETATM   12  O   UNL     1      -9.231  15.614  65.146  1.00  0.00     0.041 OA 
HETATM   13  C   UNL     1     -10.477  16.579  68.373  1.00  0.00    -0.307 A  
HETATM   14  C   UNL     1     -10.626  17.717  69.175  1.00  0.00    -0.011 A  
HETATM   15  C   UNL     1      -9.731  15.495  66.266  1.00  0.00    -0.302 C  
HETATM   16  C   UNL     1     -10.206  18.964  68.703  1.00  0.00    -0.371 A  
HETATM   17  C   UNL     1      -9.922  16.697  67.101  1.00  0.00    -0.268 A  
HETATM   18  C   UNL     1      -9.654  19.082  67.428  1.00  0.00    -0.358 A  
HETATM   19  C   UNL     1      -9.514  17.952  66.625  1.00  0.00    -0.303 A  
BRANCH  11  20
HETATM   20  C   UNL     1     -11.418  14.984  70.210  1.00  0.00    -0.308 C  
BRANCH  20  21
HETATM   21  C   UNL     1     -11.985  13.608  70.484  1.00  0.00    -0.353 A  
HETATM   22 CL   UNL     1     -13.413   9.473  71.669  1.00  0.00    -0.453 Cl 
HETATM   23  C   UNL     1     -11.596  12.479  69.747  1.00  0.00    -0.291 A  
HETATM   24  C   UNL     1     -13.274  12.151  71.959  1.00  0.00    -0.496 A  
HETATM   25  C   UNL     1     -12.051  11.204  70.105  1.00  0.00    -0.443 A  
HETATM   26  C   UNL     1     -12.824  13.425  71.598  1.00  0.00    -0.414 A  
HETATM   27  C   UNL     1     -12.885  11.045  71.210  1.00  0.00    -0.425 A  
ENDBRANCH  20  21
ENDBRANCH  11  20
ENDBRANCH   6   9
TORSDOF 3
ENDMDL
MODEL       80
REMARK 921   NORMALIZED FREE ENERGY PREDICTED BY IDOCK:   -5.53 KCAL/MOL
REMARK 922        TOTAL FREE ENERGY PREDICTED BY IDOCK:   -7.27 KCAL/MOL
REMARK 923 INTER-LIGAND FREE ENERGY PREDICTED BY IDOCK:   -6.54 KCAL/MOL
REMARK 924 INTRA-LIGAND FREE ENERGY PREDICTED BY IDOCK:   -0.72 KCAL/MOL
REMARK 927      BINDING AFFINITY PREDICTED BY RF-SCORE:    0.00 PKD
ROOT
HETATM    1  C   UNL     1      -8.950   8.129  70.086  1.00  0.00    -0.146 C  
HETATM    2  N   UNL     1      -8.692   9.508  69.654  1.00  0.00    -0.165 NA 
HETATM    3  C   UNL     1      -7.389   9.933  70.181  1.00  0.00    -0.160 C  
HETATM    4  C   UNL     1      -6.947  11.351  69.824  1.00  0.00     0.033 C  
HETATM    5  C   UNL     1      -6.595  11.510  68.347  1.00  0.00    -0.060 C  
HETATM    6  C   UNL     1      -7.794  11.879  67.458  1.00  0.00    -0.152 C  
HETATM    7  C   UNL     1      -8.839   9.623  68.196  1.00  0.00    -0.119 C  
HETATM    8  C   UNL     1      -9.070  11.069  67.737  1.00  0.00    -0.147 C  
ENDROOT
BRANCH   6   9
HETATM    9  N   UNL     1      -8.074  13.337  67.460  1.00  0.00    -0.174 N  
HETATM   10  N   UNL     1      -9.388  13.717  67.584  1.00  0.00    -0.207 NA 
HETATM   11  C   UNL     1      -9.708  14.971  67.652  1.00  0.00    -0.215 C  
HETATM   12  O   UNL     1      -5.842  13.921  67.213  1.00  0.00    -0.319 OA 
HETATM   13  C   UNL     1      -8.708  16.055  67.570  1.00  0.00    -0.193 A  
HETATM   14  C   UNL     1      -9.036  17.413  67.668  1.00  0.00    -0.233 A  
HETATM   15  C   UNL     1      -7.023  14.244  67.344  1.00  0.00    -0.051 C  
HETATM   16  C   UNL     1      -8.027  18.381  67.621  1.00  0.00    -0.249 A  
HETATM   17  C   UNL     1      -7.377  15.675  67.413  1.00  0.00    -0.235 A  
HETATM   18  C   UNL     1      -6.696  17.999  67.460  1.00  0.00    -0.191 A  
HETATM   19  C   UNL     1      -6.369  16.649  67.352  1.00  0.00    -0.200 A  
BRANCH  11  20
HETATM   20  C   UNL     1     -11.181  15.288  67.881  1.00  0.00    -0.333 C  
BRANCH  20  21
HETATM   21  C   UNL     1     -11.682  15.169  69.305  1.00  0.00    -0.352 A  
HETATM   22 CL   UNL     1     -12.749  14.742  73.689  1.00  0.00    -0.600 Cl 
HETATM   23  C   UNL     1     -12.345  14.024  69.771  1.00  0.00    -0.344 A  
HETATM   24  C   UNL     1     -11.692  16.051  71.581  1.00  0.00    -0.583 A  
HETATM   25  C   UNL     1     -12.689  13.901  71.122  1.00  0.00    -0.441 A  
HETATM   26  C   UNL     1     -11.354  16.176  70.230  1.00  0.00    -0.363 A  
HETATM   27  C   UNL     1     -12.358  14.912  72.021  1.00  0.00    -0.344 A  
ENDBRANCH  20  21
ENDBRANCH  11  20
ENDBRANCH   6   9
TORSDOF 3
ENDMDL
MODEL       81
REMARK 921   NORMALIZED FREE ENERGY PREDICTED BY IDOCK:   -5.48 KCAL/MOL
REMARK 922        TOTAL FREE ENERGY PREDICTED BY IDOCK:   -7.22 KCAL/MOL
REMARK 923 INTER-LIGAND FREE ENERGY PREDICTED BY IDOCK:   -7.65 KCAL/MOL
REMARK 924 INTRA-LIGAND FREE ENERGY PREDICTED BY IDOCK:    0.43 KCAL/MOL
REMARK 927      BINDING AFFINITY PREDICTED BY RF-SCORE:    0.00 PKD
ROOT
HETATM    1  C   UNL     1      -7.507  19.803  69.343  1.00  0.00    -0.104 C  
HETATM    2  N   UNL     1      -8.208  18.734  68.621  1.00  0.00    -0.338 NA 
HETATM    3  C   UNL     1      -9.587  18.654  69.121  1.00  0.00    -0.126 C  
HETATM    4  C   UNL     1     -10.476  17.593  68.475  1.00  0.00    -0.337 C  
HETATM    5  C   UNL     1     -10.838  17.919  67.028  1.00  0.00    -0.107 C  
HETATM    6  C   UNL     1      -9.819  17.398  66.001  1.00  0.00    -0.183 C  
HETATM    7  C   UNL     1      -8.085  18.931  67.169  1.00  0.00    -0.264 C  
HETATM    8  C   UNL     1      -8.349  17.646  66.375  1.00  0.00    -0.288 C  
ENDROOT
BRANCH   6   9
HETATM    9  N   UNL     1     -10.050  15.974  65.646  1.00  0.00    -0.358 N  
HETATM   10  N   UNL     1      -9.309  15.038  66.325  1.00  0.00    -0.301 NA 
HETATM   11  C   UNL     1      -9.494  13.773  66.114  1.00  0.00    -0.159 C  
HETATM   12  O   UNL     1     -11.646  16.473  64.038  1.00  0.00    -1.154 OA 
HETATM   13  C   UNL     1     -10.468  13.261  65.129  1.00  0.00    -0.346 A  
HETATM   14  C   UNL     1     -10.697  11.898  64.909  1.00  0.00    -0.350 A  
HETATM   15  C   UNL     1     -10.986  15.647  64.669  1.00  0.00    -0.325 C  
HETATM   16  C   UNL     1     -11.666  11.491  63.986  1.00  0.00    -0.226 A  
HETATM   17  C   UNL     1     -11.200  14.208  64.416  1.00  0.00    -0.290 A  
HETATM   18  C   UNL     1     -12.394  12.440  63.271  1.00  0.00    -0.497 A  
HETATM   19  C   UNL     1     -12.161  13.798  63.481  1.00  0.00    -0.241 A  
BRANCH  11  20
HETATM   20  C   UNL     1      -8.689  12.812  66.982  1.00  0.00    -0.197 C  
BRANCH  20  21
HETATM   21  C   UNL     1      -9.226  11.403  67.103  1.00  0.00    -0.170 A  
HETATM   22 CL   UNL     1     -10.659   7.175  67.885  1.00  0.00    -0.265 Cl 
HETATM   23  C   UNL     1      -8.607  10.310  66.477  1.00  0.00    -0.136 A  
HETATM   24  C   UNL     1     -10.748   9.850  68.214  1.00  0.00    -0.276 A  
HETATM   25  C   UNL     1      -9.061   9.006  66.707  1.00  0.00    -0.178 A  
HETATM   26  C   UNL     1     -10.297  11.153  67.979  1.00  0.00    -0.208 A  
HETATM   27  C   UNL     1     -10.127   8.782  67.576  1.00  0.00    -0.222 A  
ENDBRANCH  20  21
ENDBRANCH  11  20
ENDBRANCH   6   9
TORSDOF 3
ENDMDL
MODEL       82
REMARK 921   NORMALIZED FREE ENERGY PREDICTED BY IDOCK:   -5.47 KCAL/MOL
REMARK 922        TOTAL FREE ENERGY PREDICTED BY IDOCK:   -7.20 KCAL/MOL
REMARK 923 INTER-LIGAND FREE ENERGY PREDICTED BY IDOCK:   -6.10 KCAL/MOL
REMARK 924 INTRA-LIGAND FREE ENERGY PREDICTED BY IDOCK:   -1.10 KCAL/MOL
REMARK 927      BINDING AFFINITY PREDICTED BY RF-SCORE:    0.00 PKD
ROOT
HETATM    1  C   UNL     1     -12.529  13.201  63.118  1.00  0.00    -0.018 C  
HETATM    2  N   UNL     1     -11.657  12.997  64.281  1.00  0.00    -0.362 NA 
HETATM    3  C   UNL     1     -12.377  13.414  65.491  1.00  0.00    -0.480 C  
HETATM    4  C   UNL     1     -11.621  13.266  66.810  1.00  0.00    -0.408 C  
HETATM    5  C   UNL     1     -11.424  11.809  67.222  1.00  0.00    -0.373 C  
HETATM    6  C   UNL     1     -10.146  11.170  66.654  1.00  0.00    -0.217 C  
HETATM    7  C   UNL     1     -11.151  11.616  64.306  1.00  0.00    -0.338 C  
HETATM    8  C   UNL     1      -9.891  11.464  65.167  1.00  0.00    -0.302 C  
ENDROOT
BRANCH   6   9
HETATM    9  N   UNL     1      -8.947  11.474  67.474  1.00  0.00    -0.156 N  
HETATM   10  N   UNL     1      -8.340  12.687  67.260  1.00  0.00    -0.184 NA 
HETATM   11  C   UNL     1      -7.322  13.051  67.976  1.00  0.00    -0.123 C  
HETATM   12  O   UNL     1      -9.016   9.448  68.604  1.00  0.00    -0.130 OA 
HETATM   13  C   UNL     1      -6.739  12.193  69.028  1.00  0.00    -0.103 A  
HETATM   14  C   UNL     1      -5.657  12.583  69.827  1.00  0.00    -0.102 A  
HETATM   15  C   UNL     1      -8.495  10.547  68.411  1.00  0.00    -0.128 C  
HETATM   16  C   UNL     1      -5.186  11.729  70.830  1.00  0.00    -0.138 A  
HETATM   17  C   UNL     1      -7.333  10.949  69.228  1.00  0.00    -0.125 A  
HETATM   18  C   UNL     1      -5.779  10.483  71.026  1.00  0.00    -0.041 A  
HETATM   19  C   UNL     1      -6.849  10.089  70.225  1.00  0.00    -0.147 A  
BRANCH  11  20
HETATM   20  C   UNL     1      -6.777  14.451  67.724  1.00  0.00    -0.191 C  
BRANCH  20  21
HETATM   21  C   UNL     1      -7.791  15.574  67.695  1.00  0.00    -0.174 A  
HETATM   22 CL   UNL     1     -10.477  19.222  67.563  1.00  0.00    -0.526 Cl 
HETATM   23  C   UNL     1      -8.435  16.029  68.855  1.00  0.00    -0.232 A  
HETATM   24  C   UNL     1      -8.832  17.398  66.450  1.00  0.00    -0.273 A  
HETATM   25  C   UNL     1      -9.278  17.147  68.809  1.00  0.00    -0.249 A  
HETATM   26  C   UNL     1      -7.995  16.278  66.495  1.00  0.00    -0.326 A  
HETATM   27  C   UNL     1      -9.470  17.827  67.609  1.00  0.00    -0.255 A  
ENDBRANCH  20  21
ENDBRANCH  11  20
ENDBRANCH   6   9
TORSDOF 3
ENDMDL
MODEL       83
REMARK 921   NORMALIZED FREE ENERGY PREDICTED BY IDOCK:   -5.46 KCAL/MOL
REMARK 922        TOTAL FREE ENERGY PREDICTED BY IDOCK:   -7.19 KCAL/MOL
REMARK 923 INTER-LIGAND FREE ENERGY PREDICTED BY IDOCK:   -6.25 KCAL/MOL
REMARK 924 INTRA-LIGAND FREE ENERGY PREDICTED BY IDOCK:   -0.94 KCAL/MOL
REMARK 927      BINDING AFFINITY PREDICTED BY RF-SCORE:    0.00 PKD
ROOT
HETATM    1  C   UNL     1      -8.171   9.858  65.310  1.00  0.00    -0.145 C  
HETATM    2  N   UNL     1      -8.583   8.852  66.297  1.00  0.00    -0.127 NA 
HETATM    3  C   UNL     1     -10.045   8.890  66.429  1.00  0.00    -0.263 C  
HETATM    4  C   UNL     1     -10.658   7.899  67.416  1.00  0.00    -0.342 C  
HETATM    5  C   UNL     1     -10.566   6.450  66.941  1.00  0.00    -0.379 C  
HETATM    6  C   UNL     1      -9.265   5.742  67.353  1.00  0.00    -0.109 C  
HETATM    7  C   UNL     1      -8.025   7.536  65.951  1.00  0.00    -0.117 C  
HETATM    8  C   UNL     1      -7.990   6.576  67.146  1.00  0.00    -0.112 C  
ENDROOT
BRANCH   6   9
HETATM    9  N   UNL     1      -9.330   5.195  68.731  1.00  0.00    -0.119 N  
HETATM   10  N   UNL     1      -9.313   6.102  69.761  1.00  0.00    -0.150 NA 
HETATM   11  C   UNL     1      -9.425   5.707  70.991  1.00  0.00    -0.166 C  
HETATM   12  O   UNL     1      -9.406   2.988  68.016  1.00  0.00    -0.190 OA 
HETATM   13  C   UNL     1      -9.542   4.282  71.363  1.00  0.00    -0.239 A  
HETATM   14  C   UNL     1      -9.690   3.842  72.684  1.00  0.00    -0.198 A  
HETATM   15  C   UNL     1      -9.408   3.818  68.926  1.00  0.00    -0.166 C  
HETATM   16  C   UNL     1      -9.835   2.477  72.954  1.00  0.00    -0.182 A  
HETATM   17  C   UNL     1      -9.529   3.356  70.323  1.00  0.00    -0.247 A  
HETATM   18  C   UNL     1      -9.817   1.551  71.912  1.00  0.00    -0.202 A  
HETATM   19  C   UNL     1      -9.661   1.987  70.598  1.00  0.00    -0.141 A  
BRANCH  11  20
HETATM   20  C   UNL     1      -9.488   6.797  72.055  1.00  0.00    -0.144 C  
BRANCH  20  21
HETATM   21  C   UNL     1     -10.556   7.853  71.874  1.00  0.00    -0.285 A  
HETATM   22 CL   UNL     1     -13.501  11.287  71.597  1.00  0.00    -0.253 Cl 
HETATM   23  C   UNL     1     -11.782   7.800  72.554  1.00  0.00    -0.393 A  
HETATM   24  C   UNL     1     -11.175  10.052  71.014  1.00  0.00    -0.387 A  
HETATM   25  C   UNL     1     -12.698   8.854  72.454  1.00  0.00    -0.436 A  
HETATM   26  C   UNL     1     -10.263   8.997  71.110  1.00  0.00    -0.363 A  
HETATM   27  C   UNL     1     -12.390   9.976  71.688  1.00  0.00    -0.394 A  
ENDBRANCH  20  21
ENDBRANCH  11  20
ENDBRANCH   6   9
TORSDOF 3
ENDMDL
MODEL       84
REMARK 921   NORMALIZED FREE ENERGY PREDICTED BY IDOCK:   -5.44 KCAL/MOL
REMARK 922        TOTAL FREE ENERGY PREDICTED BY IDOCK:   -7.17 KCAL/MOL
REMARK 923 INTER-LIGAND FREE ENERGY PREDICTED BY IDOCK:   -6.43 KCAL/MOL
REMARK 924 INTRA-LIGAND FREE ENERGY PREDICTED BY IDOCK:   -0.74 KCAL/MOL
REMARK 927      BINDING AFFINITY PREDICTED BY RF-SCORE:    0.00 PKD
ROOT
HETATM    1  C   UNL     1     -10.858  19.496  67.675  1.00  0.00    -0.316 C  
HETATM    2  N   UNL     1     -10.237  18.177  67.502  1.00  0.00    -0.353 NA 
HETATM    3  C   UNL     1      -9.322  18.232  66.355  1.00  0.00    -0.273 C  
HETATM    4  C   UNL     1      -8.575  16.941  66.027  1.00  0.00    -0.194 C  
HETATM    5  C   UNL     1      -7.519  16.582  67.071  1.00  0.00    -0.239 C  
HETATM    6  C   UNL     1      -8.059  15.733  68.234  1.00  0.00    -0.142 C  
HETATM    7  C   UNL     1      -9.625  17.730  68.763  1.00  0.00    -0.290 C  
HETATM    8  C   UNL     1      -9.402  16.214  68.807  1.00  0.00    -0.229 C  
ENDROOT
BRANCH   6   9
HETATM    9  N   UNL     1      -8.103  14.286  67.907  1.00  0.00    -0.137 N  
HETATM   10  N   UNL     1      -9.330  13.673  67.967  1.00  0.00    -0.202 NA 
HETATM   11  C   UNL     1      -9.461  12.425  67.640  1.00  0.00    -0.190 C  
HETATM   12  O   UNL     1      -5.820  14.149  67.512  1.00  0.00    -0.343 OA 
HETATM   13  C   UNL     1      -8.320  11.587  67.219  1.00  0.00    -0.154 A  
HETATM   14  C   UNL     1      -8.450  10.246  66.838  1.00  0.00    -0.126 A  
HETATM   15  C   UNL     1      -6.932  13.620  67.554  1.00  0.00    -0.143 C  
HETATM   16  C   UNL     1      -7.327   9.528  66.413  1.00  0.00    -0.093 A  
HETATM   17  C   UNL     1      -7.068  12.197  67.186  1.00  0.00    -0.120 A  
HETATM   18  C   UNL     1      -6.074  10.139  66.384  1.00  0.00    -0.070 A  
HETATM   19  C   UNL     1      -5.941  11.470  66.773  1.00  0.00    -0.139 A  
BRANCH  11  20
HETATM   20  C   UNL     1     -10.877  11.862  67.652  1.00  0.00    -0.271 C  
BRANCH  20  21
HETATM   21  C   UNL     1     -11.320  11.181  68.929  1.00  0.00    -0.344 A  
HETATM   22 CL   UNL     1     -12.947   8.914  72.500  1.00  0.00    -0.462 Cl 
HETATM   23  C   UNL     1     -12.125  11.827  69.879  1.00  0.00    -0.359 A  
HETATM   24  C   UNL     1     -11.527   9.118  70.217  1.00  0.00    -0.174 A  
HETATM   25  C   UNL     1     -12.613  11.130  70.991  1.00  0.00    -0.503 A  
HETATM   26  C   UNL     1     -11.034   9.816  69.110  1.00  0.00    -0.205 A  
HETATM   27  C   UNL     1     -12.315   9.778  71.153  1.00  0.00    -0.359 A  
ENDBRANCH  20  21
ENDBRANCH  11  20
ENDBRANCH   6   9
TORSDOF 3
ENDMDL
MODEL       85
REMARK 921   NORMALIZED FREE ENERGY PREDICTED BY IDOCK:   -5.44 KCAL/MOL
REMARK 922        TOTAL FREE ENERGY PREDICTED BY IDOCK:   -7.16 KCAL/MOL
REMARK 923 INTER-LIGAND FREE ENERGY PREDICTED BY IDOCK:   -6.04 KCAL/MOL
REMARK 924 INTRA-LIGAND FREE ENERGY PREDICTED BY IDOCK:   -1.13 KCAL/MOL
REMARK 927      BINDING AFFINITY PREDICTED BY RF-SCORE:    0.00 PKD
ROOT
HETATM    1  C   UNL     1     -11.393  14.918  64.745  1.00  0.00    -0.397 C  
HETATM    2  N   UNL     1     -11.058  14.081  65.904  1.00  0.00    -0.299 NA 
HETATM    3  C   UNL     1     -11.149  14.900  67.120  1.00  0.00    -0.332 C  
HETATM    4  C   UNL     1     -10.839  14.188  68.436  1.00  0.00    -0.266 C  
HETATM    5  C   UNL     1     -11.910  13.175  68.832  1.00  0.00    -0.361 C  
HETATM    6  C   UNL     1     -11.680  11.769  68.253  1.00  0.00    -0.310 C  
HETATM    7  C   UNL     1     -11.885  12.865  65.913  1.00  0.00    -0.424 C  
HETATM    8  C   UNL     1     -11.281  11.745  66.770  1.00  0.00    -0.388 C  
ENDROOT
BRANCH   6   9
HETATM    9  N   UNL     1     -10.740  10.965  69.075  1.00  0.00    -0.211 N  
HETATM   10  N   UNL     1      -9.406  11.063  68.764  1.00  0.00    -0.192 NA 
HETATM   11  C   UNL     1      -8.517  10.438  69.471  1.00  0.00    -0.100 C  
HETATM   12  O   UNL     1     -12.422  10.055  70.387  1.00  0.00    -0.216 OA 
HETATM   13  C   UNL     1      -8.871   9.571  70.614  1.00  0.00    -0.208 A  
HETATM   14  C   UNL     1      -7.921   8.911  71.403  1.00  0.00    -0.150 A  
HETATM   15  C   UNL     1     -11.229  10.168  70.106  1.00  0.00    -0.310 C  
HETATM   16  C   UNL     1      -8.333   8.140  72.494  1.00  0.00    -0.230 A  
HETATM   17  C   UNL     1     -10.226   9.446  70.914  1.00  0.00    -0.373 A  
HETATM   18  C   UNL     1      -9.689   8.012  72.790  1.00  0.00    -0.348 A  
HETATM   19  C   UNL     1     -10.637   8.660  72.000  1.00  0.00    -0.421 A  
BRANCH  11  20
HETATM   20  C   UNL     1      -7.058  10.682  69.103  1.00  0.00    -0.095 C  
BRANCH  20  21
HETATM   21  C   UNL     1      -6.543   9.962  67.876  1.00  0.00    -0.064 A  
HETATM   22 CL   UNL     1      -5.345   7.996  63.972  1.00  0.00    -0.041 Cl 
HETATM   23  C   UNL     1      -6.743   8.587  67.677  1.00  0.00    -0.066 A  
HETATM   24  C   UNL     1      -5.586  10.105  65.635  1.00  0.00    -0.073 A  
HETATM   25  C   UNL     1      -6.358   7.978  66.477  1.00  0.00    -0.050 A  
HETATM   26  C   UNL     1      -5.966  10.712  66.836  1.00  0.00    -0.063 A  
HETATM   27  C   UNL     1      -5.784   8.740  65.460  1.00  0.00    -0.047 A  
ENDBRANCH  20  21
ENDBRANCH  11  20
ENDBRANCH   6   9
TORSDOF 3
ENDMDL
MODEL       86
REMARK 921   NORMALIZED FREE ENERGY PREDICTED BY IDOCK:   -5.41 KCAL/MOL
REMARK 922        TOTAL FREE ENERGY PREDICTED BY IDOCK:   -7.13 KCAL/MOL
REMARK 923 INTER-LIGAND FREE ENERGY PREDICTED BY IDOCK:   -6.61 KCAL/MOL
REMARK 924 INTRA-LIGAND FREE ENERGY PREDICTED BY IDOCK:   -0.52 KCAL/MOL
REMARK 927      BINDING AFFINITY PREDICTED BY RF-SCORE:    0.00 PKD
ROOT
HETATM    1  C   UNL     1     -14.166   8.882  72.325  1.00  0.00    -0.397 C  
HETATM    2  N   UNL     1     -13.104   8.617  71.347  1.00  0.00    -0.286 NA 
HETATM    3  C   UNL     1     -12.025   9.594  71.544  1.00  0.00    -0.406 C  
HETATM    4  C   UNL     1     -10.822   9.465  70.612  1.00  0.00    -0.346 C  
HETATM    5  C   UNL     1      -9.981   8.222  70.893  1.00  0.00    -0.223 C  
HETATM    6  C   UNL     1     -10.447   6.971  70.130  1.00  0.00    -0.214 C  
HETATM    7  C   UNL     1     -12.686   7.208  71.415  1.00  0.00    -0.391 C  
HETATM    8  C   UNL     1     -11.966   6.743  70.143  1.00  0.00    -0.244 C  
ENDROOT
BRANCH   6   9
HETATM    9  N   UNL     1      -9.908   6.917  68.747  1.00  0.00    -0.147 N  
HETATM   10  N   UNL     1      -9.595   8.116  68.156  1.00  0.00    -0.147 NA 
HETATM   11  C   UNL     1      -9.066   8.149  66.973  1.00  0.00    -0.143 C  
HETATM   12  O   UNL     1     -10.032   4.603  68.625  1.00  0.00    -0.144 OA 
HETATM   13  C   UNL     1      -8.799   6.930  66.183  1.00  0.00    -0.163 A  
HETATM   14  C   UNL     1      -8.205   6.949  64.916  1.00  0.00    -0.074 A  
HETATM   15  C   UNL     1      -9.739   5.686  68.118  1.00  0.00    -0.127 C  
HETATM   16  C   UNL     1      -7.948   5.747  64.247  1.00  0.00    -0.125 A  
HETATM   17  C   UNL     1      -9.144   5.713  66.767  1.00  0.00    -0.120 A  
HETATM   18  C   UNL     1      -8.297   4.531  64.830  1.00  0.00    -0.121 A  
HETATM   19  C   UNL     1      -8.898   4.511  66.087  1.00  0.00    -0.118 A  
BRANCH  11  20
HETATM   20  C   UNL     1      -8.670   9.522  66.441  1.00  0.00    -0.149 C  
BRANCH  20  21
HETATM   21  C   UNL     1      -9.800  10.487  66.160  1.00  0.00    -0.271 A  
HETATM   22 CL   UNL     1     -12.870  13.703  65.278  1.00  0.00    -0.480 Cl 
HETATM   23  C   UNL     1     -10.634  10.979  67.177  1.00  0.00    -0.294 A  
HETATM   24  C   UNL     1     -10.893  12.003  64.589  1.00  0.00    -0.357 A  
HETATM   25  C   UNL     1     -11.593  11.960  66.899  1.00  0.00    -0.358 A  
HETATM   26  C   UNL     1      -9.939  11.019  64.866  1.00  0.00    -0.343 A  
HETATM   27  C   UNL     1     -11.716  12.470  65.608  1.00  0.00    -0.423 A  
ENDBRANCH  20  21
ENDBRANCH  11  20
ENDBRANCH   6   9
TORSDOF 3
ENDMDL
MODEL       87
REMARK 921   NORMALIZED FREE ENERGY PREDICTED BY IDOCK:   -5.37 KCAL/MOL
REMARK 922        TOTAL FREE ENERGY PREDICTED BY IDOCK:   -7.09 KCAL/MOL
REMARK 923 INTER-LIGAND FREE ENERGY PREDICTED BY IDOCK:   -6.00 KCAL/MOL
REMARK 924 INTRA-LIGAND FREE ENERGY PREDICTED BY IDOCK:   -1.09 KCAL/MOL
REMARK 927      BINDING AFFINITY PREDICTED BY RF-SCORE:    0.00 PKD
ROOT
HETATM    1  C   UNL     1     -10.856   7.256  73.325  1.00  0.00    -0.358 C  
HETATM    2  N   UNL     1     -10.338   7.000  71.975  1.00  0.00    -0.198 NA 
HETATM    3  C   UNL     1      -9.055   6.293  72.088  1.00  0.00    -0.141 C  
HETATM    4  C   UNL     1      -8.367   5.934  70.772  1.00  0.00    -0.125 C  
HETATM    5  C   UNL     1      -9.098   4.840  69.997  1.00  0.00    -0.155 C  
HETATM    6  C   UNL     1     -10.184   5.371  69.047  1.00  0.00    -0.221 C  
HETATM    7  C   UNL     1     -11.353   6.316  71.159  1.00  0.00    -0.303 C  
HETATM    8  C   UNL     1     -11.091   6.453  69.654  1.00  0.00    -0.465 C  
ENDROOT
BRANCH   6   9
HETATM    9  N   UNL     1      -9.630   5.807  67.740  1.00  0.00    -0.112 N  
HETATM   10  N   UNL     1      -9.339   7.142  67.604  1.00  0.00    -0.127 NA 
HETATM   11  C   UNL     1      -8.800   7.591  66.514  1.00  0.00    -0.148 C  
HETATM   12  O   UNL     1      -9.697   3.675  66.826  1.00  0.00    -0.189 OA 
HETATM   13  C   UNL     1      -8.496   6.724  65.358  1.00  0.00    -0.102 A  
HETATM   14  C   UNL     1      -7.889   7.190  64.185  1.00  0.00    -0.113 A  
HETATM   15  C   UNL     1      -9.426   4.872  66.728  1.00  0.00    -0.148 C  
HETATM   16  C   UNL     1      -7.597   6.298  63.148  1.00  0.00    -0.085 A  
HETATM   17  C   UNL     1      -8.818   5.374  65.480  1.00  0.00    -0.153 A  
HETATM   18  C   UNL     1      -7.923   4.949  63.270  1.00  0.00    -0.089 A  
HETATM   19  C   UNL     1      -8.536   4.485  64.433  1.00  0.00    -0.138 A  
BRANCH  11  20
HETATM   20  C   UNL     1      -8.431   9.070  66.495  1.00  0.00    -0.124 C  
BRANCH  20  21
HETATM   21  C   UNL     1      -9.548  10.039  66.174  1.00  0.00    -0.265 A  
HETATM   22 CL   UNL     1     -12.572  13.249  65.130  1.00  0.00    -0.517 Cl 
HETATM   23  C   UNL     1     -10.325  10.642  67.175  1.00  0.00    -0.275 A  
HETATM   24  C   UNL     1     -10.668  11.439  64.518  1.00  0.00    -0.391 A  
HETATM   25  C   UNL     1     -11.270  11.621  66.849  1.00  0.00    -0.376 A  
HETATM   26  C   UNL     1      -9.728  10.457  64.844  1.00  0.00    -0.372 A  
HETATM   27  C   UNL     1     -11.436  12.018  65.523  1.00  0.00    -0.313 A  
ENDBRANCH  20  21
ENDBRANCH  11  20
ENDBRANCH   6   9
TORSDOF 3
ENDMDL
MODEL       88
REMARK 921   NORMALIZED FREE ENERGY PREDICTED BY IDOCK:   -5.37 KCAL/MOL
REMARK 922        TOTAL FREE ENERGY PREDICTED BY IDOCK:   -7.08 KCAL/MOL
REMARK 923 INTER-LIGAND FREE ENERGY PREDICTED BY IDOCK:   -6.62 KCAL/MOL
REMARK 924 INTRA-LIGAND FREE ENERGY PREDICTED BY IDOCK:   -0.46 KCAL/MOL
REMARK 927      BINDING AFFINITY PREDICTED BY RF-SCORE:    0.00 PKD
ROOT
HETATM    1  C   UNL     1      -8.755  10.047  62.604  1.00  0.00    -0.210 C  
HETATM    2  N   UNL     1      -8.963  10.002  64.056  1.00  0.00    -0.220 NA 
HETATM    3  C   UNL     1      -7.655   9.929  64.720  1.00  0.00    -0.139 C  
HETATM    4  C   UNL     1      -7.676   9.881  66.246  1.00  0.00    -0.105 C  
HETATM    5  C   UNL     1      -8.114  11.201  66.877  1.00  0.00    -0.150 C  
HETATM    6  C   UNL     1      -9.635  11.326  67.064  1.00  0.00    -0.178 C  
HETATM    7  C   UNL     1      -9.814  11.122  64.486  1.00  0.00    -0.280 C  
HETATM    8  C   UNL     1     -10.467  10.878  65.852  1.00  0.00    -0.285 C  
ENDROOT
BRANCH   6   9
HETATM    9  N   UNL     1     -10.108  10.673  68.311  1.00  0.00    -0.153 N  
HETATM   10  N   UNL     1      -9.257   9.772  68.901  1.00  0.00    -0.149 NA 
HETATM   11  C   UNL     1      -9.573   9.203  70.022  1.00  0.00    -0.197 C  
HETATM   12  O   UNL     1     -12.145  11.784  68.302  1.00  0.00    -0.525 OA 
HETATM   13  C   UNL     1     -10.855   9.454  70.711  1.00  0.00    -0.372 A  
HETATM   14  C   UNL     1     -11.199   8.868  71.935  1.00  0.00    -0.447 A  
HETATM   15  C   UNL     1     -11.362  10.992  68.827  1.00  0.00    -0.283 C  
HETATM   16  C   UNL     1     -12.416   9.187  72.545  1.00  0.00    -0.260 A  
HETATM   17  C   UNL     1     -11.735  10.345  70.100  1.00  0.00    -0.394 A  
HETATM   18  C   UNL     1     -13.297  10.075  71.931  1.00  0.00    -0.516 A  
HETATM   19  C   UNL     1     -12.961  10.652  70.708  1.00  0.00    -0.396 A  
BRANCH  11  20
HETATM   20  C   UNL     1      -8.523   8.288  70.643  1.00  0.00    -0.131 C  
BRANCH  20  21
HETATM   21  C   UNL     1      -8.916   6.838  70.823  1.00  0.00    -0.151 A  
HETATM   22 CL   UNL     1      -9.647   2.396  71.344  1.00  0.00    -0.217 Cl 
HETATM   23  C   UNL     1      -9.466   6.077  69.781  1.00  0.00    -0.173 A  
HETATM   24  C   UNL     1      -8.830   4.820  72.195  1.00  0.00    -0.135 A  
HETATM   25  C   UNL     1      -9.707   4.708  69.949  1.00  0.00    -0.279 A  
HETATM   26  C   UNL     1      -8.594   6.189  72.029  1.00  0.00    -0.132 A  
HETATM   27  C   UNL     1      -9.385   4.086  71.153  1.00  0.00    -0.146 A  
ENDBRANCH  20  21
ENDBRANCH  11  20
ENDBRANCH   6   9
TORSDOF 3
ENDMDL
MODEL       89
REMARK 921   NORMALIZED FREE ENERGY PREDICTED BY IDOCK:   -5.35 KCAL/MOL
REMARK 922        TOTAL FREE ENERGY PREDICTED BY IDOCK:   -7.06 KCAL/MOL
REMARK 923 INTER-LIGAND FREE ENERGY PREDICTED BY IDOCK:   -6.67 KCAL/MOL
REMARK 924 INTRA-LIGAND FREE ENERGY PREDICTED BY IDOCK:   -0.39 KCAL/MOL
REMARK 927      BINDING AFFINITY PREDICTED BY RF-SCORE:    0.00 PKD
ROOT
HETATM    1  C   UNL     1      -7.207  20.022  68.816  1.00  0.00    -0.213 C  
HETATM    2  N   UNL     1      -7.933  18.884  68.238  1.00  0.00    -0.299 NA 
HETATM    3  C   UNL     1      -9.321  18.917  68.716  1.00  0.00    -0.336 C  
HETATM    4  C   UNL     1     -10.235  17.804  68.208  1.00  0.00    -0.382 C  
HETATM    5  C   UNL     1     -10.563  17.934  66.722  1.00  0.00    -0.253 C  
HETATM    6  C   UNL     1      -9.546  17.243  65.798  1.00  0.00     0.066 C  
HETATM    7  C   UNL     1      -7.781  18.871  66.775  1.00  0.00    -0.240 C  
HETATM    8  C   UNL     1      -8.075  17.496  66.163  1.00  0.00    -0.244 C  
ENDROOT
BRANCH   6   9
HETATM    9  N   UNL     1      -9.818  15.791  65.642  1.00  0.00    -0.336 N  
HETATM   10  N   UNL     1      -9.094  14.935  66.435  1.00  0.00    -0.278 NA 
HETATM   11  C   UNL     1      -9.314  13.658  66.399  1.00  0.00    -0.186 C  
HETATM   12  O   UNL     1     -11.422  16.112  63.996  1.00  0.00    -0.746 OA 
HETATM   13  C   UNL     1     -10.314  13.046  65.501  1.00  0.00    -0.304 A  
HETATM   14  C   UNL     1     -10.581  11.672  65.470  1.00  0.00    -0.329 A  
HETATM   15  C   UNL     1     -10.776  15.361  64.727  1.00  0.00    -0.314 C  
HETATM   16  C   UNL     1     -11.572  11.171  64.620  1.00  0.00     0.318 A  
HETATM   17  C   UNL     1     -11.030  13.907  64.673  1.00  0.00    -0.406 A  
HETATM   18  C   UNL     1     -12.285  12.034  63.789  1.00  0.00    -0.600 A  
HETATM   19  C   UNL     1     -12.013  13.401  63.811  1.00  0.00    -0.517 A  
BRANCH  11  20
HETATM   20  C   UNL     1      -8.523  12.802  67.381  1.00  0.00    -0.191 C  
BRANCH  20  21
HETATM   21  C   UNL     1      -7.730  13.545  68.435  1.00  0.00    -0.135 A  
HETATM   22 CL   UNL     1      -5.222  16.050  71.259  1.00  0.00    -0.102 Cl 
HETATM   23  C   UNL     1      -6.519  13.052  68.944  1.00  0.00    -0.094 A  
HETATM   24  C   UNL     1      -7.376  15.603  69.699  1.00  0.00    -0.144 A  
HETATM   25  C   UNL     1      -5.753  13.820  69.829  1.00  0.00    -0.108 A  
HETATM   26  C   UNL     1      -8.143  14.833  68.819  1.00  0.00    -0.158 A  
HETATM   27  C   UNL     1      -6.183  15.093  70.200  1.00  0.00    -0.140 A  
ENDBRANCH  20  21
ENDBRANCH  11  20
ENDBRANCH   6   9
TORSDOF 3
ENDMDL
MODEL       90
REMARK 921   NORMALIZED FREE ENERGY PREDICTED BY IDOCK:   -5.33 KCAL/MOL
REMARK 922        TOTAL FREE ENERGY PREDICTED BY IDOCK:   -7.04 KCAL/MOL
REMARK 923 INTER-LIGAND FREE ENERGY PREDICTED BY IDOCK:   -6.39 KCAL/MOL
REMARK 924 INTRA-LIGAND FREE ENERGY PREDICTED BY IDOCK:   -0.64 KCAL/MOL
REMARK 927      BINDING AFFINITY PREDICTED BY RF-SCORE:    0.00 PKD
ROOT
HETATM    1  C   UNL     1     -12.314  12.468  65.192  1.00  0.00    -0.429 C  
HETATM    2  N   UNL     1     -11.402  13.476  65.748  1.00  0.00    -0.303 NA 
HETATM    3  C   UNL     1     -10.795  14.226  64.641  1.00  0.00    -0.368 C  
HETATM    4  C   UNL     1      -9.816  15.331  65.032  1.00  0.00    -0.035 C  
HETATM    5  C   UNL     1     -10.499  16.525  65.693  1.00  0.00    -0.341 C  
HETATM    6  C   UNL     1     -10.643  16.393  67.218  1.00  0.00    -0.293 C  
HETATM    7  C   UNL     1     -12.099  14.301  66.747  1.00  0.00    -0.417 C  
HETATM    8  C   UNL     1     -11.133  15.018  67.698  1.00  0.00    -0.317 C  
ENDROOT
BRANCH   6   9
HETATM    9  N   UNL     1      -9.414  16.807  67.942  1.00  0.00    -0.228 N  
HETATM   10  N   UNL     1      -8.670  15.809  68.522  1.00  0.00    -0.176 NA 
HETATM   11  C   UNL     1      -7.554  16.082  69.121  1.00  0.00    -0.225 C  
HETATM   12  O   UNL     1      -9.728  19.063  67.501  1.00  0.00    -0.302 OA 
HETATM   13  C   UNL     1      -7.031  17.458  69.247  1.00  0.00    -0.175 A  
HETATM   14  C   UNL     1      -5.815  17.766  69.868  1.00  0.00    -0.240 A  
HETATM   15  C   UNL     1      -9.064  18.154  67.999  1.00  0.00    -0.283 C  
HETATM   16  C   UNL     1      -5.368  19.091  69.912  1.00  0.00    -0.223 A  
HETATM   17  C   UNL     1      -7.798  18.477  68.686  1.00  0.00    -0.338 A  
HETATM   18  C   UNL     1      -6.138  20.109  69.354  1.00  0.00    -0.365 A  
HETATM   19  C   UNL     1      -7.354  19.806  68.744  1.00  0.00    -0.339 A  
BRANCH  11  20
HETATM   20  C   UNL     1      -6.757  14.897  69.653  1.00  0.00    -0.172 C  
BRANCH  20  21
HETATM   21  C   UNL     1      -6.764  13.645  68.803  1.00  0.00    -0.104 A  
HETATM   22 CL   UNL     1      -6.732  10.166  65.898  1.00  0.00    -0.099 Cl 
HETATM   23  C   UNL     1      -7.947  12.949  68.507  1.00  0.00    -0.095 A  
HETATM   24  C   UNL     1      -5.560  12.159  67.286  1.00  0.00    -0.135 A  
HETATM   25  C   UNL     1      -7.932  11.865  67.622  1.00  0.00    -0.146 A  
HETATM   26  C   UNL     1      -5.574  13.239  68.175  1.00  0.00    -0.100 A  
HETATM   27  C   UNL     1      -6.741  11.476  67.014  1.00  0.00    -0.143 A  
ENDBRANCH  20  21
ENDBRANCH  11  20
ENDBRANCH   6   9
TORSDOF 3
ENDMDL
MODEL       91
REMARK 921   NORMALIZED FREE ENERGY PREDICTED BY IDOCK:   -5.27 KCAL/MOL
REMARK 922        TOTAL FREE ENERGY PREDICTED BY IDOCK:   -6.96 KCAL/MOL
REMARK 923 INTER-LIGAND FREE ENERGY PREDICTED BY IDOCK:   -5.89 KCAL/MOL
REMARK 924 INTRA-LIGAND FREE ENERGY PREDICTED BY IDOCK:   -1.07 KCAL/MOL
REMARK 927      BINDING AFFINITY PREDICTED BY RF-SCORE:    0.00 PKD
ROOT
HETATM    1  C   UNL     1     -12.379  12.865  65.284  1.00  0.00    -0.490 C  
HETATM    2  N   UNL     1     -11.572  11.989  66.142  1.00  0.00    -0.463 NA 
HETATM    3  C   UNL     1     -10.583  11.293  65.310  1.00  0.00    -0.261 C  
HETATM    4  C   UNL     1      -9.643  10.336  66.040  1.00  0.00    -0.259 C  
HETATM    5  C   UNL     1      -8.637  11.057  66.935  1.00  0.00    -0.143 C  
HETATM    6  C   UNL     1      -9.149  11.317  68.361  1.00  0.00    -0.170 C  
HETATM    7  C   UNL     1     -11.010  12.752  67.267  1.00  0.00    -0.262 C  
HETATM    8  C   UNL     1     -10.586  11.855  68.436  1.00  0.00    -0.239 C  
ENDROOT
BRANCH   6   9
HETATM    9  N   UNL     1      -8.968  10.143  69.252  1.00  0.00    -0.174 N  
HETATM   10  N   UNL     1      -9.916   9.153  69.173  1.00  0.00    -0.181 NA 
HETATM   11  C   UNL     1      -9.799   8.070  69.875  1.00  0.00    -0.186 C  
HETATM   12  O   UNL     1      -7.021  10.971  70.205  1.00  0.00    -0.159 OA 
HETATM   13  C   UNL     1      -8.679   7.844  70.812  1.00  0.00    -0.134 A  
HETATM   14  C   UNL     1      -8.524   6.669  71.557  1.00  0.00    -0.120 A  
HETATM   15  C   UNL     1      -7.871  10.085  70.108  1.00  0.00    -0.123 C  
HETATM   16  C   UNL     1      -7.414   6.512  72.394  1.00  0.00    -0.094 A  
HETATM   17  C   UNL     1      -7.731   8.859  70.918  1.00  0.00    -0.139 A  
HETATM   18  C   UNL     1      -6.468   7.530  72.502  1.00  0.00    -0.055 A  
HETATM   19  C   UNL     1      -6.626   8.705  71.768  1.00  0.00    -0.076 A  
BRANCH  11  20
HETATM   20  C   UNL     1     -10.853   6.992  69.650  1.00  0.00    -0.275 C  
BRANCH  20  21
HETATM   21  C   UNL     1     -10.553   5.971  68.574  1.00  0.00    -0.325 A  
HETATM   22 CL   UNL     1      -9.219   3.043  65.383  1.00  0.00    -0.150 Cl 
HETATM   23  C   UNL     1     -10.867   6.192  67.225  1.00  0.00    -0.438 A  
HETATM   24  C   UNL     1      -9.409   3.913  67.928  1.00  0.00    -0.227 A  
HETATM   25  C   UNL     1     -10.469   5.278  66.242  1.00  0.00    -0.311 A  
HETATM   26  C   UNL     1      -9.812   4.823  68.910  1.00  0.00    -0.230 A  
HETATM   27  C   UNL     1      -9.740   4.145  66.597  1.00  0.00    -0.211 A  
ENDBRANCH  20  21
ENDBRANCH  11  20
ENDBRANCH   6   9
TORSDOF 3
ENDMDL
MODEL       92
REMARK 921   NORMALIZED FREE ENERGY PREDICTED BY IDOCK:   -5.24 KCAL/MOL
REMARK 922        TOTAL FREE ENERGY PREDICTED BY IDOCK:   -6.93 KCAL/MOL
REMARK 923 INTER-LIGAND FREE ENERGY PREDICTED BY IDOCK:   -6.03 KCAL/MOL
REMARK 924 INTRA-LIGAND FREE ENERGY PREDICTED BY IDOCK:   -0.91 KCAL/MOL
REMARK 927      BINDING AFFINITY PREDICTED BY RF-SCORE:    0.00 PKD
ROOT
HETATM    1  C   UNL     1      -7.181  17.552  66.024  1.00  0.00    -0.263 C  
HETATM    2  N   UNL     1      -7.855  16.486  66.776  1.00  0.00    -0.231 NA 
HETATM    3  C   UNL     1      -8.193  16.993  68.113  1.00  0.00    -0.217 C  
HETATM    4  C   UNL     1      -8.912  16.016  69.041  1.00  0.00    -0.244 C  
HETATM    5  C   UNL     1     -10.344  15.721  68.602  1.00  0.00    -0.225 C  
HETATM    6  C   UNL     1     -10.462  14.549  67.613  1.00  0.00    -0.246 C  
HETATM    7  C   UNL     1      -8.991  15.956  66.007  1.00  0.00    -0.302 C  
HETATM    8  C   UNL     1      -9.425  14.563  66.479  1.00  0.00    -0.310 C  
ENDROOT
BRANCH   6   9
HETATM    9  N   UNL     1     -10.492  13.231  68.296  1.00  0.00    -0.245 N  
HETATM   10  N   UNL     1      -9.381  12.436  68.159  1.00  0.00    -0.206 NA 
HETATM   11  C   UNL     1      -9.306  11.296  68.772  1.00  0.00    -0.128 C  
HETATM   12  O   UNL     1     -12.624  13.552  69.154  1.00  0.00    -0.001 OA 
HETATM   13  C   UNL     1     -10.399  10.771  69.616  1.00  0.00    -0.142 A  
HETATM   14  C   UNL     1     -10.323   9.555  70.305  1.00  0.00    -0.321 A  
HETATM   15  C   UNL     1     -11.612  12.860  69.036  1.00  0.00    -0.322 C  
HETATM   16  C   UNL     1     -11.385   9.143  71.117  1.00  0.00    -0.392 A  
HETATM   17  C   UNL     1     -11.541  11.561  69.733  1.00  0.00    -0.401 A  
HETATM   18  C   UNL     1     -12.528   9.933  71.230  1.00  0.00    -0.479 A  
HETATM   19  C   UNL     1     -12.610  11.139  70.537  1.00  0.00    -0.360 A  
BRANCH  11  20
HETATM   20  C   UNL     1      -7.997  10.530  68.631  1.00  0.00    -0.124 C  
BRANCH  20  21
HETATM   21  C   UNL     1      -7.974   9.418  67.605  1.00  0.00    -0.099 A  
HETATM   22 CL   UNL     1      -8.246   5.892  64.770  1.00  0.00    -0.136 Cl 
HETATM   23  C   UNL     1      -6.979   8.429  67.597  1.00  0.00    -0.075 A  
HETATM   24  C   UNL     1      -9.137   8.205  65.834  1.00  0.00    -0.183 A  
HETATM   25  C   UNL     1      -7.056   7.349  66.709  1.00  0.00    -0.079 A  
HETATM   26  C   UNL     1      -9.057   9.286  66.717  1.00  0.00    -0.170 A  
HETATM   27  C   UNL     1      -8.135   7.240  65.834  1.00  0.00    -0.125 A  
ENDBRANCH  20  21
ENDBRANCH  11  20
ENDBRANCH   6   9
TORSDOF 3
ENDMDL
MODEL       93
REMARK 921   NORMALIZED FREE ENERGY PREDICTED BY IDOCK:   -5.24 KCAL/MOL
REMARK 922        TOTAL FREE ENERGY PREDICTED BY IDOCK:   -6.93 KCAL/MOL
REMARK 923 INTER-LIGAND FREE ENERGY PREDICTED BY IDOCK:   -6.07 KCAL/MOL
REMARK 924 INTRA-LIGAND FREE ENERGY PREDICTED BY IDOCK:   -0.86 KCAL/MOL
REMARK 927      BINDING AFFINITY PREDICTED BY RF-SCORE:    0.00 PKD
ROOT
HETATM    1  C   UNL     1     -12.240   9.094  71.611  1.00  0.00    -0.361 C  
HETATM    2  N   UNL     1     -11.659  10.230  70.884  1.00  0.00    -0.359 NA 
HETATM    3  C   UNL     1     -11.198   9.764  69.570  1.00  0.00    -0.142 C  
HETATM    4  C   UNL     1     -10.567  10.820  68.665  1.00  0.00    -0.226 C  
HETATM    5  C   UNL     1     -11.577  11.838  68.142  1.00  0.00    -0.391 C  
HETATM    6  C   UNL     1     -11.778  13.048  69.069  1.00  0.00    -0.329 C  
HETATM    7  C   UNL     1     -12.607  11.353  70.847  1.00  0.00    -0.356 C  
HETATM    8  C   UNL     1     -11.923  12.695  70.558  1.00  0.00    -0.279 C  
ENDROOT
BRANCH   6   9
HETATM    9  N   UNL     1     -10.746  14.096  68.865  1.00  0.00    -0.255 N  
HETATM   10  N   UNL     1      -9.510  13.676  68.439  1.00  0.00    -0.208 NA 
HETATM   11  C   UNL     1      -8.574  14.535  68.183  1.00  0.00    -0.169 C  
HETATM   12  O   UNL     1     -12.158  15.825  69.499  1.00  0.00    -0.353 OA 
HETATM   13  C   UNL     1      -8.757  15.990  68.357  1.00  0.00    -0.186 A  
HETATM   14  C   UNL     1      -7.764  16.932  68.059  1.00  0.00    -0.179 A  
HETATM   15  C   UNL     1     -11.061  15.432  69.100  1.00  0.00    -0.266 C  
HETATM   16  C   UNL     1      -8.027  18.297  68.212  1.00  0.00    -0.312 A  
HETATM   17  C   UNL     1     -10.000  16.419  68.817  1.00  0.00    -0.246 A  
HETATM   18  C   UNL     1      -9.270  18.724  68.677  1.00  0.00    -0.386 A  
HETATM   19  C   UNL     1     -10.256  17.788  68.983  1.00  0.00    -0.290 A  
BRANCH  11  20
HETATM   20  C   UNL     1      -7.269  13.976  67.629  1.00  0.00    -0.190 C  
BRANCH  20  21
HETATM   21  C   UNL     1      -6.910  12.566  68.044  1.00  0.00    -0.094 A  
HETATM   22 CL   UNL     1      -6.281   8.249  69.272  1.00  0.00    -0.038 Cl 
HETATM   23  C   UNL     1      -6.552  12.242  69.361  1.00  0.00    -0.081 A  
HETATM   24  C   UNL     1      -6.867  10.188  67.492  1.00  0.00    -0.077 A  
HETATM   25  C   UNL     1      -6.342  10.910  69.735  1.00  0.00    -0.114 A  
HETATM   26  C   UNL     1      -7.071  11.520  67.117  1.00  0.00    -0.140 A  
HETATM   27  C   UNL     1      -6.503   9.889  68.801  1.00  0.00    -0.045 A  
ENDBRANCH  20  21
ENDBRANCH  11  20
ENDBRANCH   6   9
TORSDOF 3
ENDMDL
MODEL       94
REMARK 921   NORMALIZED FREE ENERGY PREDICTED BY IDOCK:   -5.24 KCAL/MOL
REMARK 922        TOTAL FREE ENERGY PREDICTED BY IDOCK:   -6.93 KCAL/MOL
REMARK 923 INTER-LIGAND FREE ENERGY PREDICTED BY IDOCK:   -7.17 KCAL/MOL
REMARK 924 INTRA-LIGAND FREE ENERGY PREDICTED BY IDOCK:    0.24 KCAL/MOL
REMARK 927      BINDING AFFINITY PREDICTED BY RF-SCORE:    0.00 PKD
ROOT
HETATM    1  C   UNL     1     -14.201  15.126  72.068  1.00  0.00    -0.577 C  
HETATM    2  N   UNL     1     -13.405  14.668  70.922  1.00  0.00    -0.351 NA 
HETATM    3  C   UNL     1     -12.478  15.738  70.533  1.00  0.00    -0.332 C  
HETATM    4  C   UNL     1     -11.557  15.435  69.352  1.00  0.00    -0.354 C  
HETATM    5  C   UNL     1     -10.489  14.395  69.682  1.00  0.00     0.042 C  
HETATM    6  C   UNL     1     -10.938  12.945  69.441  1.00  0.00     0.012 C  
HETATM    7  C   UNL     1     -12.770  13.376  71.224  1.00  0.00    -0.338 C  
HETATM    8  C   UNL     1     -12.346  12.616  69.961  1.00  0.00    -0.164 C  
ENDROOT
BRANCH   6   9
HETATM    9  N   UNL     1     -10.780  12.531  68.024  1.00  0.00    -0.214 N  
HETATM   10  N   UNL     1      -9.807  11.600  67.753  1.00  0.00    -0.175 NA 
HETATM   11  C   UNL     1      -9.646  11.145  66.551  1.00  0.00    -0.197 C  
HETATM   12  O   UNL     1     -12.470  13.929  67.266  1.00  0.00    -0.259 OA 
HETATM   13  C   UNL     1     -10.458  11.608  65.406  1.00  0.00    -0.324 A  
HETATM   14  C   UNL     1     -10.313  11.107  64.107  1.00  0.00    -0.423 A  
HETATM   15  C   UNL     1     -11.605  13.081  67.046  1.00  0.00    -0.360 C  
HETATM   16  C   UNL     1     -11.147  11.567  63.084  1.00  0.00    -0.151 A  
HETATM   17  C   UNL     1     -11.426  12.575  65.670  1.00  0.00    -0.400 A  
HETATM   18  C   UNL     1     -12.113  12.537  63.348  1.00  0.00    -0.621 A  
HETATM   19  C   UNL     1     -12.251  13.045  64.639  1.00  0.00    -0.477 A  
BRANCH  11  20
HETATM   20  C   UNL     1      -8.602  10.049  66.370  1.00  0.00    -0.136 C  
BRANCH  20  21
HETATM   21  C   UNL     1      -9.037   8.641  66.716  1.00  0.00    -0.183 A  
HETATM   22 CL   UNL     1     -10.233   4.312  67.325  1.00  0.00    -0.040 Cl 
HETATM   23  C   UNL     1     -10.389   8.280  66.816  1.00  0.00    -0.361 A  
HETATM   24  C   UNL     1      -8.432   6.294  67.005  1.00  0.00    -0.108 A  
HETATM   25  C   UNL     1     -10.756   6.945  67.020  1.00  0.00    -0.432 A  
HETATM   26  C   UNL     1      -8.065   7.629  66.806  1.00  0.00    -0.115 A  
HETATM   27  C   UNL     1      -9.777   5.958  67.111  1.00  0.00    -0.132 A  
ENDBRANCH  20  21
ENDBRANCH  11  20
ENDBRANCH   6   9
TORSDOF 3
ENDMDL
MODEL       95
REMARK 921   NORMALIZED FREE ENERGY PREDICTED BY IDOCK:   -5.24 KCAL/MOL
REMARK 922        TOTAL FREE ENERGY PREDICTED BY IDOCK:   -6.93 KCAL/MOL
REMARK 923 INTER-LIGAND FREE ENERGY PREDICTED BY IDOCK:   -7.17 KCAL/MOL
REMARK 924 INTRA-LIGAND FREE ENERGY PREDICTED BY IDOCK:    0.24 KCAL/MOL
REMARK 927      BINDING AFFINITY PREDICTED BY RF-SCORE:    0.00 PKD
ROOT
HETATM    1  C   UNL     1      -8.816   1.738  66.259  1.00  0.00    -0.116 C  
HETATM    2  N   UNL     1      -9.016   3.047  66.894  1.00  0.00    -0.150 NA 
HETATM    3  C   UNL     1      -7.715   3.556  67.348  1.00  0.00    -0.078 C  
HETATM    4  C   UNL     1      -7.727   4.921  68.032  1.00  0.00    -0.083 C  
HETATM    5  C   UNL     1      -8.032   6.066  67.069  1.00  0.00    -0.102 C  
HETATM    6  C   UNL     1      -9.533   6.361  66.910  1.00  0.00    -0.143 C  
HETATM    7  C   UNL     1      -9.753   3.946  65.994  1.00  0.00    -0.162 C  
HETATM    8  C   UNL     1     -10.414   5.114  66.736  1.00  0.00    -0.306 C  
ENDROOT
BRANCH   6   9
HETATM    9  N   UNL     1     -10.055   7.240  67.986  1.00  0.00    -0.165 N  
HETATM   10  N   UNL     1      -9.883   8.593  67.821  1.00  0.00    -0.166 NA 
HETATM   11  C   UNL     1     -10.362   9.429  68.688  1.00  0.00    -0.203 C  
HETATM   12  O   UNL     1     -10.838   5.470  69.265  1.00  0.00    -0.269 OA 
HETATM   13  C   UNL     1     -11.083   8.995  69.902  1.00  0.00    -0.155 A  
HETATM   14  C   UNL     1     -11.628   9.887  70.833  1.00  0.00    -0.456 A  
HETATM   15  C   UNL     1     -10.690   6.680  69.092  1.00  0.00    -0.264 C  
HETATM   16  C   UNL     1     -12.333   9.400  71.938  1.00  0.00    -0.450 A  
HETATM   17  C   UNL     1     -11.234   7.623  70.089  1.00  0.00    -0.193 A  
HETATM   18  C   UNL     1     -12.480   8.026  72.126  1.00  0.00    -0.335 A  
HETATM   19  C   UNL     1     -11.929   7.137  71.206  1.00  0.00    -0.374 A  
BRANCH  11  20
HETATM   20  C   UNL     1     -10.198  10.911  68.369  1.00  0.00    -0.193 C  
BRANCH  20  21
HETATM   21  C   UNL     1     -10.802  11.390  67.067  1.00  0.00    -0.331 A  
HETATM   22 CL   UNL     1     -12.220  13.042  63.092  1.00  0.00    -0.503 Cl 
HETATM   23  C   UNL     1     -11.751  12.423  67.020  1.00  0.00    -0.423 A  
HETATM   24  C   UNL     1     -10.746  11.386  64.627  1.00  0.00    -0.378 A  
HETATM   25  C   UNL     1     -12.200  12.921  65.791  1.00  0.00    -0.498 A  
HETATM   26  C   UNL     1     -10.301  10.885  65.854  1.00  0.00    -0.310 A  
HETATM   27  C   UNL     1     -11.694  12.403  64.601  1.00  0.00    -0.365 A  
ENDBRANCH  20  21
ENDBRANCH  11  20
ENDBRANCH   6   9
TORSDOF 3
ENDMDL
MODEL       96
REMARK 921   NORMALIZED FREE ENERGY PREDICTED BY IDOCK:   -5.23 KCAL/MOL
REMARK 922        TOTAL FREE ENERGY PREDICTED BY IDOCK:   -6.92 KCAL/MOL
REMARK 923 INTER-LIGAND FREE ENERGY PREDICTED BY IDOCK:   -6.78 KCAL/MOL
REMARK 924 INTRA-LIGAND FREE ENERGY PREDICTED BY IDOCK:   -0.13 KCAL/MOL
REMARK 927      BINDING AFFINITY PREDICTED BY RF-SCORE:    0.00 PKD
ROOT
HETATM    1  C   UNL     1      -9.835  14.688  66.839  1.00  0.00    -0.249 C  
HETATM    2  N   UNL     1      -9.946  13.274  67.217  1.00  0.00    -0.228 NA 
HETATM    3  C   UNL     1     -10.884  12.612  66.301  1.00  0.00    -0.273 C  
HETATM    4  C   UNL     1     -11.120  11.122  66.540  1.00  0.00    -0.233 C  
HETATM    5  C   UNL     1      -9.906  10.263  66.193  1.00  0.00    -0.284 C  
HETATM    6  C   UNL     1      -8.918  10.085  67.358  1.00  0.00    -0.131 C  
HETATM    7  C   UNL     1      -8.613  12.658  67.293  1.00  0.00    -0.196 C  
HETATM    8  C   UNL     1      -8.602  11.374  68.131  1.00  0.00    -0.153 C  
ENDROOT
BRANCH   6   9
HETATM    9  N   UNL     1      -9.320   8.992  68.279  1.00  0.00    -0.139 N  
HETATM   10  N   UNL     1     -10.210   9.314  69.273  1.00  0.00    -0.199 NA 
HETATM   11  C   UNL     1     -10.654   8.403  70.082  1.00  0.00    -0.233 C  
HETATM   12  O   UNL     1      -7.985   7.409  67.230  1.00  0.00    -0.111 OA 
HETATM   13  C   UNL     1     -10.218   6.993  70.012  1.00  0.00    -0.206 A  
HETATM   14  C   UNL     1     -10.708   5.994  70.861  1.00  0.00    -0.329 A  
HETATM   15  C   UNL     1      -8.798   7.712  68.104  1.00  0.00    -0.125 C  
HETATM   16  C   UNL     1     -10.276   4.672  70.707  1.00  0.00    -0.214 A  
HETATM   17  C   UNL     1      -9.291   6.668  69.024  1.00  0.00    -0.133 A  
HETATM   18  C   UNL     1      -9.346   4.349  69.721  1.00  0.00    -0.224 A  
HETATM   19  C   UNL     1      -8.850   5.345  68.881  1.00  0.00    -0.105 A  
BRANCH  11  20
HETATM   20  C   UNL     1     -11.708   8.842  71.092  1.00  0.00    -0.344 C  
BRANCH  20  21
HETATM   21  C   UNL     1     -11.996  10.326  71.163  1.00  0.00    -0.472 A  
HETATM   22 CL   UNL     1     -13.262  14.678  71.185  1.00  0.00    -0.415 Cl 
HETATM   23  C   UNL     1     -11.420  11.242  70.270  1.00  0.00    -0.286 A  
HETATM   24  C   UNL     1     -13.360  12.133  72.075  1.00  0.00    -0.470 A  
HETATM   25  C   UNL     1     -11.800  12.590  70.290  1.00  0.00    -0.305 A  
HETATM   26  C   UNL     1     -12.975  10.789  72.059  1.00  0.00    -0.444 A  
HETATM   27  C   UNL     1     -12.770  13.029  71.189  1.00  0.00    -0.283 A  
ENDBRANCH  20  21
ENDBRANCH  11  20
ENDBRANCH   6   9
TORSDOF 3
ENDMDL
MODEL       97
REMARK 921   NORMALIZED FREE ENERGY PREDICTED BY IDOCK:   -5.20 KCAL/MOL
REMARK 922        TOTAL FREE ENERGY PREDICTED BY IDOCK:   -6.88 KCAL/MOL
REMARK 923 INTER-LIGAND FREE ENERGY PREDICTED BY IDOCK:   -7.93 KCAL/MOL
REMARK 924 INTRA-LIGAND FREE ENERGY PREDICTED BY IDOCK:    1.05 KCAL/MOL
REMARK 927      BINDING AFFINITY PREDICTED BY RF-SCORE:    0.00 PKD
ROOT
HETATM    1  C   UNL     1      -9.069  18.363  66.621  1.00  0.00    -0.297 C  
HETATM    2  N   UNL     1      -9.485  17.011  67.016  1.00  0.00    -0.243 NA 
HETATM    3  C   UNL     1      -9.710  16.991  68.467  1.00  0.00    -0.282 C  
HETATM    4  C   UNL     1     -10.159  15.657  69.060  1.00  0.00    -0.227 C  
HETATM    5  C   UNL     1     -11.583  15.276  68.660  1.00  0.00    -0.370 C  
HETATM    6  C   UNL     1     -11.669  14.487  67.343  1.00  0.00    -0.400 C  
HETATM    7  C   UNL     1     -10.629  16.571  66.204  1.00  0.00    -0.236 C  
HETATM    8  C   UNL     1     -10.802  15.047  66.204  1.00  0.00    -0.329 C  
ENDROOT
BRANCH   6   9
HETATM    9  N   UNL     1     -11.427  13.034  67.536  1.00  0.00    -0.308 N  
HETATM   10  N   UNL     1     -11.954  12.462  68.667  1.00  0.00    -0.286 NA 
HETATM   11  C   UNL     1     -11.837  11.189  68.879  1.00  0.00    -0.337 C  
HETATM   12  O   UNL     1     -10.204  12.821  65.576  1.00  0.00    -0.275 OA 
HETATM   13  C   UNL     1     -11.116  10.290  67.954  1.00  0.00    -0.341 A  
HETATM   14  C   UNL     1     -11.003   8.909  68.156  1.00  0.00     0.054 A  
HETATM   15  C   UNL     1     -10.699  12.322  66.586  1.00  0.00    -0.245 C  
HETATM   16  C   UNL     1     -10.338   8.117  67.213  1.00  0.00    -0.373 A  
HETATM   17  C   UNL     1     -10.553  10.871  66.820  1.00  0.00    -0.313 A  
HETATM   18  C   UNL     1      -9.772   8.701  66.081  1.00  0.00    -0.292 A  
HETATM   19  C   UNL     1      -9.875  10.077  65.884  1.00  0.00    -0.330 A  
BRANCH  11  20
HETATM   20  C   UNL     1     -12.534  10.635  70.116  1.00  0.00    -0.342 C  
BRANCH  20  21
HETATM   21  C   UNL     1     -11.803   9.546  70.870  1.00  0.00    -0.385 A  
HETATM   22 CL   UNL     1      -9.823   6.435  73.505  1.00  0.00    -0.180 Cl 
HETATM   23  C   UNL     1     -10.443   9.648  71.199  1.00  0.00    -0.281 A  
HETATM   24  C   UNL     1     -11.924   7.493  72.185  1.00  0.00    -0.323 A  
HETATM   25  C   UNL     1      -9.829   8.677  71.999  1.00  0.00    -0.396 A  
HETATM   26  C   UNL     1     -12.535   8.460  71.381  1.00  0.00    -0.313 A  
HETATM   27  C   UNL     1     -10.571   7.606  72.491  1.00  0.00    -0.281 A  
ENDBRANCH  20  21
ENDBRANCH  11  20
ENDBRANCH   6   9
TORSDOF 3
ENDMDL
MODEL       98
REMARK 921   NORMALIZED FREE ENERGY PREDICTED BY IDOCK:   -5.20 KCAL/MOL
REMARK 922        TOTAL FREE ENERGY PREDICTED BY IDOCK:   -6.88 KCAL/MOL
REMARK 923 INTER-LIGAND FREE ENERGY PREDICTED BY IDOCK:   -5.88 KCAL/MOL
REMARK 924 INTRA-LIGAND FREE ENERGY PREDICTED BY IDOCK:   -1.00 KCAL/MOL
REMARK 927      BINDING AFFINITY PREDICTED BY RF-SCORE:    0.00 PKD
ROOT
HETATM    1  C   UNL     1     -12.172  14.391  64.374  1.00  0.00    -0.458 C  
HETATM    2  N   UNL     1     -11.501  13.700  65.482  1.00  0.00    -0.302 NA 
HETATM    3  C   UNL     1     -11.837  14.384  66.738  1.00  0.00    -0.410 C  
HETATM    4  C   UNL     1     -11.229  13.794  68.009  1.00  0.00    -0.293 C  
HETATM    5  C   UNL     1     -11.829  12.442  68.385  1.00  0.00    -0.361 C  
HETATM    6  C   UNL     1     -11.119  11.244  67.734  1.00  0.00    -0.271 C  
HETATM    7  C   UNL     1     -11.816  12.263  65.455  1.00  0.00    -0.360 C  
HETATM    8  C   UNL     1     -10.803  11.421  66.240  1.00  0.00    -0.318 C  
ENDROOT
BRANCH   6   9
HETATM    9  N   UNL     1      -9.913  10.821  68.490  1.00  0.00    -0.170 N  
HETATM   10  N   UNL     1      -8.756  11.523  68.256  1.00  0.00    -0.157 NA 
HETATM   11  C   UNL     1      -7.675  11.253  68.919  1.00  0.00    -0.125 C  
HETATM   12  O   UNL     1     -11.019   9.109  69.599  1.00  0.00    -0.226 OA 
HETATM   13  C   UNL     1      -7.605  10.174  69.926  1.00  0.00    -0.174 A  
HETATM   14  C   UNL     1      -6.453   9.888  70.668  1.00  0.00    -0.106 A  
HETATM   15  C   UNL     1      -9.996   9.761  69.390  1.00  0.00    -0.205 C  
HETATM   16  C   UNL     1      -6.477   8.877  71.634  1.00  0.00    -0.076 A  
HETATM   17  C   UNL     1      -8.769   9.440  70.145  1.00  0.00    -0.245 A  
HETATM   18  C   UNL     1      -7.641   8.140  71.849  1.00  0.00    -0.115 A  
HETATM   19  C   UNL     1      -8.785   8.417  71.104  1.00  0.00    -0.194 A  
BRANCH  11  20
HETATM   20  C   UNL     1      -6.470  12.147  68.652  1.00  0.00    -0.072 C  
BRANCH  20  21
HETATM   21  C   UNL     1      -6.718  13.639  68.687  1.00  0.00    -0.100 A  
HETATM   22 CL   UNL     1      -7.072  18.156  68.559  1.00  0.00    -0.250 Cl 
HETATM   23  C   UNL     1      -6.503  14.406  69.842  1.00  0.00    -0.152 A  
HETATM   24  C   UNL     1      -7.162  15.698  67.452  1.00  0.00    -0.241 A  
HETATM   25  C   UNL     1      -6.629  15.800  69.805  1.00  0.00    -0.154 A  
HETATM   26  C   UNL     1      -7.042  14.305  67.491  1.00  0.00    -0.189 A  
HETATM   27  C   UNL     1      -6.954  16.440  68.611  1.00  0.00    -0.159 A  
ENDBRANCH  20  21
ENDBRANCH  11  20
ENDBRANCH   6   9
TORSDOF 3
ENDMDL
MODEL       99
REMARK 921   NORMALIZED FREE ENERGY PREDICTED BY IDOCK:   -5.19 KCAL/MOL
REMARK 922        TOTAL FREE ENERGY PREDICTED BY IDOCK:   -6.88 KCAL/MOL
REMARK 923 INTER-LIGAND FREE ENERGY PREDICTED BY IDOCK:   -5.97 KCAL/MOL
REMARK 924 INTRA-LIGAND FREE ENERGY PREDICTED BY IDOCK:   -0.91 KCAL/MOL
REMARK 927      BINDING AFFINITY PREDICTED BY RF-SCORE:    0.00 PKD
ROOT
HETATM    1  C   UNL     1      -8.614   2.445  67.219  1.00  0.00    -0.108 C  
HETATM    2  N   UNL     1      -8.992   3.730  67.820  1.00  0.00    -0.122 NA 
HETATM    3  C   UNL     1      -7.876   4.211  68.646  1.00  0.00    -0.072 C  
HETATM    4  C   UNL     1      -8.088   5.550  69.349  1.00  0.00    -0.095 C  
HETATM    5  C   UNL     1      -8.110   6.733  68.384  1.00  0.00    -0.119 C  
HETATM    6  C   UNL     1      -9.503   7.045  67.814  1.00  0.00    -0.124 C  
HETATM    7  C   UNL     1      -9.444   4.667  66.781  1.00  0.00    -0.162 C  
HETATM    8  C   UNL     1     -10.293   5.812  67.347  1.00  0.00    -0.279 C  
ENDROOT
BRANCH   6   9
HETATM    9  N   UNL     1     -10.315   7.887  68.728  1.00  0.00    -0.206 N  
HETATM   10  N   UNL     1     -10.842   7.271  69.836  1.00  0.00    -0.246 NA 
HETATM   11  C   UNL     1     -11.514   7.950  70.712  1.00  0.00    -0.263 C  
HETATM   12  O   UNL     1     -10.053   9.803  67.445  1.00  0.00    -0.183 OA 
HETATM   13  C   UNL     1     -11.779   9.396  70.567  1.00  0.00    -0.254 A  
HETATM   14  C   UNL     1     -12.480  10.149  71.518  1.00  0.00    -0.526 A  
HETATM   15  C   UNL     1     -10.503   9.237  68.442  1.00  0.00    -0.206 C  
HETATM   16  C   UNL     1     -12.657  11.523  71.329  1.00  0.00    -0.452 A  
HETATM   17  C   UNL     1     -11.272  10.020  69.430  1.00  0.00    -0.235 A  
HETATM   18  C   UNL     1     -12.152  12.145  70.188  1.00  0.00    -0.368 A  
HETATM   19  C   UNL     1     -11.463  11.396  69.236  1.00  0.00    -0.370 A  
BRANCH  11  20
HETATM   20  C   UNL     1     -11.979   7.194  71.951  1.00  0.00    -0.343 C  
BRANCH  20  21
HETATM   21  C   UNL     1     -11.003   6.198  72.538  1.00  0.00    -0.296 A  
HETATM   22 CL   UNL     1      -7.748   3.479  74.136  1.00  0.00    -0.065 Cl 
HETATM   23  C   UNL     1     -10.749   4.957  71.936  1.00  0.00    -0.128 A  
HETATM   24  C   UNL     1      -9.225   5.736  74.146  1.00  0.00    -0.128 A  
HETATM   25  C   UNL     1      -9.754   4.111  72.441  1.00  0.00    -0.210 A  
HETATM   26  C   UNL     1     -10.223   6.578  73.645  1.00  0.00    -0.305 A  
HETATM   27  C   UNL     1      -8.995   4.505  73.541  1.00  0.00    -0.100 A  
ENDBRANCH  20  21
ENDBRANCH  11  20
ENDBRANCH   6   9
TORSDOF 3
ENDMDL
MODEL      100
REMARK 921   NORMALIZED FREE ENERGY PREDICTED BY IDOCK:   -5.13 KCAL/MOL
REMARK 922        TOTAL FREE ENERGY PREDICTED BY IDOCK:   -6.80 KCAL/MOL
REMARK 923 INTER-LIGAND FREE ENERGY PREDICTED BY IDOCK:   -6.83 KCAL/MOL
REMARK 924 INTRA-LIGAND FREE ENERGY PREDICTED BY IDOCK:    0.03 KCAL/MOL
REMARK 927      BINDING AFFINITY PREDICTED BY RF-SCORE:    0.00 PKD
ROOT
HETATM    1  C   UNL     1      -7.295   6.416  65.524  1.00  0.00    -0.076 C  
HETATM    2  N   UNL     1      -7.958   7.512  66.240  1.00  0.00    -0.105 NA 
HETATM    3  C   UNL     1      -6.961   8.543  66.555  1.00  0.00    -0.075 C  
HETATM    4  C   UNL     1      -7.476   9.773  67.300  1.00  0.00    -0.088 C  
HETATM    5  C   UNL     1      -8.372  10.659  66.438  1.00  0.00    -0.151 C  
HETATM    6  C   UNL     1      -9.858  10.266  66.478  1.00  0.00    -0.212 C  
HETATM    7  C   UNL     1      -9.124   7.988  65.481  1.00  0.00     0.068 C  
HETATM    8  C   UNL     1     -10.124   8.757  66.353  1.00  0.00    -0.313 C  
ENDROOT
BRANCH   6   9
HETATM    9  N   UNL     1     -10.565  10.840  67.650  1.00  0.00    -0.214 N  
HETATM   10  N   UNL     1     -10.871  12.177  67.597  1.00  0.00    -0.224 NA 
HETATM   11  C   UNL     1     -11.538  12.740  68.556  1.00  0.00    -0.321 C  
HETATM   12  O   UNL     1     -10.608   8.827  68.804  1.00  0.00    -0.211 OA 
HETATM   13  C   UNL     1     -11.979  12.005  69.759  1.00  0.00    -0.370 A  
HETATM   14  C   UNL     1     -12.723  12.593  70.790  1.00  0.00    -0.213 A  
HETATM   15  C   UNL     1     -10.890  10.023  68.731  1.00  0.00    -0.219 C  
HETATM   16  C   UNL     1     -13.137  11.820  71.880  1.00  0.00    -0.482 A  
HETATM   17  C   UNL     1     -11.644  10.655  69.832  1.00  0.00    -0.396 A  
HETATM   18  C   UNL     1     -12.798  10.471  71.953  1.00  0.00    -0.509 A  
HETATM   19  C   UNL     1     -12.049   9.887  70.933  1.00  0.00    -0.431 A  
BRANCH  11  20
HETATM   20  C   UNL     1     -11.907  14.206  68.361  1.00  0.00    -0.388 C  
BRANCH  20  21
HETATM   21  C   UNL     1     -10.818  15.109  67.827  1.00  0.00    -0.292 A  
HETATM   22 CL   UNL     1      -7.788  18.164  66.401  1.00  0.00    -0.286 Cl 
HETATM   23  C   UNL     1     -10.718  15.436  66.466  1.00  0.00    -0.308 A  
HETATM   24  C   UNL     1      -9.016  16.689  68.296  1.00  0.00    -0.214 A  
HETATM   25  C   UNL     1      -9.771  16.368  66.025  1.00  0.00    -0.356 A  
HETATM   26  C   UNL     1      -9.959  15.754  68.735  1.00  0.00    -0.214 A  
HETATM   27  C   UNL     1      -8.927  16.992  66.941  1.00  0.00    -0.229 A  
ENDBRANCH  20  21
ENDBRANCH  11  20
ENDBRANCH   6   9
TORSDOF 3
ENDMDL
MODEL      101
REMARK 921   NORMALIZED FREE ENERGY PREDICTED BY IDOCK:   -5.12 KCAL/MOL
REMARK 922        TOTAL FREE ENERGY PREDICTED BY IDOCK:   -6.79 KCAL/MOL
REMARK 923 INTER-LIGAND FREE ENERGY PREDICTED BY IDOCK:   -6.99 KCAL/MOL
REMARK 924 INTRA-LIGAND FREE ENERGY PREDICTED BY IDOCK:    0.19 KCAL/MOL
REMARK 927      BINDING AFFINITY PREDICTED BY RF-SCORE:    0.00 PKD
ROOT
HETATM    1  C   UNL     1     -10.888   4.692  73.802  1.00  0.00    -0.306 C  
HETATM    2  N   UNL     1     -10.489   5.525  72.661  1.00  0.00    -0.204 NA 
HETATM    3  C   UNL     1     -10.365   4.671  71.473  1.00  0.00    -0.104 C  
HETATM    4  C   UNL     1      -9.961   5.372  70.178  1.00  0.00    -0.301 C  
HETATM    5  C   UNL     1     -11.058   6.278  69.624  1.00  0.00    -0.479 C  
HETATM    6  C   UNL     1     -11.016   7.713  70.174  1.00  0.00    -0.246 C  
HETATM    7  C   UNL     1     -11.407   6.664  72.513  1.00  0.00    -0.253 C  
HETATM    8  C   UNL     1     -10.800   7.809  71.693  1.00  0.00    -0.265 C  
ENDROOT
BRANCH   6   9
HETATM    9  N   UNL     1     -10.055   8.574  69.440  1.00  0.00    -0.199 N  
HETATM   10  N   UNL     1     -10.231   8.683  68.083  1.00  0.00    -0.198 NA 
HETATM   11  C   UNL     1      -9.469   9.461  67.380  1.00  0.00    -0.131 C  
HETATM   12  O   UNL     1      -8.856   9.127  71.349  1.00  0.00    -0.298 OA 
HETATM   13  C   UNL     1      -8.363  10.242  67.971  1.00  0.00    -0.114 A  
HETATM   14  C   UNL     1      -7.549  11.107  67.229  1.00  0.00    -0.126 A  
HETATM   15  C   UNL     1      -9.040   9.227  70.135  1.00  0.00    -0.222 C  
HETATM   16  C   UNL     1      -6.546  11.843  67.869  1.00  0.00    -0.075 A  
HETATM   17  C   UNL     1      -8.162  10.111  69.343  1.00  0.00    -0.171 A  
HETATM   18  C   UNL     1      -6.344  11.708  69.241  1.00  0.00    -0.098 A  
HETATM   19  C   UNL     1      -7.147  10.841  69.979  1.00  0.00    -0.035 A  
BRANCH  11  20
HETATM   20  C   UNL     1      -9.801   9.585  65.898  1.00  0.00    -0.360 C  
BRANCH  20  21
HETATM   21  C   UNL     1     -10.514  10.849  65.470  1.00  0.00    -0.286 A  
HETATM   22 CL   UNL     1     -12.239  14.826  64.146  1.00  0.00    -0.438 Cl 
HETATM   23  C   UNL     1     -11.161  11.690  66.389  1.00  0.00    -0.347 A  
HETATM   24  C   UNL     1     -10.953  12.493  63.720  1.00  0.00    -0.496 A  
HETATM   25  C   UNL     1     -11.708  12.910  65.975  1.00  0.00    -0.456 A  
HETATM   26  C   UNL     1     -10.412  11.272  64.133  1.00  0.00    -0.431 A  
HETATM   27  C   UNL     1     -11.599  13.308  64.645  1.00  0.00    -0.350 A  
ENDBRANCH  20  21
ENDBRANCH  11  20
ENDBRANCH   6   9
TORSDOF 3
ENDMDL
MODEL      102
REMARK 921   NORMALIZED FREE ENERGY PREDICTED BY IDOCK:   -5.12 KCAL/MOL
REMARK 922        TOTAL FREE ENERGY PREDICTED BY IDOCK:   -6.79 KCAL/MOL
REMARK 923 INTER-LIGAND FREE ENERGY PREDICTED BY IDOCK:   -5.81 KCAL/MOL
REMARK 924 INTRA-LIGAND FREE ENERGY PREDICTED BY IDOCK:   -0.98 KCAL/MOL
REMARK 927      BINDING AFFINITY PREDICTED BY RF-SCORE:    0.00 PKD
ROOT
HETATM    1  C   UNL     1      -5.186   9.433  70.390  1.00  0.00    -0.027 C  
HETATM    2  N   UNL     1      -6.057  10.113  69.423  1.00  0.00    -0.041 NA 
HETATM    3  C   UNL     1      -5.224  10.915  68.519  1.00  0.00    -0.040 C  
HETATM    4  C   UNL     1      -5.964  11.693  67.433  1.00  0.00    -0.096 C  
HETATM    5  C   UNL     1      -6.564  10.790  66.357  1.00  0.00    -0.128 C  
HETATM    6  C   UNL     1      -7.982  10.293  66.683  1.00  0.00    -0.116 C  
HETATM    7  C   UNL     1      -6.938   9.141  68.757  1.00  0.00    -0.062 C  
HETATM    8  C   UNL     1      -8.171   9.798  68.125  1.00  0.00    -0.109 C  
ENDROOT
BRANCH   6   9
HETATM    9  N   UNL     1      -9.028  11.281  66.314  1.00  0.00    -0.193 N  
HETATM   10  N   UNL     1      -9.237  12.319  67.188  1.00  0.00    -0.190 NA 
HETATM   11  C   UNL     1     -10.091  13.253  66.910  1.00  0.00    -0.250 C  
HETATM   12  O   UNL     1      -9.573  10.195  64.337  1.00  0.00    -0.287 OA 
HETATM   13  C   UNL     1     -10.903  13.251  65.676  1.00  0.00    -0.291 A  
HETATM   14  C   UNL     1     -11.810  14.266  65.349  1.00  0.00    -0.363 A  
HETATM   15  C   UNL     1      -9.735  11.128  65.124  1.00  0.00    -0.250 C  
HETATM   16  C   UNL     1     -12.514  14.213  64.142  1.00  0.00    -0.267 A  
HETATM   17  C   UNL     1     -10.716  12.184  64.800  1.00  0.00    -0.342 A  
HETATM   18  C   UNL     1     -12.328  13.143  63.268  1.00  0.00    -0.366 A  
HETATM   19  C   UNL     1     -11.433  12.126  63.596  1.00  0.00    -0.566 A  
BRANCH  11  20
HETATM   20  C   UNL     1     -10.186  14.408  67.900  1.00  0.00    -0.232 C  
BRANCH  20  21
HETATM   21  C   UNL     1      -9.212  15.549  67.698  1.00  0.00    -0.190 A  
HETATM   22 CL   UNL     1      -5.985  18.653  66.992  1.00  0.00    -0.166 Cl 
HETATM   23  C   UNL     1      -8.639  16.242  68.775  1.00  0.00    -0.240 A  
HETATM   24  C   UNL     1      -7.772  16.804  66.178  1.00  0.00    -0.208 A  
HETATM   25  C   UNL     1      -7.654  17.212  68.554  1.00  0.00    -0.245 A  
HETATM   26  C   UNL     1      -8.760  15.839  66.398  1.00  0.00    -0.372 A  
HETATM   27  C   UNL     1      -7.223  17.487  67.258  1.00  0.00    -0.170 A  
ENDBRANCH  20  21
ENDBRANCH  11  20
ENDBRANCH   6   9
TORSDOF 3
ENDMDL
MODEL      103
REMARK 921   NORMALIZED FREE ENERGY PREDICTED BY IDOCK:   -5.11 KCAL/MOL
REMARK 922        TOTAL FREE ENERGY PREDICTED BY IDOCK:   -6.78 KCAL/MOL
REMARK 923 INTER-LIGAND FREE ENERGY PREDICTED BY IDOCK:   -6.75 KCAL/MOL
REMARK 924 INTRA-LIGAND FREE ENERGY PREDICTED BY IDOCK:   -0.03 KCAL/MOL
REMARK 927      BINDING AFFINITY PREDICTED BY RF-SCORE:    0.00 PKD
ROOT
HETATM    1  C   UNL     1     -11.703  14.723  64.618  1.00  0.00    -0.422 C  
HETATM    2  N   UNL     1     -11.266  13.952  65.789  1.00  0.00    -0.300 NA 
HETATM    3  C   UNL     1     -11.294  14.828  66.968  1.00  0.00    -0.353 C  
HETATM    4  C   UNL     1     -10.873  14.189  68.291  1.00  0.00    -0.259 C  
HETATM    5  C   UNL     1     -11.887  13.172  68.809  1.00  0.00    -0.361 C  
HETATM    6  C   UNL     1     -11.659  11.745  68.284  1.00  0.00    -0.308 C  
HETATM    7  C   UNL     1     -12.056  12.718  65.914  1.00  0.00    -0.426 C  
HETATM    8  C   UNL     1     -11.364  11.657  66.778  1.00  0.00    -0.354 C  
ENDROOT
BRANCH   6   9
HETATM    9  N   UNL     1     -10.642  11.005  69.073  1.00  0.00    -0.216 N  
HETATM   10  N   UNL     1     -11.091  10.314  70.171  1.00  0.00    -0.299 NA 
HETATM   11  C   UNL     1     -10.275   9.596  70.878  1.00  0.00    -0.232 C  
HETATM   12  O   UNL     1      -8.883  11.662  67.711  1.00  0.00    -0.149 OA 
HETATM   13  C   UNL     1      -8.832   9.501  70.578  1.00  0.00    -0.253 A  
HETATM   14  C   UNL     1      -7.943   8.710  71.316  1.00  0.00    -0.167 A  
HETATM   15  C   UNL     1      -9.306  11.033  68.681  1.00  0.00    -0.194 C  
HETATM   16  C   UNL     1      -6.597   8.640  70.945  1.00  0.00    -0.049 A  
HETATM   17  C   UNL     1      -8.366  10.225  69.483  1.00  0.00    -0.162 A  
HETATM   18  C   UNL     1      -6.131   9.368  69.852  1.00  0.00    -0.039 A  
HETATM   19  C   UNL     1      -7.012  10.164  69.122  1.00  0.00    -0.062 A  
BRANCH  11  20
HETATM   20  C   UNL     1     -10.887   8.794  72.021  1.00  0.00    -0.428 C  
BRANCH  20  21
HETATM   21  C   UNL     1     -10.748   7.290  71.937  1.00  0.00    -0.243 A  
HETATM   22 CL   UNL     1      -9.890   2.843  71.768  1.00  0.00    -0.228 Cl 
HETATM   23  C   UNL     1     -10.761   6.605  70.712  1.00  0.00    -0.282 A  
HETATM   24  C   UNL     1     -10.205   5.190  73.058  1.00  0.00    -0.217 A  
HETATM   25  C   UNL     1     -10.512   5.228  70.664  1.00  0.00    -0.306 A  
HETATM   26  C   UNL     1     -10.459   6.564  73.107  1.00  0.00    -0.272 A  
HETATM   27  C   UNL     1     -10.232   4.528  71.835  1.00  0.00    -0.171 A  
ENDBRANCH  20  21
ENDBRANCH  11  20
ENDBRANCH   6   9
TORSDOF 3
ENDMDL
MODEL      104
REMARK 921   NORMALIZED FREE ENERGY PREDICTED BY IDOCK:   -5.08 KCAL/MOL
REMARK 922        TOTAL FREE ENERGY PREDICTED BY IDOCK:   -6.74 KCAL/MOL
REMARK 923 INTER-LIGAND FREE ENERGY PREDICTED BY IDOCK:   -6.49 KCAL/MOL
REMARK 924 INTRA-LIGAND FREE ENERGY PREDICTED BY IDOCK:   -0.25 KCAL/MOL
REMARK 927      BINDING AFFINITY PREDICTED BY RF-SCORE:    0.00 PKD
ROOT
HETATM    1  C   UNL     1      -7.851   6.320  64.748  1.00  0.00    -0.110 C  
HETATM    2  N   UNL     1      -8.096   7.720  65.118  1.00  0.00    -0.133 NA 
HETATM    3  C   UNL     1      -8.408   8.482  63.902  1.00  0.00    -0.087 C  
HETATM    4  C   UNL     1      -8.701   9.968  64.096  1.00  0.00    -0.221 C  
HETATM    5  C   UNL     1     -10.028  10.226  64.806  1.00  0.00    -0.392 C  
HETATM    6  C   UNL     1      -9.917  10.258  66.339  1.00  0.00    -0.229 C  
HETATM    7  C   UNL     1      -9.112   7.798  66.178  1.00  0.00    -0.153 C  
HETATM    8  C   UNL     1      -9.068   9.128  66.942  1.00  0.00    -0.163 C  
ENDROOT
BRANCH   6   9
HETATM    9  N   UNL     1      -9.486  11.583  66.849  1.00  0.00    -0.179 N  
HETATM   10  N   UNL     1     -10.470  12.517  67.063  1.00  0.00    -0.230 NA 
HETATM   11  C   UNL     1     -10.182  13.678  67.562  1.00  0.00    -0.241 C  
HETATM   12  O   UNL     1      -7.238  11.008  66.890  1.00  0.00    -0.117 OA 
HETATM   13  C   UNL     1      -8.801  14.080  67.898  1.00  0.00    -0.185 A  
HETATM   14  C   UNL     1      -8.477  15.320  68.462  1.00  0.00    -0.162 A  
HETATM   15  C   UNL     1      -8.136  11.826  67.093  1.00  0.00    -0.169 C  
HETATM   16  C   UNL     1      -7.149  15.613  68.790  1.00  0.00    -0.127 A  
HETATM   17  C   UNL     1      -7.795  13.148  67.655  1.00  0.00    -0.169 A  
HETATM   18  C   UNL     1      -6.143  14.681  68.543  1.00  0.00    -0.091 A  
HETATM   19  C   UNL     1      -6.462  13.450  67.972  1.00  0.00    -0.131 A  
BRANCH  11  20
HETATM   20  C   UNL     1     -11.354  14.609  67.846  1.00  0.00    -0.332 C  
BRANCH  20  21
HETATM   21  C   UNL     1     -11.814  14.692  69.286  1.00  0.00    -0.357 A  
HETATM   22 CL   UNL     1     -12.757  15.000  73.708  1.00  0.00    -0.647 Cl 
HETATM   23  C   UNL     1     -12.183  13.554  70.019  1.00  0.00    -0.381 A  
HETATM   24  C   UNL     1     -12.043  16.025  71.318  1.00  0.00    -0.440 A  
HETATM   25  C   UNL     1     -12.490  13.653  71.381  1.00  0.00    -0.374 A  
HETATM   26  C   UNL     1     -11.742  15.926  69.956  1.00  0.00    -0.340 A  
HETATM   27  C   UNL     1     -12.415  14.887  72.025  1.00  0.00    -0.334 A  
ENDBRANCH  20  21
ENDBRANCH  11  20
ENDBRANCH   6   9
TORSDOF 3
ENDMDL
MODEL      105
REMARK 921   NORMALIZED FREE ENERGY PREDICTED BY IDOCK:   -5.08 KCAL/MOL
REMARK 922        TOTAL FREE ENERGY PREDICTED BY IDOCK:   -6.74 KCAL/MOL
REMARK 923 INTER-LIGAND FREE ENERGY PREDICTED BY IDOCK:   -5.96 KCAL/MOL
REMARK 924 INTRA-LIGAND FREE ENERGY PREDICTED BY IDOCK:   -0.78 KCAL/MOL
REMARK 927      BINDING AFFINITY PREDICTED BY RF-SCORE:    0.00 PKD
ROOT
HETATM    1  C   UNL     1      -8.178   4.821  64.898  1.00  0.00    -0.120 C  
HETATM    2  N   UNL     1      -8.874   5.711  65.835  1.00  0.00    -0.150 NA 
HETATM    3  C   UNL     1     -10.265   5.259  65.972  1.00  0.00    -0.126 C  
HETATM    4  C   UNL     1     -11.145   6.069  66.921  1.00  0.00    -0.253 C  
HETATM    5  C   UNL     1     -10.762   5.890  68.388  1.00  0.00    -0.323 C  
HETATM    6  C   UNL     1      -9.686   6.874  68.874  1.00  0.00    -0.142 C  
HETATM    7  C   UNL     1      -8.127   5.809  67.098  1.00  0.00    -0.102 C  
HETATM    8  C   UNL     1      -8.502   7.054  67.911  1.00  0.00    -0.124 C  
ENDROOT
BRANCH   6   9
HETATM    9  N   UNL     1     -10.257   8.186  69.273  1.00  0.00    -0.210 N  
HETATM   10  N   UNL     1      -9.900   9.274  68.516  1.00  0.00    -0.154 NA 
HETATM   11  C   UNL     1     -10.401  10.444  68.764  1.00  0.00    -0.196 C  
HETATM   12  O   UNL     1     -11.431   7.302  71.069  1.00  0.00    -0.269 OA 
HETATM   13  C   UNL     1     -11.345  10.688  69.874  1.00  0.00    -0.386 A  
HETATM   14  C   UNL     1     -11.914  11.939  70.139  1.00  0.00    -0.413 A  
HETATM   15  C   UNL     1     -11.114   8.264  70.368  1.00  0.00    -0.235 C  
HETATM   16  C   UNL     1     -12.832  12.082  71.185  1.00  0.00    -0.331 A  
HETATM   17  C   UNL     1     -11.686   9.592  70.664  1.00  0.00    -0.353 A  
HETATM   18  C   UNL     1     -13.169  10.986  71.977  1.00  0.00    -0.447 A  
HETATM   19  C   UNL     1     -12.596   9.742  71.721  1.00  0.00    -0.506 A  
BRANCH  11  20
HETATM   20  C   UNL     1     -10.014  11.568  67.812  1.00  0.00    -0.195 C  
BRANCH  20  21
HETATM   21  C   UNL     1      -8.905  11.266  66.828  1.00  0.00    -0.170 A  
HETATM   22 CL   UNL     1      -5.633   9.922  63.994  1.00  0.00    -0.088 Cl 
HETATM   23  C   UNL     1      -7.556  11.523  67.119  1.00  0.00    -0.149 A  
HETATM   24  C   UNL     1      -8.207  10.174  64.759  1.00  0.00    -0.161 A  
HETATM   25  C   UNL     1      -6.548  11.122  66.235  1.00  0.00    -0.069 A  
HETATM   26  C   UNL     1      -9.214  10.580  65.640  1.00  0.00    -0.221 A  
HETATM   27  C   UNL     1      -6.877  10.447  65.061  1.00  0.00    -0.065 A  
ENDBRANCH  20  21
ENDBRANCH  11  20
ENDBRANCH   6   9
TORSDOF 3
ENDMDL
MODEL      106
REMARK 921   NORMALIZED FREE ENERGY PREDICTED BY IDOCK:   -5.06 KCAL/MOL
REMARK 922        TOTAL FREE ENERGY PREDICTED BY IDOCK:   -6.72 KCAL/MOL
REMARK 923 INTER-LIGAND FREE ENERGY PREDICTED BY IDOCK:   -5.80 KCAL/MOL
REMARK 924 INTRA-LIGAND FREE ENERGY PREDICTED BY IDOCK:   -0.92 KCAL/MOL
REMARK 927      BINDING AFFINITY PREDICTED BY RF-SCORE:    0.00 PKD
ROOT
HETATM    1  C   UNL     1      -9.608   8.523  72.190  1.00  0.00    -0.312 C  
HETATM    2  N   UNL     1      -9.717   9.507  71.105  1.00  0.00    -0.174 NA 
HETATM    3  C   UNL     1      -8.447   9.539  70.367  1.00  0.00    -0.201 C  
HETATM    4  C   UNL     1      -8.377  10.508  69.189  1.00  0.00    -0.154 C  
HETATM    5  C   UNL     1      -9.248  10.078  68.012  1.00  0.00    -0.139 C  
HETATM    6  C   UNL     1     -10.694  10.595  68.087  1.00  0.00    -0.225 C  
HETATM    7  C   UNL     1     -10.905   9.233  70.283  1.00  0.00    -0.246 C  
HETATM    8  C   UNL     1     -11.353  10.453  69.468  1.00  0.00    -0.325 C  
ENDROOT
BRANCH   6   9
HETATM    9  N   UNL     1     -10.829  11.980  67.569  1.00  0.00    -0.231 N  
HETATM   10  N   UNL     1     -10.441  12.997  68.407  1.00  0.00    -0.248 NA 
HETATM   11  C   UNL     1     -10.473  14.229  68.007  1.00  0.00    -0.235 C  
HETATM   12  O   UNL     1     -11.694  11.297  65.527  1.00  0.00     0.018 OA 
HETATM   13  C   UNL     1     -10.949  14.621  66.665  1.00  0.00    -0.323 A  
HETATM   14  C   UNL     1     -10.965  15.945  66.210  1.00  0.00    -0.112 A  
HETATM   15  C   UNL     1     -11.324  12.194  66.285  1.00  0.00    -0.357 C  
HETATM   16  C   UNL     1     -11.393  16.232  64.909  1.00  0.00    -0.161 A  
HETATM   17  C   UNL     1     -11.372  13.595  65.822  1.00  0.00    -0.315 A  
HETATM   18  C   UNL     1     -11.819  15.205  64.069  1.00  0.00    -0.012 A  
HETATM   19  C   UNL     1     -11.814  13.888  64.523  1.00  0.00    -0.449 A  
BRANCH  11  20
HETATM   20  C   UNL     1      -9.937  15.275  68.977  1.00  0.00    -0.229 C  
BRANCH  20  21
HETATM   21  C   UNL     1      -8.674  15.996  68.560  1.00  0.00    -0.195 A  
HETATM   22 CL   UNL     1      -5.141  18.365  66.993  1.00  0.00    -0.134 Cl 
HETATM   23  C   UNL     1      -7.669  15.369  67.807  1.00  0.00    -0.160 A  
HETATM   24  C   UNL     1      -7.464  18.105  68.339  1.00  0.00    -0.287 A  
HETATM   25  C   UNL     1      -6.571  16.099  67.338  1.00  0.00    -0.219 A  
HETATM   26  C   UNL     1      -8.559  17.375  68.812  1.00  0.00    -0.221 A  
HETATM   27  C   UNL     1      -6.474  17.463  67.603  1.00  0.00    -0.150 A  
ENDBRANCH  20  21
ENDBRANCH  11  20
ENDBRANCH   6   9
TORSDOF 3
ENDMDL
MODEL      107
REMARK 921   NORMALIZED FREE ENERGY PREDICTED BY IDOCK:   -5.05 KCAL/MOL
REMARK 922        TOTAL FREE ENERGY PREDICTED BY IDOCK:   -6.71 KCAL/MOL
REMARK 923 INTER-LIGAND FREE ENERGY PREDICTED BY IDOCK:   -6.67 KCAL/MOL
REMARK 924 INTRA-LIGAND FREE ENERGY PREDICTED BY IDOCK:   -0.05 KCAL/MOL
REMARK 927      BINDING AFFINITY PREDICTED BY RF-SCORE:    0.00 PKD
ROOT
HETATM    1  C   UNL     1      -8.157  19.935  68.487  1.00  0.00    -0.168 C  
HETATM    2  N   UNL     1      -8.606  18.593  68.097  1.00  0.00    -0.298 NA 
HETATM    3  C   UNL     1      -7.495  17.650  68.279  1.00  0.00    -0.251 C  
HETATM    4  C   UNL     1      -7.783  16.192  67.927  1.00  0.00    -0.148 C  
HETATM    5  C   UNL     1      -8.739  15.521  68.910  1.00  0.00    -0.206 C  
HETATM    6  C   UNL     1     -10.224  15.689  68.546  1.00  0.00    -0.211 C  
HETATM    7  C   UNL     1      -9.842  18.240  68.812  1.00  0.00    -0.357 C  
HETATM    8  C   UNL     1     -10.621  17.112  68.124  1.00  0.00    -0.380 C  
ENDROOT
BRANCH   6   9
HETATM    9  N   UNL     1     -10.681  14.686  67.551  1.00  0.00    -0.265 N  
HETATM   10  N   UNL     1     -10.840  13.397  67.996  1.00  0.00    -0.241 NA 
HETATM   11  C   UNL     1     -11.290  12.477  67.203  1.00  0.00    -0.324 C  
HETATM   12  O   UNL     1     -10.777  16.225  65.817  1.00  0.00    -0.318 OA 
HETATM   13  C   UNL     1     -11.627  12.736  65.788  1.00  0.00    -0.419 A  
HETATM   14  C   UNL     1     -12.139  11.759  64.927  1.00  0.00     0.012 A  
HETATM   15  C   UNL     1     -10.931  15.079  66.238  1.00  0.00    -0.338 C  
HETATM   16  C   UNL     1     -12.471  12.092  63.610  1.00  0.00    -0.658 A  
HETATM   17  C   UNL     1     -11.438  14.036  65.324  1.00  0.00    -0.322 A  
HETATM   18  C   UNL     1     -12.279  13.392  63.146  1.00  0.00    -0.139 A  
HETATM   19  C   UNL     1     -11.759  14.364  63.999  1.00  0.00    -0.147 A  
BRANCH  11  20
HETATM   20  C   UNL     1     -11.518  11.100  67.816  1.00  0.00    -0.349 C  
BRANCH  20  21
HETATM   21  C   UNL     1     -10.411  10.086  67.623  1.00  0.00    -0.297 A  
HETATM   22 CL   UNL     1      -7.155   6.936  67.483  1.00  0.00    -0.082 Cl 
HETATM   23  C   UNL     1      -9.060  10.457  67.561  1.00  0.00    -0.142 A  
HETATM   24  C   UNL     1      -9.727   7.743  67.590  1.00  0.00    -0.193 A  
HETATM   25  C   UNL     1      -8.056   9.483  67.501  1.00  0.00    -0.110 A  
HETATM   26  C   UNL     1     -10.729   8.716  67.644  1.00  0.00    -0.194 A  
HETATM   27  C   UNL     1      -8.393   8.131  67.519  1.00  0.00    -0.123 A  
ENDBRANCH  20  21
ENDBRANCH  11  20
ENDBRANCH   6   9
TORSDOF 3
ENDMDL
MODEL      108
REMARK 921   NORMALIZED FREE ENERGY PREDICTED BY IDOCK:   -5.03 KCAL/MOL
REMARK 922        TOTAL FREE ENERGY PREDICTED BY IDOCK:   -6.69 KCAL/MOL
REMARK 923 INTER-LIGAND FREE ENERGY PREDICTED BY IDOCK:   -6.18 KCAL/MOL
REMARK 924 INTRA-LIGAND FREE ENERGY PREDICTED BY IDOCK:   -0.51 KCAL/MOL
REMARK 927      BINDING AFFINITY PREDICTED BY RF-SCORE:    0.00 PKD
ROOT
HETATM    1  C   UNL     1      -8.223   8.170  73.513  1.00  0.00    -0.215 C  
HETATM    2  N   UNL     1      -8.419   8.826  72.214  1.00  0.00    -0.396 NA 
HETATM    3  C   UNL     1      -7.377   8.361  71.288  1.00  0.00    -0.086 C  
HETATM    4  C   UNL     1      -7.428   8.937  69.874  1.00  0.00    -0.058 C  
HETATM    5  C   UNL     1      -8.617   8.424  69.065  1.00  0.00    -0.131 C  
HETATM    6  C   UNL     1      -9.893   9.266  69.233  1.00  0.00    -0.172 C  
HETATM    7  C   UNL     1      -9.798   8.629  71.744  1.00  0.00    -0.295 C  
HETATM    8  C   UNL     1     -10.215   9.656  70.684  1.00  0.00    -0.346 C  
ENDROOT
BRANCH   6   9
HETATM    9  N   UNL     1      -9.909  10.454  68.342  1.00  0.00    -0.157 N  
HETATM   10  N   UNL     1      -9.234  11.567  68.779  1.00  0.00    -0.123 NA 
HETATM   11  C   UNL     1      -9.153  12.624  68.034  1.00  0.00    -0.207 C  
HETATM   12  O   UNL     1     -11.210   9.415  66.726  1.00  0.00     0.262 OA 
HETATM   13  C   UNL     1      -9.794  12.715  66.706  1.00  0.00    -0.236 A  
HETATM   14  C   UNL     1      -9.693  13.840  65.879  1.00  0.00    -0.217 A  
HETATM   15  C   UNL     1     -10.585  10.398  67.126  1.00  0.00    -0.261 C  
HETATM   16  C   UNL     1     -10.295  13.835  64.616  1.00  0.00    -0.393 A  
HETATM   17  C   UNL     1     -10.505  11.599  66.272  1.00  0.00    -0.286 A  
HETATM   18  C   UNL     1     -11.010  12.719  64.184  1.00  0.00    -0.435 A  
HETATM   19  C   UNL     1     -11.120  11.603  65.011  1.00  0.00    -0.312 A  
BRANCH  11  20
HETATM   20  C   UNL     1      -8.306  13.773  68.569  1.00  0.00    -0.120 C  
BRANCH  20  21
HETATM   21  C   UNL     1      -8.902  15.159  68.455  1.00  0.00    -0.185 A  
HETATM   22 CL   UNL     1     -10.359  19.450  68.398  1.00  0.00    -0.498 Cl 
HETATM   23  C   UNL     1     -10.080  15.523  69.125  1.00  0.00    -0.239 A  
HETATM   24  C   UNL     1      -8.639  17.479  67.743  1.00  0.00    -0.230 A  
HETATM   25  C   UNL     1     -10.538  16.846  69.092  1.00  0.00    -0.330 A  
HETATM   26  C   UNL     1      -8.185  16.157  67.771  1.00  0.00    -0.162 A  
HETATM   27  C   UNL     1      -9.814  17.818  68.405  1.00  0.00    -0.347 A  
ENDBRANCH  20  21
ENDBRANCH  11  20
ENDBRANCH   6   9
TORSDOF 3
ENDMDL
MODEL      109
REMARK 921   NORMALIZED FREE ENERGY PREDICTED BY IDOCK:   -5.02 KCAL/MOL
REMARK 922        TOTAL FREE ENERGY PREDICTED BY IDOCK:   -6.67 KCAL/MOL
REMARK 923 INTER-LIGAND FREE ENERGY PREDICTED BY IDOCK:   -6.79 KCAL/MOL
REMARK 924 INTRA-LIGAND FREE ENERGY PREDICTED BY IDOCK:    0.12 KCAL/MOL
REMARK 927      BINDING AFFINITY PREDICTED BY RF-SCORE:    0.00 PKD
ROOT
HETATM    1  C   UNL     1      -7.642  19.040  66.830  1.00  0.00    -0.232 C  
HETATM    2  N   UNL     1      -8.499  17.892  67.155  1.00  0.00    -0.228 NA 
HETATM    3  C   UNL     1      -9.724  17.973  66.348  1.00  0.00    -0.321 C  
HETATM    4  C   UNL     1     -10.738  16.850  66.549  1.00  0.00    -0.087 C  
HETATM    5  C   UNL     1     -10.258  15.509  65.998  1.00  0.00    -0.349 C  
HETATM    6  C   UNL     1      -9.446  14.678  67.005  1.00  0.00    -0.241 C  
HETATM    7  C   UNL     1      -7.747  16.636  67.016  1.00  0.00    -0.200 C  
HETATM    8  C   UNL     1      -8.388  15.475  67.785  1.00  0.00    -0.155 C  
ENDROOT
BRANCH   6   9
HETATM    9  N   UNL     1     -10.310  13.894  67.922  1.00  0.00    -0.236 N  
HETATM   10  N   UNL     1     -10.454  12.556  67.648  1.00  0.00    -0.215 NA 
HETATM   11  C   UNL     1     -11.145  11.792  68.434  1.00  0.00    -0.237 C  
HETATM   12  O   UNL     1     -10.822  15.724  69.254  1.00  0.00    -0.220 OA 
HETATM   13  C   UNL     1     -11.838  12.301  69.636  1.00  0.00    -0.393 A  
HETATM   14  C   UNL     1     -12.566  11.484  70.508  1.00  0.00    -0.286 A  
HETATM   15  C   UNL     1     -10.924  14.523  69.002  1.00  0.00    -0.257 C  
HETATM   16  C   UNL     1     -13.161  12.034  71.648  1.00  0.00    -0.422 A  
HETATM   17  C   UNL     1     -11.720  13.664  69.901  1.00  0.00    -0.346 A  
HETATM   18  C   UNL     1     -13.045  13.398  71.911  1.00  0.00    -0.476 A  
HETATM   19  C   UNL     1     -12.330  14.215  71.038  1.00  0.00    -0.438 A  
BRANCH  11  20
HETATM   20  C   UNL     1     -11.169  10.306  68.094  1.00  0.00    -0.294 C  
BRANCH  20  21
HETATM   21  C   UNL     1      -9.925   9.745  67.440  1.00  0.00    -0.239 A  
HETATM   22 CL   UNL     1      -6.024   8.482  65.509  1.00  0.00    -0.044 Cl 
HETATM   23  C   UNL     1      -9.865   9.465  66.066  1.00  0.00    -0.366 A  
HETATM   24  C   UNL     1      -7.546   9.228  67.607  1.00  0.00    -0.088 A  
HETATM   25  C   UNL     1      -8.663   9.059  65.474  1.00  0.00    -0.212 A  
HETATM   26  C   UNL     1      -8.748   9.628  68.199  1.00  0.00    -0.119 A  
HETATM   27  C   UNL     1      -7.509   8.946  66.246  1.00  0.00    -0.091 A  
ENDBRANCH  20  21
ENDBRANCH  11  20
ENDBRANCH   6   9
TORSDOF 3
ENDMDL
MODEL      110
REMARK 921   NORMALIZED FREE ENERGY PREDICTED BY IDOCK:   -4.98 KCAL/MOL
REMARK 922        TOTAL FREE ENERGY PREDICTED BY IDOCK:   -6.63 KCAL/MOL
REMARK 923 INTER-LIGAND FREE ENERGY PREDICTED BY IDOCK:   -5.50 KCAL/MOL
REMARK 924 INTRA-LIGAND FREE ENERGY PREDICTED BY IDOCK:   -1.13 KCAL/MOL
REMARK 927      BINDING AFFINITY PREDICTED BY RF-SCORE:    0.00 PKD
ROOT
HETATM    1  C   UNL     1      -6.903  14.296  68.464  1.00  0.00    -0.100 C  
HETATM    2  N   UNL     1      -7.420  12.941  68.230  1.00  0.00    -0.116 NA 
HETATM    3  C   UNL     1      -8.845  13.032  67.885  1.00  0.00    -0.193 C  
HETATM    4  C   UNL     1      -9.554  11.710  67.598  1.00  0.00    -0.184 C  
HETATM    5  C   UNL     1      -9.102  11.063  66.291  1.00  0.00    -0.196 C  
HETATM    6  C   UNL     1      -7.882  10.140  66.444  1.00  0.00    -0.114 C  
HETATM    7  C   UNL     1      -6.586  12.239  67.243  1.00  0.00    -0.146 C  
HETATM    8  C   UNL     1      -6.749  10.716  67.309  1.00  0.00    -0.078 C  
ENDROOT
BRANCH   6   9
HETATM    9  N   UNL     1      -8.256   8.774  66.890  1.00  0.00    -0.108 N  
HETATM   10  N   UNL     1      -8.417   8.585  68.240  1.00  0.00    -0.133 NA 
HETATM   11  C   UNL     1      -8.799   7.436  68.704  1.00  0.00    -0.126 C  
HETATM   12  O   UNL     1      -8.276   7.910  64.736  1.00  0.00    -0.148 OA 
HETATM   13  C   UNL     1      -9.053   6.269  67.834  1.00  0.00    -0.111 A  
HETATM   14  C   UNL     1      -9.492   5.031  68.318  1.00  0.00    -0.173 A  
HETATM   15  C   UNL     1      -8.433   7.763  65.949  1.00  0.00    -0.142 C  
HETATM   16  C   UNL     1      -9.749   3.984  67.426  1.00  0.00    -0.190 A  
HETATM   17  C   UNL     1      -8.862   6.449  66.466  1.00  0.00    -0.140 A  
HETATM   18  C   UNL     1      -9.553   4.164  66.058  1.00  0.00    -0.198 A  
HETATM   19  C   UNL     1      -9.107   5.393  65.576  1.00  0.00    -0.126 A  
BRANCH  11  20
HETATM   20  C   UNL     1      -9.037   7.352  70.207  1.00  0.00    -0.151 C  
BRANCH  20  21
HETATM   21  C   UNL     1     -10.419   7.732  70.693  1.00  0.00    -0.213 A  
HETATM   22 CL   UNL     1     -14.371   8.936  72.556  1.00  0.00    -0.436 Cl 
HETATM   23  C   UNL     1     -11.411   6.773  70.946  1.00  0.00    -0.384 A  
HETATM   24  C   UNL     1     -11.902   9.446  71.599  1.00  0.00    -0.464 A  
HETATM   25  C   UNL     1     -12.638   7.149  71.506  1.00  0.00    -0.427 A  
HETATM   26  C   UNL     1     -10.679   9.071  71.034  1.00  0.00    -0.339 A  
HETATM   27  C   UNL     1     -12.877   8.482  71.833  1.00  0.00    -0.363 A  
ENDBRANCH  20  21
ENDBRANCH  11  20
ENDBRANCH   6   9
TORSDOF 3
ENDMDL
MODEL      111
REMARK 921   NORMALIZED FREE ENERGY PREDICTED BY IDOCK:   -4.98 KCAL/MOL
REMARK 922        TOTAL FREE ENERGY PREDICTED BY IDOCK:   -6.63 KCAL/MOL
REMARK 923 INTER-LIGAND FREE ENERGY PREDICTED BY IDOCK:   -5.67 KCAL/MOL
REMARK 924 INTRA-LIGAND FREE ENERGY PREDICTED BY IDOCK:   -0.96 KCAL/MOL
REMARK 927      BINDING AFFINITY PREDICTED BY RF-SCORE:    0.00 PKD
ROOT
HETATM    1  C   UNL     1     -12.874  11.918  63.095  1.00  0.00    -0.013 C  
HETATM    2  N   UNL     1     -11.969  12.421  64.136  1.00  0.00    -0.402 NA 
HETATM    3  C   UNL     1     -12.768  13.067  65.186  1.00  0.00    -0.397 C  
HETATM    4  C   UNL     1     -11.990  13.648  66.364  1.00  0.00    -0.466 C  
HETATM    5  C   UNL     1     -11.371  12.574  67.256  1.00  0.00    -0.373 C  
HETATM    6  C   UNL     1      -9.968  12.129  66.812  1.00  0.00    -0.203 C  
HETATM    7  C   UNL     1     -11.081  11.346  64.606  1.00  0.00    -0.207 C  
HETATM    8  C   UNL     1      -9.824  11.881  65.302  1.00  0.00    -0.255 C  
ENDROOT
BRANCH   6   9
HETATM    9  N   UNL     1      -8.902  13.035  67.310  1.00  0.00    -0.199 N  
HETATM   10  N   UNL     1      -8.795  14.261  66.702  1.00  0.00    -0.190 NA 
HETATM   11  C   UNL     1      -7.928  15.130  67.118  1.00  0.00    -0.215 C  
HETATM   12  O   UNL     1      -8.144  11.521  68.897  1.00  0.00    -0.123 OA 
HETATM   13  C   UNL     1      -6.994  14.857  68.230  1.00  0.00    -0.118 A  
HETATM   14  C   UNL     1      -6.071  15.795  68.707  1.00  0.00    -0.101 A  
HETATM   15  C   UNL     1      -8.075  12.623  68.352  1.00  0.00    -0.137 C  
HETATM   16  C   UNL     1      -5.246  15.474  69.791  1.00  0.00    -0.100 A  
HETATM   17  C   UNL     1      -7.079  13.603  68.830  1.00  0.00    -0.103 A  
HETATM   18  C   UNL     1      -5.329  14.218  70.388  1.00  0.00    -0.109 A  
HETATM   19  C   UNL     1      -6.241  13.280  69.907  1.00  0.00    -0.097 A  
BRANCH  11  20
HETATM   20  C   UNL     1      -7.949  16.494  66.438  1.00  0.00    -0.352 C  
BRANCH  20  21
HETATM   21  C   UNL     1      -8.748  17.579  67.129  1.00  0.00    -0.247 A  
HETATM   22 CL   UNL     1     -10.747  20.974  69.369  1.00  0.00     0.585 Cl 
HETATM   23  C   UNL     1      -9.527  17.323  68.267  1.00  0.00    -0.283 A  
HETATM   24  C   UNL     1      -9.226  19.959  67.387  1.00  0.00    -0.455 A  
HETATM   25  C   UNL     1     -10.157  18.371  68.949  1.00  0.00    -0.352 A  
HETATM   26  C   UNL     1      -8.601  18.911  66.703  1.00  0.00    -0.312 A  
HETATM   27  C   UNL     1     -10.001  19.684  68.508  1.00  0.00    -0.443 A  
ENDBRANCH  20  21
ENDBRANCH  11  20
ENDBRANCH   6   9
TORSDOF 3
ENDMDL
MODEL      112
REMARK 921   NORMALIZED FREE ENERGY PREDICTED BY IDOCK:   -4.96 KCAL/MOL
REMARK 922        TOTAL FREE ENERGY PREDICTED BY IDOCK:   -6.60 KCAL/MOL
REMARK 923 INTER-LIGAND FREE ENERGY PREDICTED BY IDOCK:   -5.51 KCAL/MOL
REMARK 924 INTRA-LIGAND FREE ENERGY PREDICTED BY IDOCK:   -1.09 KCAL/MOL
REMARK 927      BINDING AFFINITY PREDICTED BY RF-SCORE:    0.00 PKD
ROOT
HETATM    1  C   UNL     1     -11.121  15.556  70.877  1.00  0.00    -0.348 C  
HETATM    2  N   UNL     1     -10.815  14.623  69.785  1.00  0.00    -0.199 NA 
HETATM    3  C   UNL     1     -11.818  13.551  69.784  1.00  0.00    -0.329 C  
HETATM    4  C   UNL     1     -11.662  12.484  68.702  1.00  0.00    -0.368 C  
HETATM    5  C   UNL     1     -11.969  13.007  67.301  1.00  0.00    -0.379 C  
HETATM    6  C   UNL     1     -10.753  13.619  66.585  1.00  0.00    -0.280 C  
HETATM    7  C   UNL     1     -10.682  15.350  68.513  1.00  0.00    -0.256 C  
HETATM    8  C   UNL     1      -9.903  14.557  67.457  1.00  0.00    -0.222 C  
ENDROOT
BRANCH   6   9
HETATM    9  N   UNL     1      -9.910  12.591  65.923  1.00  0.00    -0.258 N  
HETATM   10  N   UNL     1      -8.805  12.157  66.613  1.00  0.00    -0.201 NA 
HETATM   11  C   UNL     1      -8.050  11.221  66.128  1.00  0.00    -0.065 C  
HETATM   12  O   UNL     1     -11.238  12.504  64.023  1.00  0.00    -0.343 OA 
HETATM   13  C   UNL     1      -8.303  10.592  64.815  1.00  0.00    -0.071 A  
HETATM   14  C   UNL     1      -7.513   9.563  64.291  1.00  0.00    -0.119 A  
HETATM   15  C   UNL     1     -10.262  12.113  64.664  1.00  0.00    -0.284 C  
HETATM   16  C   UNL     1      -7.840   8.990  63.057  1.00  0.00    -0.131 A  
HETATM   17  C   UNL     1      -9.406  11.051  64.099  1.00  0.00    -0.235 A  
HETATM   18  C   UNL     1      -8.942   9.453  62.339  1.00  0.00    -0.258 A  
HETATM   19  C   UNL     1      -9.723  10.485  62.855  1.00  0.00    -0.304 A  
BRANCH  11  20
HETATM   20  C   UNL     1      -6.902  10.745  67.010  1.00  0.00    -0.094 C  
BRANCH  20  21
HETATM   21  C   UNL     1      -7.283  10.133  68.340  1.00  0.00    -0.076 A  
HETATM   22 CL   UNL     1      -8.081   8.008  72.263  1.00  0.00    -0.160 Cl 
HETATM   23  C   UNL     1      -8.399   9.297  68.486  1.00  0.00    -0.119 A  
HETATM   24  C   UNL     1      -6.669   9.647  70.652  1.00  0.00    -0.116 A  
HETATM   25  C   UNL     1      -8.654   8.654  69.703  1.00  0.00    -0.131 A  
HETATM   26  C   UNL     1      -6.418  10.293  69.438  1.00  0.00    -0.053 A  
HETATM   27  C   UNL     1      -7.787   8.829  70.779  1.00  0.00    -0.109 A  
ENDBRANCH  20  21
ENDBRANCH  11  20
ENDBRANCH   6   9
TORSDOF 3
ENDMDL
MODEL      113
REMARK 921   NORMALIZED FREE ENERGY PREDICTED BY IDOCK:   -4.94 KCAL/MOL
REMARK 922        TOTAL FREE ENERGY PREDICTED BY IDOCK:   -6.59 KCAL/MOL
REMARK 923 INTER-LIGAND FREE ENERGY PREDICTED BY IDOCK:   -6.87 KCAL/MOL
REMARK 924 INTRA-LIGAND FREE ENERGY PREDICTED BY IDOCK:    0.28 KCAL/MOL
REMARK 927      BINDING AFFINITY PREDICTED BY RF-SCORE:    0.00 PKD
ROOT
HETATM    1  C   UNL     1      -6.976   6.217  65.488  1.00  0.00    -0.056 C  
HETATM    2  N   UNL     1      -7.699   7.020  66.482  1.00  0.00    -0.102 NA 
HETATM    3  C   UNL     1      -6.727   7.609  67.412  1.00  0.00    -0.068 C  
HETATM    4  C   UNL     1      -7.303   8.490  68.519  1.00  0.00    -0.092 C  
HETATM    5  C   UNL     1      -7.865   9.811  67.998  1.00  0.00    -0.086 C  
HETATM    6  C   UNL     1      -9.340   9.734  67.573  1.00  0.00    -0.133 C  
HETATM    7  C   UNL     1      -8.584   7.986  65.814  1.00  0.00    -0.153 C  
HETATM    8  C   UNL     1      -9.700   8.499  66.732  1.00  0.00    -0.303 C  
ENDROOT
BRANCH   6   9
HETATM    9  N   UNL     1     -10.270   9.891  68.720  1.00  0.00    -0.181 N  
HETATM   10  N   UNL     1     -10.647  11.171  69.042  1.00  0.00    -0.215 NA 
HETATM   11  C   UNL     1     -11.501  11.387  69.993  1.00  0.00    -0.247 C  
HETATM   12  O   UNL     1     -10.378   7.612  69.142  1.00  0.00    -0.206 OA 
HETATM   13  C   UNL     1     -12.090  10.299  70.800  1.00  0.00    -0.451 A  
HETATM   14  C   UNL     1     -13.033  10.514  71.812  1.00  0.00    -0.582 A  
HETATM   15  C   UNL     1     -10.719   8.765  69.406  1.00  0.00    -0.169 C  
HETATM   16  C   UNL     1     -13.575   9.427  72.505  1.00  0.00    -0.441 A  
HETATM   17  C   UNL     1     -11.687   9.000  70.496  1.00  0.00    -0.160 A  
HETATM   18  C   UNL     1     -13.167   8.129  72.203  1.00  0.00    -0.254 A  
HETATM   19  C   UNL     1     -12.222   7.913  71.202  1.00  0.00    -0.273 A  
BRANCH  11  20
HETATM   20  C   UNL     1     -11.925  12.835  70.214  1.00  0.00    -0.358 C  
BRANCH  20  21
HETATM   21  C   UNL     1     -11.671  13.792  69.070  1.00  0.00    -0.372 A  
HETATM   22 CL   UNL     1     -10.613  16.357  65.486  1.00  0.00    -0.384 Cl 
HETATM   23  C   UNL     1     -10.895  14.951  69.224  1.00  0.00    -0.272 A  
HETATM   24  C   UNL     1     -11.791  14.241  66.674  1.00  0.00    -0.442 A  
HETATM   25  C   UNL     1     -10.583  15.752  68.119  1.00  0.00    -0.275 A  
HETATM   26  C   UNL     1     -12.107  13.445  67.779  1.00  0.00    -0.299 A  
HETATM   27  C   UNL     1     -11.029  15.392  66.849  1.00  0.00    -0.294 A  
ENDBRANCH  20  21
ENDBRANCH  11  20
ENDBRANCH   6   9
TORSDOF 3
ENDMDL
MODEL      114
REMARK 921   NORMALIZED FREE ENERGY PREDICTED BY IDOCK:   -4.92 KCAL/MOL
REMARK 922        TOTAL FREE ENERGY PREDICTED BY IDOCK:   -6.55 KCAL/MOL
REMARK 923 INTER-LIGAND FREE ENERGY PREDICTED BY IDOCK:   -5.60 KCAL/MOL
REMARK 924 INTRA-LIGAND FREE ENERGY PREDICTED BY IDOCK:   -0.96 KCAL/MOL
REMARK 927      BINDING AFFINITY PREDICTED BY RF-SCORE:    0.00 PKD
ROOT
HETATM    1  C   UNL     1      -7.809  10.261  62.774  1.00  0.00    -0.149 C  
HETATM    2  N   UNL     1      -8.257   9.889  64.122  1.00  0.00    -0.148 NA 
HETATM    3  C   UNL     1      -7.159  10.131  65.068  1.00  0.00    -0.135 C  
HETATM    4  C   UNL     1      -7.447   9.806  66.532  1.00  0.00    -0.095 C  
HETATM    5  C   UNL     1      -8.441  10.773  67.172  1.00  0.00    -0.126 C  
HETATM    6  C   UNL     1      -9.911  10.356  67.002  1.00  0.00    -0.206 C  
HETATM    7  C   UNL     1      -9.518  10.571  64.449  1.00  0.00    -0.281 C  
HETATM    8  C   UNL     1     -10.283   9.885  65.588  1.00  0.00    -0.229 C  
ENDROOT
BRANCH   6   9
HETATM    9  N   UNL     1     -10.343   9.371  68.026  1.00  0.00    -0.208 N  
HETATM   10  N   UNL     1     -10.373   8.052  67.645  1.00  0.00    -0.233 NA 
HETATM   11  C   UNL     1     -10.683   7.126  68.497  1.00  0.00    -0.152 C  
HETATM   12  O   UNL     1     -10.684  10.985  69.658  1.00  0.00    -0.224 OA 
HETATM   13  C   UNL     1     -11.048   7.420  69.897  1.00  0.00    -0.208 A  
HETATM   14  C   UNL     1     -11.360   6.429  70.836  1.00  0.00    -0.398 A  
HETATM   15  C   UNL     1     -10.687   9.805  69.304  1.00  0.00    -0.224 C  
HETATM   16  C   UNL     1     -11.657   6.785  72.155  1.00  0.00    -0.324 A  
HETATM   17  C   UNL     1     -11.049   8.759  70.281  1.00  0.00    -0.240 A  
HETATM   18  C   UNL     1     -11.661   8.125  72.536  1.00  0.00    -0.457 A  
HETATM   19  C   UNL     1     -11.362   9.114  71.601  1.00  0.00    -0.446 A  
BRANCH  11  20
HETATM   20  C   UNL     1     -10.598   5.687  68.001  1.00  0.00    -0.260 C  
BRANCH  20  21
HETATM   21  C   UNL     1      -9.607   5.414  66.891  1.00  0.00    -0.150 A  
HETATM   22 CL   UNL     1      -6.674   4.156  63.673  1.00  0.00    -0.042 Cl 
HETATM   23  C   UNL     1      -8.235   5.670  67.034  1.00  0.00    -0.101 A  
HETATM   24  C   UNL     1      -9.146   4.377  64.729  1.00  0.00    -0.152 A  
HETATM   25  C   UNL     1      -7.332   5.295  66.032  1.00  0.00    -0.081 A  
HETATM   26  C   UNL     1     -10.048   4.756  65.728  1.00  0.00    -0.236 A  
HETATM   27  C   UNL     1      -7.791   4.648  64.886  1.00  0.00    -0.090 A  
ENDBRANCH  20  21
ENDBRANCH  11  20
ENDBRANCH   6   9
TORSDOF 3
ENDMDL
MODEL      115
REMARK 921   NORMALIZED FREE ENERGY PREDICTED BY IDOCK:   -4.91 KCAL/MOL
REMARK 922        TOTAL FREE ENERGY PREDICTED BY IDOCK:   -6.54 KCAL/MOL
REMARK 923 INTER-LIGAND FREE ENERGY PREDICTED BY IDOCK:   -6.35 KCAL/MOL
REMARK 924 INTRA-LIGAND FREE ENERGY PREDICTED BY IDOCK:   -0.19 KCAL/MOL
REMARK 927      BINDING AFFINITY PREDICTED BY RF-SCORE:    0.00 PKD
ROOT
HETATM    1  C   UNL     1     -10.205  16.837  67.147  1.00  0.00    -0.295 C  
HETATM    2  N   UNL     1     -10.520  15.450  67.512  1.00  0.00    -0.269 NA 
HETATM    3  C   UNL     1     -11.261  14.827  66.408  1.00  0.00    -0.342 C  
HETATM    4  C   UNL     1     -11.670  13.369  66.610  1.00  0.00    -0.428 C  
HETATM    5  C   UNL     1     -10.483  12.409  66.583  1.00  0.00    -0.251 C  
HETATM    6  C   UNL     1      -9.822  12.199  67.955  1.00  0.00    -0.199 C  
HETATM    7  C   UNL     1      -9.299  14.738  67.919  1.00  0.00    -0.193 C  
HETATM    8  C   UNL     1      -9.594  13.489  68.759  1.00  0.00     0.009 C  
ENDROOT
BRANCH   6   9
HETATM    9  N   UNL     1     -10.521  11.175  68.771  1.00  0.00    -0.196 N  
HETATM   10  N   UNL     1     -10.185   9.864  68.543  1.00  0.00    -0.170 NA 
HETATM   11  C   UNL     1     -10.709   8.915  69.254  1.00  0.00    -0.162 C  
HETATM   12  O   UNL     1     -11.789  12.739  69.925  1.00  0.00    -0.324 OA 
HETATM   13  C   UNL     1     -11.704   9.170  70.315  1.00  0.00    -0.047 A  
HETATM   14  C   UNL     1     -12.258   8.159  71.109  1.00  0.00    -0.257 A  
HETATM   15  C   UNL     1     -11.462  11.570  69.719  1.00  0.00    -0.286 C  
HETATM   16  C   UNL     1     -13.166   8.484  72.122  1.00  0.00    -0.384 A  
HETATM   17  C   UNL     1     -12.070  10.497  70.531  1.00  0.00    -0.437 A  
HETATM   18  C   UNL     1     -13.535   9.812  72.334  1.00  0.00    -0.364 A  
HETATM   19  C   UNL     1     -12.992  10.818  71.538  1.00  0.00    -0.562 A  
BRANCH  11  20
HETATM   20  C   UNL     1     -10.204   7.502  68.985  1.00  0.00    -0.208 C  
BRANCH  20  21
HETATM   21  C   UNL     1      -9.408   6.849  70.094  1.00  0.00    -0.159 A  
HETATM   22 CL   UNL     1      -7.402   4.910  73.666  1.00  0.00    -0.088 Cl 
HETATM   23  C   UNL     1      -8.476   7.561  70.865  1.00  0.00    -0.125 A  
HETATM   24  C   UNL     1      -9.079   4.920  71.554  1.00  0.00    -0.172 A  
HETATM   25  C   UNL     1      -7.845   6.956  71.958  1.00  0.00    -0.095 A  
HETATM   26  C   UNL     1      -9.705   5.524  70.458  1.00  0.00    -0.241 A  
HETATM   27  C   UNL     1      -8.151   5.640  72.300  1.00  0.00    -0.108 A  
ENDBRANCH  20  21
ENDBRANCH  11  20
ENDBRANCH   6   9
TORSDOF 3
ENDMDL
MODEL      116
REMARK 921   NORMALIZED FREE ENERGY PREDICTED BY IDOCK:   -4.90 KCAL/MOL
REMARK 922        TOTAL FREE ENERGY PREDICTED BY IDOCK:   -6.53 KCAL/MOL
REMARK 923 INTER-LIGAND FREE ENERGY PREDICTED BY IDOCK:   -5.86 KCAL/MOL
REMARK 924 INTRA-LIGAND FREE ENERGY PREDICTED BY IDOCK:   -0.68 KCAL/MOL
REMARK 927      BINDING AFFINITY PREDICTED BY RF-SCORE:    0.00 PKD
ROOT
HETATM    1  C   UNL     1     -10.257   8.178  72.845  1.00  0.00    -0.270 C  
HETATM    2  N   UNL     1      -9.987   9.070  71.711  1.00  0.00    -0.328 NA 
HETATM    3  C   UNL     1      -8.633   8.799  71.209  1.00  0.00    -0.203 C  
HETATM    4  C   UNL     1      -8.178   9.636  70.015  1.00  0.00    -0.197 C  
HETATM    5  C   UNL     1      -8.914   9.281  68.725  1.00  0.00    -0.132 C  
HETATM    6  C   UNL     1     -10.219  10.067  68.517  1.00  0.00    -0.175 C  
HETATM    7  C   UNL     1     -11.055   8.959  70.706  1.00  0.00    -0.261 C  
HETATM    8  C   UNL     1     -11.110  10.168  69.765  1.00  0.00    -0.328 C  
ENDROOT
BRANCH   6   9
HETATM    9  N   UNL     1      -9.986  11.405  67.915  1.00  0.00    -0.174 N  
HETATM   10  N   UNL     1      -8.717  11.919  68.018  1.00  0.00    -0.165 NA 
HETATM   11  C   UNL     1      -8.419  13.054  67.468  1.00  0.00    -0.190 C  
HETATM   12  O   UNL     1     -12.179  11.632  67.192  1.00  0.00    -0.365 OA 
HETATM   13  C   UNL     1      -9.409  13.871  66.736  1.00  0.00    -0.286 A  
HETATM   14  C   UNL     1      -9.095  15.086  66.115  1.00  0.00    -0.237 A  
HETATM   15  C   UNL     1     -11.031  12.069  67.279  1.00  0.00    -0.262 C  
HETATM   16  C   UNL     1     -10.080  15.782  65.405  1.00  0.00    -0.337 A  
HETATM   17  C   UNL     1     -10.705  13.367  66.655  1.00  0.00    -0.282 A  
HETATM   18  C   UNL     1     -11.377  15.278  65.328  1.00  0.00    -0.282 A  
HETATM   19  C   UNL     1     -11.693  14.074  65.954  1.00  0.00    -0.373 A  
BRANCH  11  20
HETATM   20  C   UNL     1      -6.963  13.496  67.561  1.00  0.00    -0.157 C  
BRANCH  20  21
HETATM   21  C   UNL     1      -6.419  13.737  68.952  1.00  0.00    -0.100 A  
HETATM   22 CL   UNL     1      -5.138  14.210  73.274  1.00  0.00    -0.309 Cl 
HETATM   23  C   UNL     1      -6.580  14.963  69.615  1.00  0.00    -0.162 A  
HETATM   24  C   UNL     1      -5.450  12.808  70.991  1.00  0.00    -0.164 A  
HETATM   25  C   UNL     1      -6.169  15.112  70.945  1.00  0.00     0.228 A  
HETATM   26  C   UNL     1      -5.856  12.661  69.661  1.00  0.00    -0.114 A  
HETATM   27  C   UNL     1      -5.609  14.034  71.628  1.00  0.00    -0.233 A  
ENDBRANCH  20  21
ENDBRANCH  11  20
ENDBRANCH   6   9
TORSDOF 3
ENDMDL
MODEL      117
REMARK 921   NORMALIZED FREE ENERGY PREDICTED BY IDOCK:   -4.83 KCAL/MOL
REMARK 922        TOTAL FREE ENERGY PREDICTED BY IDOCK:   -6.45 KCAL/MOL
REMARK 923 INTER-LIGAND FREE ENERGY PREDICTED BY IDOCK:   -6.36 KCAL/MOL
REMARK 924 INTRA-LIGAND FREE ENERGY PREDICTED BY IDOCK:   -0.09 KCAL/MOL
REMARK 927      BINDING AFFINITY PREDICTED BY RF-SCORE:    0.00 PKD
ROOT
HETATM    1  C   UNL     1     -10.322   5.368  74.229  1.00  0.00    -0.276 C  
HETATM    2  N   UNL     1     -10.250   6.169  73.000  1.00  0.00    -0.187 NA 
HETATM    3  C   UNL     1     -10.697   5.342  71.871  1.00  0.00    -0.211 C  
HETATM    4  C   UNL     1     -10.696   6.017  70.501  1.00  0.00    -0.349 C  
HETATM    5  C   UNL     1     -11.775   7.090  70.365  1.00  0.00    -0.326 C  
HETATM    6  C   UNL     1     -11.324   8.486  70.826  1.00  0.00    -0.266 C  
HETATM    7  C   UNL     1     -10.981   7.433  73.170  1.00  0.00    -0.359 C  
HETATM    8  C   UNL     1     -10.555   8.503  72.157  1.00  0.00    -0.419 C  
ENDROOT
BRANCH   6   9
HETATM    9  N   UNL     1     -10.583   9.220  69.769  1.00  0.00    -0.223 N  
HETATM   10  N   UNL     1     -11.323  10.019  68.933  1.00  0.00    -0.129 NA 
HETATM   11  C   UNL     1     -10.743  10.737  68.023  1.00  0.00    -0.228 C  
HETATM   12  O   UNL     1      -8.523   8.355  70.398  1.00  0.00    -0.121 OA 
HETATM   13  C   UNL     1      -9.282  10.721  67.805  1.00  0.00    -0.155 A  
HETATM   14  C   UNL     1      -8.638  11.510  66.844  1.00  0.00    -0.163 A  
HETATM   15  C   UNL     1      -9.201   9.080  69.669  1.00  0.00    -0.159 C  
HETATM   16  C   UNL     1      -7.245  11.469  66.725  1.00  0.00    -0.111 A  
HETATM   17  C   UNL     1      -8.530   9.888  68.631  1.00  0.00    -0.114 A  
HETATM   18  C   UNL     1      -6.495  10.632  67.549  1.00  0.00    -0.058 A  
HETATM   19  C   UNL     1      -7.135   9.839  68.499  1.00  0.00    -0.068 A  
BRANCH  11  20
HETATM   20  C   UNL     1     -11.640  11.659  67.207  1.00  0.00    -0.316 C  
BRANCH  20  21
HETATM   21  C   UNL     1     -11.373  13.144  67.333  1.00  0.00    -0.344 A  
HETATM   22 CL   UNL     1     -10.173  17.511  67.505  1.00  0.00    -0.327 Cl 
HETATM   23  C   UNL     1     -11.001  13.735  68.549  1.00  0.00    -0.283 A  
HETATM   24  C   UNL     1     -11.001  15.286  66.224  1.00  0.00    -0.300 A  
HETATM   25  C   UNL     1     -10.647  15.089  68.604  1.00  0.00    -0.237 A  
HETATM   26  C   UNL     1     -11.360  13.936  66.171  1.00  0.00    -0.323 A  
HETATM   27  C   UNL     1     -10.645  15.857  67.442  1.00  0.00    -0.315 A  
ENDBRANCH  20  21
ENDBRANCH  11  20
ENDBRANCH   6   9
TORSDOF 3
ENDMDL
MODEL      118
REMARK 921   NORMALIZED FREE ENERGY PREDICTED BY IDOCK:   -4.82 KCAL/MOL
REMARK 922        TOTAL FREE ENERGY PREDICTED BY IDOCK:   -6.44 KCAL/MOL
REMARK 923 INTER-LIGAND FREE ENERGY PREDICTED BY IDOCK:   -6.09 KCAL/MOL
REMARK 924 INTRA-LIGAND FREE ENERGY PREDICTED BY IDOCK:   -0.35 KCAL/MOL
REMARK 927      BINDING AFFINITY PREDICTED BY RF-SCORE:    0.00 PKD
ROOT
HETATM    1  C   UNL     1      -9.020   4.118  72.006  1.00  0.00    -0.119 C  
HETATM    2  N   UNL     1      -9.373   5.404  71.393  1.00  0.00    -0.146 NA 
HETATM    3  C   UNL     1     -10.213   6.161  72.331  1.00  0.00    -0.188 C  
HETATM    4  C   UNL     1     -10.673   7.539  71.862  1.00  0.00    -0.253 C  
HETATM    5  C   UNL     1      -9.535   8.556  71.793  1.00  0.00    -0.328 C  
HETATM    6  C   UNL     1      -8.795   8.569  70.445  1.00  0.00    -0.150 C  
HETATM    7  C   UNL     1      -8.161   6.105  70.942  1.00  0.00    -0.126 C  
HETATM    8  C   UNL     1      -8.458   7.178  69.887  1.00  0.00    -0.140 C  
ENDROOT
BRANCH   6   9
HETATM    9  N   UNL     1      -9.485   9.402  69.428  1.00  0.00    -0.165 N  
HETATM   10  N   UNL     1     -10.643  10.028  69.819  1.00  0.00    -0.248 NA 
HETATM   11  C   UNL     1     -11.273  10.818  69.008  1.00  0.00    -0.262 C  
HETATM   12  O   UNL     1      -7.919   8.955  67.775  1.00  0.00    -0.101 OA 
HETATM   13  C   UNL     1     -10.817  11.071  67.626  1.00  0.00    -0.306 A  
HETATM   14  C   UNL     1     -11.472  11.942  66.746  1.00  0.00    -0.384 A  
HETATM   15  C   UNL     1      -8.946   9.522  68.149  1.00  0.00    -0.123 C  
HETATM   16  C   UNL     1     -10.955  12.160  65.465  1.00  0.00    -0.343 A  
HETATM   17  C   UNL     1      -9.659  10.415  67.214  1.00  0.00    -0.182 A  
HETATM   18  C   UNL     1      -9.798  11.500  65.053  1.00  0.00    -0.294 A  
HETATM   19  C   UNL     1      -9.151  10.625  65.924  1.00  0.00    -0.201 A  
BRANCH  11  20
HETATM   20  C   UNL     1     -12.497  11.535  69.566  1.00  0.00    -0.060 C  
BRANCH  20  21
HETATM   21  C   UNL     1     -12.230  12.722  70.466  1.00  0.00    -0.389 A  
HETATM   22 CL   UNL     1     -11.789  16.477  72.965  1.00  0.00    -0.542 Cl 
HETATM   23  C   UNL     1     -11.184  13.624  70.222  1.00  0.00     0.243 A  
HETATM   24  C   UNL     1     -12.997  14.165  72.279  1.00  0.00    -0.469 A  
HETATM   25  C   UNL     1     -11.039  14.775  71.005  1.00  0.00    -0.024 A  
HETATM   26  C   UNL     1     -13.138  13.013  71.499  1.00  0.00    -0.400 A  
HETATM   27  C   UNL     1     -11.947  15.042  72.028  1.00  0.00    -0.388 A  
ENDBRANCH  20  21
ENDBRANCH  11  20
ENDBRANCH   6   9
TORSDOF 3
ENDMDL
MODEL      119
REMARK 921   NORMALIZED FREE ENERGY PREDICTED BY IDOCK:   -4.78 KCAL/MOL
REMARK 922        TOTAL FREE ENERGY PREDICTED BY IDOCK:   -6.39 KCAL/MOL
REMARK 923 INTER-LIGAND FREE ENERGY PREDICTED BY IDOCK:   -6.33 KCAL/MOL
REMARK 924 INTRA-LIGAND FREE ENERGY PREDICTED BY IDOCK:   -0.06 KCAL/MOL
REMARK 927      BINDING AFFINITY PREDICTED BY RF-SCORE:    0.00 PKD
ROOT
HETATM    1  C   UNL     1      -5.367   6.066  68.487  1.00  0.00    -0.007 C  
HETATM    2  N   UNL     1      -6.290   7.188  68.272  1.00  0.00    -0.038 NA 
HETATM    3  C   UNL     1      -6.511   7.870  69.554  1.00  0.00    -0.035 C  
HETATM    4  C   UNL     1      -7.446   9.076  69.523  1.00  0.00    -0.076 C  
HETATM    5  C   UNL     1      -6.847  10.276  68.792  1.00  0.00    -0.058 C  
HETATM    6  C   UNL     1      -7.121  10.282  67.279  1.00  0.00    -0.088 C  
HETATM    7  C   UNL     1      -5.803   8.051  67.186  1.00  0.00    -0.042 C  
HETATM    8  C   UNL     1      -6.910   8.927  66.586  1.00  0.00    -0.076 C  
ENDROOT
BRANCH   6   9
HETATM    9  N   UNL     1      -8.451  10.852  66.946  1.00  0.00    -0.131 N  
HETATM   10  N   UNL     1      -9.196  11.341  67.991  1.00  0.00    -0.154 NA 
HETATM   11  C   UNL     1     -10.342  11.907  67.775  1.00  0.00    -0.198 C  
HETATM   12  O   UNL     1      -8.235  10.428  64.675  1.00  0.00    -0.166 OA 
HETATM   13  C   UNL     1     -10.928  12.036  66.425  1.00  0.00    -0.337 A  
HETATM   14  C   UNL     1     -12.151  12.668  66.174  1.00  0.00    -0.399 A  
HETATM   15  C   UNL     1      -8.882  10.877  65.622  1.00  0.00    -0.190 C  
HETATM   16  C   UNL     1     -12.621  12.785  64.862  1.00  0.00    -0.541 A  
HETATM   17  C   UNL     1     -10.189  11.514  65.365  1.00  0.00    -0.311 A  
HETATM   18  C   UNL     1     -11.882  12.260  63.803  1.00  0.00    -0.587 A  
HETATM   19  C   UNL     1     -10.669  11.621  64.052  1.00  0.00    -0.442 A  
BRANCH  11  20
HETATM   20  C   UNL     1     -11.050  12.498  68.989  1.00  0.00    -0.287 C  
BRANCH  20  21
HETATM   21  C   UNL     1     -11.591  11.511  70.000  1.00  0.00    -0.364 A  
HETATM   22 CL   UNL     1     -13.347   8.301  72.675  1.00  0.00    -0.074 Cl 
HETATM   23  C   UNL     1     -12.780  11.741  70.707  1.00  0.00    -0.256 A  
HETATM   24  C   UNL     1     -11.495   9.273  70.972  1.00  0.00    -0.387 A  
HETATM   25  C   UNL     1     -13.313  10.755  71.546  1.00  0.00    -0.324 A  
HETATM   26  C   UNL     1     -10.961  10.261  70.138  1.00  0.00    -0.377 A  
HETATM   27  C   UNL     1     -12.670   9.525  71.672  1.00  0.00    -0.388 A  
ENDBRANCH  20  21
ENDBRANCH  11  20
ENDBRANCH   6   9
TORSDOF 3
ENDMDL
MODEL      120
REMARK 921   NORMALIZED FREE ENERGY PREDICTED BY IDOCK:   -4.74 KCAL/MOL
REMARK 922        TOTAL FREE ENERGY PREDICTED BY IDOCK:   -6.34 KCAL/MOL
REMARK 923 INTER-LIGAND FREE ENERGY PREDICTED BY IDOCK:   -5.29 KCAL/MOL
REMARK 924 INTRA-LIGAND FREE ENERGY PREDICTED BY IDOCK:   -1.05 KCAL/MOL
REMARK 927      BINDING AFFINITY PREDICTED BY RF-SCORE:    0.00 PKD
ROOT
HETATM    1  C   UNL     1      -5.396   9.816  63.956  1.00  0.00    -0.074 C  
HETATM    2  N   UNL     1      -6.286   9.508  65.082  1.00  0.00    -0.074 NA 
HETATM    3  C   UNL     1      -6.744   8.118  64.958  1.00  0.00    -0.052 C  
HETATM    4  C   UNL     1      -7.680   7.616  66.055  1.00  0.00    -0.090 C  
HETATM    5  C   UNL     1      -6.982   7.447  67.402  1.00  0.00    -0.079 C  
HETATM    6  C   UNL     1      -6.983   8.718  68.267  1.00  0.00    -0.073 C  
HETATM    7  C   UNL     1      -5.629   9.833  66.357  1.00  0.00    -0.052 C  
HETATM    8  C   UNL     1      -6.627  10.007  67.509  1.00  0.00    -0.068 C  
ENDROOT
BRANCH   6   9
HETATM    9  N   UNL     1      -8.242   8.879  69.037  1.00  0.00    -0.115 N  
HETATM   10  N   UNL     1      -9.289   9.492  68.394  1.00  0.00    -0.133 NA 
HETATM   11  C   UNL     1     -10.439   9.618  68.978  1.00  0.00    -0.213 C  
HETATM   12  O   UNL     1      -7.383   7.875  70.945  1.00  0.00    -0.055 OA 
HETATM   13  C   UNL     1     -10.689   9.151  70.357  1.00  0.00    -0.282 A  
HETATM   14  C   UNL     1     -11.932   9.256  70.992  1.00  0.00    -0.369 A  
HETATM   15  C   UNL     1      -8.317   8.411  70.347  1.00  0.00    -0.121 C  
HETATM   16  C   UNL     1     -12.101   8.753  72.286  1.00  0.00    -0.423 A  
HETATM   17  C   UNL     1      -9.620   8.555  71.024  1.00  0.00    -0.241 A  
HETATM   18  C   UNL     1     -11.030   8.162  72.954  1.00  0.00    -0.307 A  
HETATM   19  C   UNL     1      -9.789   8.065  72.328  1.00  0.00    -0.301 A  
BRANCH  11  20
HETATM   20  C   UNL     1     -11.562  10.229  68.149  1.00  0.00     0.040 C  
BRANCH  20  21
HETATM   21  C   UNL     1     -11.372  11.666  67.713  1.00  0.00    -0.356 A  
HETATM   22 CL   UNL     1     -10.355  15.890  66.423  1.00  0.00    -0.299 Cl 
HETATM   23  C   UNL     1     -11.548  12.744  68.593  1.00  0.00    -0.352 A  
HETATM   24  C   UNL     1     -10.566  13.231  66.022  1.00  0.00    -0.292 A  
HETATM   25  C   UNL     1     -11.249  14.050  68.187  1.00  0.00    -0.299 A  
HETATM   26  C   UNL     1     -10.870  11.927  66.425  1.00  0.00    -0.318 A  
HETATM   27  C   UNL     1     -10.757  14.288  66.906  1.00  0.00    -0.290 A  
ENDBRANCH  20  21
ENDBRANCH  11  20
ENDBRANCH   6   9
TORSDOF 3
ENDMDL
MODEL      121
REMARK 921   NORMALIZED FREE ENERGY PREDICTED BY IDOCK:   -4.73 KCAL/MOL
REMARK 922        TOTAL FREE ENERGY PREDICTED BY IDOCK:   -6.33 KCAL/MOL
REMARK 923 INTER-LIGAND FREE ENERGY PREDICTED BY IDOCK:   -5.39 KCAL/MOL
REMARK 924 INTRA-LIGAND FREE ENERGY PREDICTED BY IDOCK:   -0.94 KCAL/MOL
REMARK 927      BINDING AFFINITY PREDICTED BY RF-SCORE:    0.00 PKD
ROOT
HETATM    1  C   UNL     1     -12.341  13.063  66.280  1.00  0.00    -0.208 C  
HETATM    2  N   UNL     1     -11.809  11.875  66.960  1.00  0.00    -0.613 NA 
HETATM    3  C   UNL     1     -10.476  11.579  66.420  1.00  0.00    -0.250 C  
HETATM    4  C   UNL     1      -9.760  10.370  67.019  1.00  0.00    -0.216 C  
HETATM    5  C   UNL     1      -9.313  10.597  68.461  1.00  0.00    -0.170 C  
HETATM    6  C   UNL     1     -10.378  10.227  69.507  1.00  0.00    -0.242 C  
HETATM    7  C   UNL     1     -11.861  12.054  68.419  1.00  0.00    -0.300 C  
HETATM    8  C   UNL     1     -11.795  10.724  69.180  1.00  0.00    -0.347 C  
ENDROOT
BRANCH   6   9
HETATM    9  N   UNL     1     -10.379   8.777  69.826  1.00  0.00    -0.206 N  
HETATM   10  N   UNL     1     -10.237   7.909  68.772  1.00  0.00    -0.202 NA 
HETATM   11  C   UNL     1     -10.170   6.631  68.975  1.00  0.00    -0.177 C  
HETATM   12  O   UNL     1     -10.661   9.123  72.104  1.00  0.00    -0.276 OA 
HETATM   13  C   UNL     1     -10.272   6.030  70.320  1.00  0.00    -0.266 A  
HETATM   14  C   UNL     1     -10.175   4.653  70.558  1.00  0.00    -0.211 A  
HETATM   15  C   UNL     1     -10.514   8.360  71.148  1.00  0.00    -0.212 C  
HETATM   16  C   UNL     1     -10.241   4.164  71.866  1.00  0.00    -0.180 A  
HETATM   17  C   UNL     1     -10.446   6.905  71.390  1.00  0.00    -0.230 A  
HETATM   18  C   UNL     1     -10.420   5.040  72.935  1.00  0.00    -0.256 A  
HETATM   19  C   UNL     1     -10.526   6.409  72.700  1.00  0.00    -0.234 A  
BRANCH  11  20
HETATM   20  C   UNL     1      -9.920   5.758  67.750  1.00  0.00    -0.166 C  
BRANCH  20  21
HETATM   21  C   UNL     1      -8.730   6.126  66.892  1.00  0.00    -0.109 A  
HETATM   22 CL   UNL     1      -5.140   7.615  64.560  1.00  0.00    -0.029 Cl 
HETATM   23  C   UNL     1      -8.871   6.570  65.569  1.00  0.00    -0.009 A  
HETATM   24  C   UNL     1      -6.340   6.607  66.755  1.00  0.00    -0.042 A  
HETATM   25  C   UNL     1      -7.758   7.014  64.844  1.00  0.00    -0.114 A  
HETATM   26  C   UNL     1      -7.451   6.158  67.477  1.00  0.00    -0.082 A  
HETATM   27  C   UNL     1      -6.499   7.034  65.441  1.00  0.00    -0.047 A  
ENDBRANCH  20  21
ENDBRANCH  11  20
ENDBRANCH   6   9
TORSDOF 3
ENDMDL
MODEL      122
REMARK 921   NORMALIZED FREE ENERGY PREDICTED BY IDOCK:   -4.69 KCAL/MOL
REMARK 922        TOTAL FREE ENERGY PREDICTED BY IDOCK:   -6.28 KCAL/MOL
REMARK 923 INTER-LIGAND FREE ENERGY PREDICTED BY IDOCK:   -5.68 KCAL/MOL
REMARK 924 INTRA-LIGAND FREE ENERGY PREDICTED BY IDOCK:   -0.61 KCAL/MOL
REMARK 927      BINDING AFFINITY PREDICTED BY RF-SCORE:    0.00 PKD
ROOT
HETATM    1  C   UNL     1      -7.678  10.415  63.853  1.00  0.00    -0.037 C  
HETATM    2  N   UNL     1      -7.992   9.802  65.150  1.00  0.00    -0.123 NA 
HETATM    3  C   UNL     1      -8.437   8.421  64.924  1.00  0.00    -0.122 C  
HETATM    4  C   UNL     1      -8.802   7.618  66.170  1.00  0.00    -0.192 C  
HETATM    5  C   UNL     1      -7.590   7.268  67.030  1.00  0.00    -0.106 C  
HETATM    6  C   UNL     1      -7.238   8.341  68.073  1.00  0.00    -0.094 C  
HETATM    7  C   UNL     1      -6.855   9.944  66.072  1.00  0.00    -0.099 C  
HETATM    8  C   UNL     1      -7.262   9.783  67.541  1.00  0.00    -0.089 C  
ENDROOT
BRANCH   6   9
HETATM    9  N   UNL     1      -8.045   8.214  69.313  1.00  0.00    -0.115 N  
HETATM   10  N   UNL     1      -9.153   9.017  69.418  1.00  0.00    -0.143 NA 
HETATM   11  C   UNL     1      -9.941   8.924  70.443  1.00  0.00    -0.194 C  
HETATM   12  O   UNL     1      -6.664   6.588  70.228  1.00  0.00    -0.047 OA 
HETATM   13  C   UNL     1      -9.691   7.990  71.560  1.00  0.00    -0.213 A  
HETATM   14  C   UNL     1     -10.546   7.859  72.660  1.00  0.00    -0.394 A  
HETATM   15  C   UNL     1      -7.664   7.304  70.297  1.00  0.00    -0.094 C  
HETATM   16  C   UNL     1     -10.261   6.923  73.659  1.00  0.00    -0.372 A  
HETATM   17  C   UNL     1      -8.551   7.194  71.472  1.00  0.00    -0.115 A  
HETATM   18  C   UNL     1      -9.118   6.130  73.572  1.00  0.00    -0.128 A  
HETATM   19  C   UNL     1      -8.260   6.266  72.483  1.00  0.00    -0.106 A  
BRANCH  11  20
HETATM   20  C   UNL     1     -11.193   9.794  70.423  1.00  0.00    -0.362 C  
BRANCH  20  21
HETATM   21  C   UNL     1     -11.238  10.885  69.375  1.00  0.00    -0.335 A  
HETATM   22 CL   UNL     1     -11.825  14.147  66.284  1.00  0.00    -0.406 Cl 
HETATM   23  C   UNL     1     -11.047  10.620  68.011  1.00  0.00    -0.361 A  
HETATM   24  C   UNL     1     -11.790  13.194  68.807  1.00  0.00    -0.361 A  
HETATM   25  C   UNL     1     -11.212  11.632  67.059  1.00  0.00    -0.376 A  
HETATM   26  C   UNL     1     -11.619  12.183  69.758  1.00  0.00    -0.334 A  
HETATM   27  C   UNL     1     -11.586  12.913  67.460  1.00  0.00    -0.356 A  
ENDBRANCH  20  21
ENDBRANCH  11  20
ENDBRANCH   6   9
TORSDOF 3
ENDMDL
MODEL      123
REMARK 921   NORMALIZED FREE ENERGY PREDICTED BY IDOCK:   -4.68 KCAL/MOL
REMARK 922        TOTAL FREE ENERGY PREDICTED BY IDOCK:   -6.27 KCAL/MOL
REMARK 923 INTER-LIGAND FREE ENERGY PREDICTED BY IDOCK:   -5.73 KCAL/MOL
REMARK 924 INTRA-LIGAND FREE ENERGY PREDICTED BY IDOCK:   -0.55 KCAL/MOL
REMARK 927      BINDING AFFINITY PREDICTED BY RF-SCORE:    0.00 PKD
ROOT
HETATM    1  C   UNL     1     -12.203  11.737  63.554  1.00  0.00    -0.380 C  
HETATM    2  N   UNL     1     -11.510  12.756  64.353  1.00  0.00    -0.333 NA 
HETATM    3  C   UNL     1     -12.046  14.077  64.002  1.00  0.00    -0.376 C  
HETATM    4  C   UNL     1     -11.443  15.267  64.746  1.00  0.00    -0.364 C  
HETATM    5  C   UNL     1     -11.836  15.309  66.221  1.00  0.00     0.203 C  
HETATM    6  C   UNL     1     -10.889  14.518  67.138  1.00  0.00    -0.296 C  
HETATM    7  C   UNL     1     -11.578  12.418  65.782  1.00  0.00    -0.398 C  
HETATM    8  C   UNL     1     -10.499  13.129  66.609  1.00  0.00    -0.280 C  
ENDROOT
BRANCH   6   9
HETATM    9  N   UNL     1      -9.688  15.301  67.525  1.00  0.00    -0.205 N  
HETATM   10  N   UNL     1      -8.482  14.646  67.487  1.00  0.00    -0.175 NA 
HETATM   11  C   UNL     1      -7.381  15.276  67.754  1.00  0.00    -0.163 C  
HETATM   12  O   UNL     1     -10.898  17.235  67.953  1.00  0.00    -0.369 OA 
HETATM   13  C   UNL     1      -7.351  16.702  68.140  1.00  0.00    -0.172 A  
HETATM   14  C   UNL     1      -6.168  17.403  68.406  1.00  0.00    -0.169 A  
HETATM   15  C   UNL     1      -9.823  16.637  67.896  1.00  0.00    -0.248 C  
HETATM   16  C   UNL     1      -6.219  18.763  68.726  1.00  0.00    -0.246 A  
HETATM   17  C   UNL     1      -8.576  17.362  68.209  1.00  0.00    -0.260 A  
HETATM   18  C   UNL     1      -7.445  19.422  68.799  1.00  0.00    -0.393 A  
HETATM   19  C   UNL     1      -8.624  18.724  68.544  1.00  0.00    -0.378 A  
BRANCH  11  20
HETATM   20  C   UNL     1      -6.087  14.487  67.596  1.00  0.00    -0.073 C  
BRANCH  20  21
HETATM   21  C   UNL     1      -5.872  13.346  68.567  1.00  0.00    -0.089 A  
HETATM   22 CL   UNL     1      -5.672   9.844  71.438  1.00  0.00    -0.062 Cl 
HETATM   23  C   UNL     1      -5.693  13.558  69.942  1.00  0.00    -0.116 A  
HETATM   24  C   UNL     1      -5.918  10.941  68.986  1.00  0.00    -0.041 A  
HETATM   25  C   UNL     1      -5.615  12.475  70.826  1.00  0.00    -0.157 A  
HETATM   26  C   UNL     1      -5.990  12.023  68.103  1.00  0.00    -0.053 A  
HETATM   27  C   UNL     1      -5.731  11.172  70.345  1.00  0.00    -0.137 A  
ENDBRANCH  20  21
ENDBRANCH  11  20
ENDBRANCH   6   9
TORSDOF 3
ENDMDL
MODEL      124
REMARK 921   NORMALIZED FREE ENERGY PREDICTED BY IDOCK:   -4.66 KCAL/MOL
REMARK 922        TOTAL FREE ENERGY PREDICTED BY IDOCK:   -6.25 KCAL/MOL
REMARK 923 INTER-LIGAND FREE ENERGY PREDICTED BY IDOCK:   -6.05 KCAL/MOL
REMARK 924 INTRA-LIGAND FREE ENERGY PREDICTED BY IDOCK:   -0.20 KCAL/MOL
REMARK 927      BINDING AFFINITY PREDICTED BY RF-SCORE:    0.00 PKD
ROOT
HETATM    1  C   UNL     1      -9.662  15.823  67.327  1.00  0.00    -0.223 C  
HETATM    2  N   UNL     1     -10.047  14.422  67.537  1.00  0.00    -0.231 NA 
HETATM    3  C   UNL     1     -11.446  14.250  67.122  1.00  0.00    -0.359 C  
HETATM    4  C   UNL     1     -12.021  12.842  67.263  1.00  0.00    -0.371 C  
HETATM    5  C   UNL     1     -11.423  11.852  66.266  1.00  0.00    -0.367 C  
HETATM    6  C   UNL     1     -10.146  11.159  66.769  1.00  0.00    -0.218 C  
HETATM    7  C   UNL     1      -9.089  13.523  66.876  1.00  0.00    -0.239 C  
HETATM    8  C   UNL     1      -9.131  12.098  67.439  1.00  0.00    -0.181 C  
ENDROOT
BRANCH   6   9
HETATM    9  N   UNL     1     -10.439   9.984  67.629  1.00  0.00    -0.228 N  
HETATM   10  N   UNL     1     -10.507   8.762  67.007  1.00  0.00    -0.285 NA 
HETATM   11  C   UNL     1     -10.702   7.681  67.696  1.00  0.00    -0.175 C  
HETATM   12  O   UNL     1     -10.584  11.247  69.570  1.00  0.00    -0.162 OA 
HETATM   13  C   UNL     1     -10.891   7.692  69.162  1.00  0.00    -0.082 A  
HETATM   14  C   UNL     1     -11.075   6.532  69.923  1.00  0.00    -0.430 A  
HETATM   15  C   UNL     1     -10.624  10.157  68.998  1.00  0.00    -0.223 C  
HETATM   16  C   UNL     1     -11.207   6.621  71.312  1.00  0.00    -0.329 A  
HETATM   17  C   UNL     1     -10.853   8.934  69.792  1.00  0.00    -0.207 A  
HETATM   18  C   UNL     1     -11.173   7.864  71.942  1.00  0.00    -0.320 A  
HETATM   19  C   UNL     1     -11.000   9.021  71.185  1.00  0.00    -0.371 A  
BRANCH  11  20
HETATM   20  C   UNL     1     -10.670   6.366  66.927  1.00  0.00    -0.408 C  
BRANCH  20  21
HETATM   21  C   UNL     1      -9.343   5.640  66.889  1.00  0.00    -0.129 A  
HETATM   22 CL   UNL     1      -5.459   3.370  66.338  1.00  0.00    -0.016 Cl 
HETATM   23  C   UNL     1      -9.166   4.374  67.468  1.00  0.00    -0.164 A  
HETATM   24  C   UNL     1      -7.086   5.489  65.970  1.00  0.00    -0.068 A  
HETATM   25  C   UNL     1      -7.960   3.682  67.311  1.00  0.00    -0.083 A  
HETATM   26  C   UNL     1      -8.289   6.183  66.132  1.00  0.00    -0.128 A  
HETATM   27  C   UNL     1      -6.927   4.240  66.561  1.00  0.00    -0.059 A  
ENDBRANCH  20  21
ENDBRANCH  11  20
ENDBRANCH   6   9
TORSDOF 3
ENDMDL
MODEL      125
REMARK 921   NORMALIZED FREE ENERGY PREDICTED BY IDOCK:   -4.65 KCAL/MOL
REMARK 922        TOTAL FREE ENERGY PREDICTED BY IDOCK:   -6.24 KCAL/MOL
REMARK 923 INTER-LIGAND FREE ENERGY PREDICTED BY IDOCK:   -6.41 KCAL/MOL
REMARK 924 INTRA-LIGAND FREE ENERGY PREDICTED BY IDOCK:    0.16 KCAL/MOL
REMARK 927      BINDING AFFINITY PREDICTED BY RF-SCORE:    0.00 PKD
ROOT
HETATM    1  C   UNL     1      -6.542   9.626  63.652  1.00  0.00    -0.111 C  
HETATM    2  N   UNL     1      -7.280   9.797  64.910  1.00  0.00    -0.122 NA 
HETATM    3  C   UNL     1      -6.462  10.594  65.833  1.00  0.00    -0.121 C  
HETATM    4  C   UNL     1      -7.078  10.882  67.201  1.00  0.00    -0.103 C  
HETATM    5  C   UNL     1      -8.254  11.853  67.132  1.00  0.00    -0.171 C  
HETATM    6  C   UNL     1      -9.611  11.170  66.893  1.00  0.00    -0.186 C  
HETATM    7  C   UNL     1      -8.622  10.337  64.646  1.00  0.00    -0.185 C  
HETATM    8  C   UNL     1      -9.598  10.088  65.802  1.00  0.00    -0.291 C  
ENDROOT
BRANCH   6   9
HETATM    9  N   UNL     1     -10.218  10.659  68.148  1.00  0.00    -0.162 N  
HETATM   10  N   UNL     1     -11.270  11.374  68.664  1.00  0.00    -0.219 NA 
HETATM   11  C   UNL     1     -11.891  10.961  69.724  1.00  0.00    -0.345 C  
HETATM   12  O   UNL     1      -8.762   8.858  68.300  1.00  0.00    -0.133 OA 
HETATM   13  C   UNL     1     -11.498   9.738  70.454  1.00  0.00    -0.347 A  
HETATM   14  C   UNL     1     -12.175   9.266  71.585  1.00  0.00    -0.445 A  
HETATM   15  C   UNL     1      -9.716   9.502  68.738  1.00  0.00    -0.159 C  
HETATM   16  C   UNL     1     -11.767   8.076  72.197  1.00  0.00    -0.399 A  
HETATM   17  C   UNL     1     -10.411   9.026  69.951  1.00  0.00    -0.226 A  
HETATM   18  C   UNL     1     -10.677   7.367  71.696  1.00  0.00    -0.239 A  
HETATM   19  C   UNL     1      -9.996   7.841  70.576  1.00  0.00    -0.187 A  
BRANCH  11  20
HETATM   20  C   UNL     1     -13.103  11.774  70.165  1.00  0.00     0.638 C  
BRANCH  20  21
HETATM   21  C   UNL     1     -12.822  12.999  71.007  1.00  0.00    -0.281 A  
HETATM   22 CL   UNL     1     -12.409  16.797  73.446  1.00  0.00    -0.292 Cl 
HETATM   23  C   UNL     1     -12.070  14.081  70.524  1.00  0.00    -0.424 A  
HETATM   24  C   UNL     1     -13.310  14.291  73.020  1.00  0.00    -0.437 A  
HETATM   25  C   UNL     1     -11.930  15.247  71.286  1.00  0.00    -0.409 A  
HETATM   26  C   UNL     1     -13.445  13.124  72.261  1.00  0.00    -0.665 A  
HETATM   27  C   UNL     1     -12.552  15.349  72.528  1.00  0.00    -0.385 A  
ENDBRANCH  20  21
ENDBRANCH  11  20
ENDBRANCH   6   9
TORSDOF 3
ENDMDL
MODEL      126
REMARK 921   NORMALIZED FREE ENERGY PREDICTED BY IDOCK:   -4.59 KCAL/MOL
REMARK 922        TOTAL FREE ENERGY PREDICTED BY IDOCK:   -6.16 KCAL/MOL
REMARK 923 INTER-LIGAND FREE ENERGY PREDICTED BY IDOCK:   -5.15 KCAL/MOL
REMARK 924 INTRA-LIGAND FREE ENERGY PREDICTED BY IDOCK:   -1.02 KCAL/MOL
REMARK 927      BINDING AFFINITY PREDICTED BY RF-SCORE:    0.00 PKD
ROOT
HETATM    1  C   UNL     1     -13.505  11.930  63.592  1.00  0.00     0.712 C  
HETATM    2  N   UNL     1     -12.325  12.231  64.412  1.00  0.00    -0.421 NA 
HETATM    3  C   UNL     1     -11.180  12.471  63.523  1.00  0.00    -0.462 C  
HETATM    4  C   UNL     1      -9.857  12.808  64.205  1.00  0.00    -0.042 C  
HETATM    5  C   UNL     1      -9.858  14.188  64.859  1.00  0.00     0.022 C  
HETATM    6  C   UNL     1     -10.371  14.189  66.308  1.00  0.00    -0.292 C  
HETATM    7  C   UNL     1     -12.619  13.322  65.352  1.00  0.00    -0.468 C  
HETATM    8  C   UNL     1     -11.645  13.361  66.536  1.00  0.00    -0.394 C  
ENDROOT
BRANCH   6   9
HETATM    9  N   UNL     1      -9.313  13.824  67.284  1.00  0.00    -0.230 N  
HETATM   10  N   UNL     1      -9.195  12.494  67.603  1.00  0.00    -0.183 NA 
HETATM   11  C   UNL     1      -8.259  12.087  68.402  1.00  0.00    -0.151 C  
HETATM   12  O   UNL     1      -8.598  16.014  67.562  1.00  0.00    -0.172 OA 
HETATM   13  C   UNL     1      -7.295  13.010  69.036  1.00  0.00     0.057 A  
HETATM   14  C   UNL     1      -6.262  12.583  69.880  1.00  0.00    -0.094 A  
HETATM   15  C   UNL     1      -8.495  14.815  67.822  1.00  0.00    -0.164 C  
HETATM   16  C   UNL     1      -5.364  13.514  70.411  1.00  0.00    -0.123 A  
HETATM   17  C   UNL     1      -7.429  14.364  68.739  1.00  0.00    -0.133 A  
HETATM   18  C   UNL     1      -5.502  14.869  70.116  1.00  0.00    -0.119 A  
HETATM   19  C   UNL     1      -6.535  15.297  69.284  1.00  0.00    -0.131 A  
BRANCH  11  20
HETATM   20  C   UNL     1      -8.154  10.583  68.622  1.00  0.00    -0.127 C  
BRANCH  20  21
HETATM   21  C   UNL     1      -8.985  10.007  69.748  1.00  0.00    -0.209 A  
HETATM   22 CL   UNL     1     -11.408   7.875  72.930  1.00  0.00    -0.459 Cl 
HETATM   23  C   UNL     1     -10.383  10.125  69.781  1.00  0.00    -0.297 A  
HETATM   24  C   UNL     1      -9.102   8.560  71.710  1.00  0.00    -0.304 A  
HETATM   25  C   UNL     1     -11.129   9.480  70.774  1.00  0.00    -0.390 A  
HETATM   26  C   UNL     1      -8.357   9.210  70.721  1.00  0.00    -0.248 A  
HETATM   27  C   UNL     1     -10.486   8.698  71.732  1.00  0.00    -0.324 A  
ENDBRANCH  20  21
ENDBRANCH  11  20
ENDBRANCH   6   9
TORSDOF 3
ENDMDL
MODEL      127
REMARK 921   NORMALIZED FREE ENERGY PREDICTED BY IDOCK:   -4.58 KCAL/MOL
REMARK 922        TOTAL FREE ENERGY PREDICTED BY IDOCK:   -6.16 KCAL/MOL
REMARK 923 INTER-LIGAND FREE ENERGY PREDICTED BY IDOCK:   -5.14 KCAL/MOL
REMARK 924 INTRA-LIGAND FREE ENERGY PREDICTED BY IDOCK:   -1.02 KCAL/MOL
REMARK 927      BINDING AFFINITY PREDICTED BY RF-SCORE:    0.00 PKD
ROOT
HETATM    1  C   UNL     1      -5.857   8.122  71.214  1.00  0.00    -0.034 C  
HETATM    2  N   UNL     1      -6.839   8.671  70.271  1.00  0.00    -0.039 NA 
HETATM    3  C   UNL     1      -8.107   7.947  70.434  1.00  0.00    -0.114 C  
HETATM    4  C   UNL     1      -9.257   8.391  69.532  1.00  0.00    -0.154 C  
HETATM    5  C   UNL     1      -9.800   9.771  69.896  1.00  0.00    -0.279 C  
HETATM    6  C   UNL     1      -9.072  10.930  69.195  1.00  0.00    -0.042 C  
HETATM    7  C   UNL     1      -6.935  10.130  70.424  1.00  0.00    -0.111 C  
HETATM    8  C   UNL     1      -7.540  10.815  69.193  1.00  0.00    -0.133 C  
ENDROOT
BRANCH   6   9
HETATM    9  N   UNL     1      -9.593  11.181  67.827  1.00  0.00    -0.169 N  
HETATM   10  N   UNL     1      -9.003  10.485  66.801  1.00  0.00    -0.137 NA 
HETATM   11  C   UNL     1      -9.439  10.605  65.586  1.00  0.00    -0.212 C  
HETATM   12  O   UNL     1     -11.166  12.730  68.543  1.00  0.00    -0.243 OA 
HETATM   13  C   UNL     1     -10.555  11.503  65.224  1.00  0.00    -0.339 A  
HETATM   14  C   UNL     1     -11.054  11.623  63.921  1.00  0.00    -0.477 A  
HETATM   15  C   UNL     1     -10.637  12.084  67.638  1.00  0.00    -0.210 C  
HETATM   16  C   UNL     1     -12.140  12.466  63.664  1.00  0.00    -0.648 A  
HETATM   17  C   UNL     1     -11.137  12.234  66.257  1.00  0.00    -0.342 A  
HETATM   18  C   UNL     1     -12.719  13.199  64.698  1.00  0.00    -0.326 A  
HETATM   19  C   UNL     1     -12.217  13.088  65.994  1.00  0.00    -0.463 A  
BRANCH  11  20
HETATM   20  C   UNL     1      -8.778   9.723  64.534  1.00  0.00    -0.222 C  
BRANCH  20  21
HETATM   21  C   UNL     1      -8.041   8.503  65.043  1.00  0.00    -0.148 A  
HETATM   22 CL   UNL     1      -6.008   4.946  66.979  1.00  0.00    -0.026 Cl 
HETATM   23  C   UNL     1      -6.656   8.505  65.265  1.00  0.00    -0.063 A  
HETATM   24  C   UNL     1      -8.154   6.272  66.026  1.00  0.00    -0.119 A  
HETATM   25  C   UNL     1      -6.027   7.399  65.848  1.00  0.00    -0.037 A  
HETATM   26  C   UNL     1      -8.781   7.375  65.438  1.00  0.00     0.004 A  
HETATM   27  C   UNL     1      -6.778   6.289  66.229  1.00  0.00    -0.056 A  
ENDBRANCH  20  21
ENDBRANCH  11  20
ENDBRANCH   6   9
TORSDOF 3
ENDMDL
MODEL      128
REMARK 921   NORMALIZED FREE ENERGY PREDICTED BY IDOCK:   -4.58 KCAL/MOL
REMARK 922        TOTAL FREE ENERGY PREDICTED BY IDOCK:   -6.15 KCAL/MOL
REMARK 923 INTER-LIGAND FREE ENERGY PREDICTED BY IDOCK:   -5.59 KCAL/MOL
REMARK 924 INTRA-LIGAND FREE ENERGY PREDICTED BY IDOCK:   -0.57 KCAL/MOL
REMARK 927      BINDING AFFINITY PREDICTED BY RF-SCORE:    0.00 PKD
ROOT
HETATM    1  C   UNL     1     -10.855  16.809  68.873  1.00  0.00    -0.301 C  
HETATM    2  N   UNL     1     -10.471  15.417  68.608  1.00  0.00    -0.232 NA 
HETATM    3  C   UNL     1     -11.634  14.701  68.068  1.00  0.00    -0.340 C  
HETATM    4  C   UNL     1     -11.419  13.229  67.724  1.00  0.00    -0.354 C  
HETATM    5  C   UNL     1     -10.515  13.027  66.509  1.00  0.00    -0.284 C  
HETATM    6  C   UNL     1      -9.018  12.955  66.854  1.00  0.00    -0.210 C  
HETATM    7  C   UNL     1      -9.267  15.369  67.764  1.00  0.00    -0.183 C  
HETATM    8  C   UNL     1      -8.539  14.022  67.850  1.00  0.00    -0.181 C  
ENDROOT
BRANCH   6   9
HETATM    9  N   UNL     1      -8.600  11.596  67.282  1.00  0.00    -0.148 N  
HETATM   10  N   UNL     1      -9.593  10.744  67.700  1.00  0.00    -0.157 NA 
HETATM   11  C   UNL     1      -9.316   9.523  68.034  1.00  0.00    -0.132 C  
HETATM   12  O   UNL     1      -6.349  11.996  66.885  1.00  0.00    -0.147 OA 
HETATM   13  C   UNL     1      -7.941   8.983  68.019  1.00  0.00    -0.101 A  
HETATM   14  C   UNL     1      -7.630   7.660  68.352  1.00  0.00    -0.113 A  
HETATM   15  C   UNL     1      -7.254  11.240  67.240  1.00  0.00    -0.114 C  
HETATM   16  C   UNL     1      -6.307   7.212  68.276  1.00  0.00    -0.040 A  
HETATM   17  C   UNL     1      -6.927   9.853  67.625  1.00  0.00    -0.086 A  
HETATM   18  C   UNL     1      -5.293   8.084  67.885  1.00  0.00    -0.033 A  
HETATM   19  C   UNL     1      -5.599   9.405  67.563  1.00  0.00    -0.037 A  
BRANCH  11  20
HETATM   20  C   UNL     1     -10.497   8.630  68.396  1.00  0.00    -0.220 C  
BRANCH  20  21
HETATM   21  C   UNL     1     -10.576   8.167  69.835  1.00  0.00    -0.239 A  
HETATM   22 CL   UNL     1     -10.359   6.824  74.158  1.00  0.00    -0.388 Cl 
HETATM   23  C   UNL     1     -10.787   6.823  70.177  1.00  0.00    -0.311 A  
HETATM   24  C   UNL     1     -10.236   8.674  72.199  1.00  0.00    -0.394 A  
HETATM   25  C   UNL     1     -10.736   6.413  71.515  1.00  0.00    -0.282 A  
HETATM   26  C   UNL     1     -10.293   9.084  70.863  1.00  0.00    -0.323 A  
HETATM   27  C   UNL     1     -10.458   7.338  72.518  1.00  0.00    -0.237 A  
ENDBRANCH  20  21
ENDBRANCH  11  20
ENDBRANCH   6   9
TORSDOF 3
ENDMDL
MODEL      129
REMARK 921   NORMALIZED FREE ENERGY PREDICTED BY IDOCK:   -4.57 KCAL/MOL
REMARK 922        TOTAL FREE ENERGY PREDICTED BY IDOCK:   -6.15 KCAL/MOL
REMARK 923 INTER-LIGAND FREE ENERGY PREDICTED BY IDOCK:   -6.04 KCAL/MOL
REMARK 924 INTRA-LIGAND FREE ENERGY PREDICTED BY IDOCK:   -0.11 KCAL/MOL
REMARK 927      BINDING AFFINITY PREDICTED BY RF-SCORE:    0.00 PKD
ROOT
HETATM    1  C   UNL     1     -10.419  18.406  65.911  1.00  0.00    -0.321 C  
HETATM    2  N   UNL     1     -10.183  17.144  66.623  1.00  0.00    -0.312 NA 
HETATM    3  C   UNL     1     -10.728  17.260  67.982  1.00  0.00    -0.367 C  
HETATM    4  C   UNL     1     -10.578  16.029  68.874  1.00  0.00    -0.257 C  
HETATM    5  C   UNL     1     -11.461  14.863  68.434  1.00  0.00    -0.338 C  
HETATM    6  C   UNL     1     -10.799  13.940  67.398  1.00  0.00    -0.285 C  
HETATM    7  C   UNL     1     -10.699  16.011  65.842  1.00  0.00    -0.280 C  
HETATM    8  C   UNL     1     -10.075  14.673  66.257  1.00  0.00    -0.307 C  
ENDROOT
BRANCH   6   9
HETATM    9  N   UNL     1      -9.918  12.923  68.026  1.00  0.00    -0.230 N  
HETATM   10  N   UNL     1     -10.530  11.820  68.566  1.00  0.00    -0.210 NA 
HETATM   11  C   UNL     1      -9.827  10.860  69.081  1.00  0.00    -0.145 C  
HETATM   12  O   UNL     1      -7.973  14.106  67.575  1.00  0.00    -0.162 OA 
HETATM   13  C   UNL     1      -8.352  10.900  69.148  1.00  0.00    -0.077 A  
HETATM   14  C   UNL     1      -7.577   9.860  69.677  1.00  0.00    -0.136 A  
HETATM   15  C   UNL     1      -8.538  13.115  68.038  1.00  0.00    -0.182 C  
HETATM   16  C   UNL     1      -6.182   9.955  69.669  1.00  0.00    -0.047 A  
HETATM   17  C   UNL     1      -7.727  12.031  68.628  1.00  0.00    -0.099 A  
HETATM   18  C   UNL     1      -5.558  11.089  69.152  1.00  0.00    -0.040 A  
HETATM   19  C   UNL     1      -6.328  12.130  68.635  1.00  0.00    -0.063 A  
BRANCH  11  20
HETATM   20  C   UNL     1     -10.595   9.639  69.572  1.00  0.00    -0.247 C  
BRANCH  20  21
HETATM   21  C   UNL     1     -10.505   8.396  68.713  1.00  0.00    -0.202 A  
HETATM   22 CL   UNL     1     -10.648   4.783  65.981  1.00  0.00    -0.354 Cl 
HETATM   23  C   UNL     1     -10.685   7.108  69.240  1.00  0.00    -0.231 A  
HETATM   24  C   UNL     1     -10.407   7.423  66.476  1.00  0.00    -0.108 A  
HETATM   25  C   UNL     1     -10.713   5.991  68.396  1.00  0.00    -0.351 A  
HETATM   26  C   UNL     1     -10.373   8.538  67.320  1.00  0.00    -0.372 A  
HETATM   27  C   UNL     1     -10.577   6.153  67.019  1.00  0.00    -0.315 A  
ENDBRANCH  20  21
ENDBRANCH  11  20
ENDBRANCH   6   9
TORSDOF 3
ENDMDL
MODEL      130
REMARK 921   NORMALIZED FREE ENERGY PREDICTED BY IDOCK:   -4.57 KCAL/MOL
REMARK 922        TOTAL FREE ENERGY PREDICTED BY IDOCK:   -6.14 KCAL/MOL
REMARK 923 INTER-LIGAND FREE ENERGY PREDICTED BY IDOCK:   -5.98 KCAL/MOL
REMARK 924 INTRA-LIGAND FREE ENERGY PREDICTED BY IDOCK:   -0.16 KCAL/MOL
REMARK 927      BINDING AFFINITY PREDICTED BY RF-SCORE:    0.00 PKD
ROOT
HETATM    1  C   UNL     1      -9.088  19.682  67.727  1.00  0.00    -0.325 C  
HETATM    2  N   UNL     1      -9.220  18.220  67.721  1.00  0.00    -0.267 NA 
HETATM    3  C   UNL     1      -8.190  17.648  68.599  1.00  0.00    -0.264 C  
HETATM    4  C   UNL     1      -8.180  16.126  68.723  1.00  0.00    -0.216 C  
HETATM    5  C   UNL     1      -9.382  15.584  69.493  1.00  0.00    -0.276 C  
HETATM    6  C   UNL     1     -10.609  15.299  68.612  1.00  0.00    -0.236 C  
HETATM    7  C   UNL     1     -10.600  17.830  68.049  1.00  0.00    -0.365 C  
HETATM    8  C   UNL     1     -10.935  16.404  67.594  1.00  0.00    -0.225 C  
ENDROOT
BRANCH   6   9
HETATM    9  N   UNL     1     -10.539  13.969  67.955  1.00  0.00    -0.242 N  
HETATM   10  N   UNL     1     -10.880  12.881  68.719  1.00  0.00    -0.253 NA 
HETATM   11  C   UNL     1     -10.900  11.692  68.202  1.00  0.00    -0.217 C  
HETATM   12  O   UNL     1      -9.820  14.838  65.926  1.00  0.00    -0.302 OA 
HETATM   13  C   UNL     1     -10.536  11.427  66.796  1.00  0.00    -0.284 A  
HETATM   14  C   UNL     1     -10.578  10.154  66.216  1.00  0.00    -0.121 A  
HETATM   15  C   UNL     1     -10.147  13.875  66.622  1.00  0.00    -0.273 C  
HETATM   16  C   UNL     1     -10.256   9.989  64.865  1.00  0.00    -0.037 A  
HETATM   17  C   UNL     1     -10.159  12.525  66.025  1.00  0.00    -0.268 A  
HETATM   18  C   UNL     1      -9.876  11.088  64.096  1.00  0.00    -0.360 A  
HETATM   19  C   UNL     1      -9.823  12.355  64.674  1.00  0.00    -0.101 A  
BRANCH  11  20
HETATM   20  C   UNL     1     -11.380  10.563  69.107  1.00  0.00    -0.319 C  
BRANCH  20  21
HETATM   21  C   UNL     1     -10.306   9.727  69.767  1.00  0.00    -0.274 A  
HETATM   22 CL   UNL     1      -6.896   7.186  71.335  1.00  0.00    -0.059 Cl 
HETATM   23  C   UNL     1     -10.522   8.392  70.141  1.00  0.00    -0.230 A  
HETATM   24  C   UNL     1      -7.956   9.475  70.381  1.00  0.00    -0.200 A  
HETATM   25  C   UNL     1      -9.471   7.613  70.641  1.00  0.00    -0.163 A  
HETATM   26  C   UNL     1      -9.007  10.254  69.887  1.00  0.00     0.008 A  
HETATM   27  C   UNL     1      -8.193   8.156  70.755  1.00  0.00    -0.111 A  
ENDBRANCH  20  21
ENDBRANCH  11  20
ENDBRANCH   6   9
TORSDOF 3
ENDMDL
MODEL      131
REMARK 921   NORMALIZED FREE ENERGY PREDICTED BY IDOCK:   -4.55 KCAL/MOL
REMARK 922        TOTAL FREE ENERGY PREDICTED BY IDOCK:   -6.12 KCAL/MOL
REMARK 923 INTER-LIGAND FREE ENERGY PREDICTED BY IDOCK:   -6.22 KCAL/MOL
REMARK 924 INTRA-LIGAND FREE ENERGY PREDICTED BY IDOCK:    0.10 KCAL/MOL
REMARK 927      BINDING AFFINITY PREDICTED BY RF-SCORE:    0.00 PKD
ROOT
HETATM    1  C   UNL     1      -9.331   3.869  72.569  1.00  0.00    -0.116 C  
HETATM    2  N   UNL     1      -9.540   4.989  71.643  1.00  0.00    -0.151 NA 
HETATM    3  C   UNL     1     -10.681   5.785  72.114  1.00  0.00    -0.231 C  
HETATM    4  C   UNL     1     -11.044   7.007  71.272  1.00  0.00    -0.282 C  
HETATM    5  C   UNL     1     -10.006   8.123  71.364  1.00  0.00    -0.230 C  
HETATM    6  C   UNL     1      -8.872   8.004  70.332  1.00  0.00    -0.141 C  
HETATM    7  C   UNL     1      -8.291   5.743  71.461  1.00  0.00    -0.127 C  
HETATM    8  C   UNL     1      -8.292   6.589  70.181  1.00  0.00    -0.134 C  
ENDROOT
BRANCH   6   9
HETATM    9  N   UNL     1      -9.243   8.575  69.013  1.00  0.00    -0.146 N  
HETATM   10  N   UNL     1     -10.291   9.461  68.993  1.00  0.00    -0.205 NA 
HETATM   11  C   UNL     1     -10.639  10.047  67.890  1.00  0.00    -0.250 C  
HETATM   12  O   UNL     1      -7.600   7.400  67.870  1.00  0.00    -0.108 OA 
HETATM   13  C   UNL     1      -9.967   9.784  66.601  1.00  0.00    -0.292 A  
HETATM   14  C   UNL     1     -10.313  10.428  65.407  1.00  0.00    -0.270 A  
HETATM   15  C   UNL     1      -8.531   8.206  67.874  1.00  0.00    -0.132 C  
HETATM   16  C   UNL     1      -9.603  10.154  64.234  1.00  0.00    -0.354 A  
HETATM   17  C   UNL     1      -8.922   8.862  66.611  1.00  0.00    -0.165 A  
HETATM   18  C   UNL     1      -8.561   9.229  64.244  1.00  0.00    -0.214 A  
HETATM   19  C   UNL     1      -8.221   8.579  65.429  1.00  0.00    -0.145 A  
BRANCH  11  20
HETATM   20  C   UNL     1     -11.754  11.081  67.988  1.00  0.00    -0.257 C  
BRANCH  20  21
HETATM   21  C   UNL     1     -11.374  12.512  67.675  1.00  0.00    -0.362 A  
HETATM   22 CL   UNL     1     -10.457  16.916  67.116  1.00  0.00    -0.316 Cl 
HETATM   23  C   UNL     1     -12.027  13.258  66.682  1.00  0.00    -0.446 A  
HETATM   24  C   UNL     1     -10.141  14.520  68.315  1.00  0.00    -0.232 A  
HETATM   25  C   UNL     1     -11.730  14.614  66.500  1.00  0.00    -0.335 A  
HETATM   26  C   UNL     1     -10.434  13.164  68.493  1.00  0.00    -0.262 A  
HETATM   27  C   UNL     1     -10.792  15.240  67.318  1.00  0.00    -0.318 A  
ENDBRANCH  20  21
ENDBRANCH  11  20
ENDBRANCH   6   9
TORSDOF 3
ENDMDL
MODEL      132
REMARK 921   NORMALIZED FREE ENERGY PREDICTED BY IDOCK:   -4.52 KCAL/MOL
REMARK 922        TOTAL FREE ENERGY PREDICTED BY IDOCK:   -6.09 KCAL/MOL
REMARK 923 INTER-LIGAND FREE ENERGY PREDICTED BY IDOCK:   -5.07 KCAL/MOL
REMARK 924 INTRA-LIGAND FREE ENERGY PREDICTED BY IDOCK:   -1.02 KCAL/MOL
REMARK 927      BINDING AFFINITY PREDICTED BY RF-SCORE:    0.00 PKD
ROOT
HETATM    1  C   UNL     1      -7.548  16.364  69.051  1.00  0.00    -0.232 C  
HETATM    2  N   UNL     1      -7.882  14.975  68.712  1.00  0.00    -0.141 NA 
HETATM    3  C   UNL     1      -9.335  14.796  68.828  1.00  0.00    -0.198 C  
HETATM    4  C   UNL     1      -9.870  13.403  68.504  1.00  0.00    -0.178 C  
HETATM    5  C   UNL     1      -9.773  13.059  67.019  1.00  0.00    -0.235 C  
HETATM    6  C   UNL     1      -8.436  12.415  66.617  1.00  0.00    -0.030 C  
HETATM    7  C   UNL     1      -7.315  14.616  67.404  1.00  0.00    -0.168 C  
HETATM    8  C   UNL     1      -7.194  13.100  67.207  1.00  0.00    -0.045 C  
ENDROOT
BRANCH   6   9
HETATM    9  N   UNL     1      -8.413  10.952  66.870  1.00  0.00    -0.131 N  
HETATM   10  N   UNL     1      -8.403  10.549  68.182  1.00  0.00    -0.116 NA 
HETATM   11  C   UNL     1      -8.440   9.289  68.485  1.00  0.00    -0.123 C  
HETATM   12  O   UNL     1      -8.398  10.407  64.614  1.00  0.00    -0.169 OA 
HETATM   13  C   UNL     1      -8.464   8.223  67.463  1.00  0.00    -0.130 A  
HETATM   14  C   UNL     1      -8.531   6.860  67.775  1.00  0.00    -0.123 A  
HETATM   15  C   UNL     1      -8.407  10.064  65.796  1.00  0.00    -0.132 C  
HETATM   16  C   UNL     1      -8.590   5.910  66.750  1.00  0.00    -0.113 A  
HETATM   17  C   UNL     1      -8.443   8.627  66.130  1.00  0.00    -0.140 A  
HETATM   18  C   UNL     1      -8.565   6.315  65.416  1.00  0.00    -0.097 A  
HETATM   19  C   UNL     1      -8.488   7.671  65.104  1.00  0.00    -0.057 A  
BRANCH  11  20
HETATM   20  C   UNL     1      -8.518   8.946  69.968  1.00  0.00    -0.141 C  
BRANCH  20  21
HETATM   21  C   UNL     1      -9.904   8.879  70.572  1.00  0.00    -0.242 A  
HETATM   22 CL   UNL     1     -14.185   8.461  72.001  1.00  0.00    -0.506 Cl 
HETATM   23  C   UNL     1     -10.756   9.993  70.615  1.00  0.00    -0.325 A  
HETATM   24  C   UNL     1     -11.729   7.503  71.430  1.00  0.00    -0.310 A  
HETATM   25  C   UNL     1     -12.073   9.866  71.072  1.00  0.00    -0.450 A  
HETATM   26  C   UNL     1     -10.412   7.632  70.979  1.00  0.00    -0.218 A  
HETATM   27  C   UNL     1     -12.555   8.622  71.475  1.00  0.00    -0.322 A  
ENDBRANCH  20  21
ENDBRANCH  11  20
ENDBRANCH   6   9
TORSDOF 3
ENDMDL
MODEL      133
REMARK 921   NORMALIZED FREE ENERGY PREDICTED BY IDOCK:   -4.50 KCAL/MOL
REMARK 922        TOTAL FREE ENERGY PREDICTED BY IDOCK:   -6.06 KCAL/MOL
REMARK 923 INTER-LIGAND FREE ENERGY PREDICTED BY IDOCK:   -5.55 KCAL/MOL
REMARK 924 INTRA-LIGAND FREE ENERGY PREDICTED BY IDOCK:   -0.51 KCAL/MOL
REMARK 927      BINDING AFFINITY PREDICTED BY RF-SCORE:    0.00 PKD
ROOT
HETATM    1  C   UNL     1      -9.977   5.526  73.426  1.00  0.00    -0.176 C  
HETATM    2  N   UNL     1     -10.153   6.460  72.307  1.00  0.00    -0.176 NA 
HETATM    3  C   UNL     1     -11.566   6.460  71.909  1.00  0.00    -0.318 C  
HETATM    4  C   UNL     1     -11.940   7.387  70.754  1.00  0.00    -0.261 C  
HETATM    5  C   UNL     1     -11.868   8.866  71.130  1.00  0.00    -0.353 C  
HETATM    6  C   UNL     1     -10.481   9.494  70.915  1.00  0.00    -0.312 C  
HETATM    7  C   UNL     1      -9.605   7.780  72.653  1.00  0.00    -0.202 C  
HETATM    8  C   UNL     1      -9.307   8.638  71.417  1.00  0.00    -0.305 C  
ENDROOT
BRANCH   6   9
HETATM    9  N   UNL     1     -10.266   9.929  69.512  1.00  0.00    -0.209 N  
HETATM   10  N   UNL     1      -9.210   9.363  68.842  1.00  0.00    -0.138 NA 
HETATM   11  C   UNL     1      -8.991   9.647  67.596  1.00  0.00    -0.125 C  
HETATM   12  O   UNL     1     -12.065  11.395  69.529  1.00  0.00    -0.315 OA 
HETATM   13  C   UNL     1      -9.824  10.601  66.836  1.00  0.00    -0.228 A  
HETATM   14  C   UNL     1      -9.616  10.898  65.484  1.00  0.00    -0.266 A  
HETATM   15  C   UNL     1     -11.123  10.864  68.938  1.00  0.00    -0.252 C  
HETATM   16  C   UNL     1     -10.474  11.783  64.823  1.00  0.00    -0.341 A  
HETATM   17  C   UNL     1     -10.879  11.200  67.521  1.00  0.00    -0.303 A  
HETATM   18  C   UNL     1     -11.527  12.385  65.510  1.00  0.00    -0.404 A  
HETATM   19  C   UNL     1     -11.729  12.098  66.859  1.00  0.00    -0.374 A  
BRANCH  11  20
HETATM   20  C   UNL     1      -7.850   8.899  66.916  1.00  0.00    -0.101 C  
BRANCH  20  21
HETATM   21  C   UNL     1      -7.257   7.736  67.681  1.00  0.00    -0.091 A  
HETATM   22 CL   UNL     1      -5.689   4.418  70.341  1.00  0.00    -0.012 Cl 
HETATM   23  C   UNL     1      -5.907   7.704  68.065  1.00  0.00    -0.039 A  
HETATM   24  C   UNL     1      -7.624   5.687  68.955  1.00  0.00    -0.088 A  
HETATM   25  C   UNL     1      -5.421   6.670  68.873  1.00  0.00    -0.016 A  
HETATM   26  C   UNL     1      -8.108   6.717  68.144  1.00  0.00    -0.115 A  
HETATM   27  C   UNL     1      -6.281   5.668  69.317  1.00  0.00    -0.029 A  
ENDBRANCH  20  21
ENDBRANCH  11  20
ENDBRANCH   6   9
TORSDOF 3
ENDMDL
MODEL      134
REMARK 921   NORMALIZED FREE ENERGY PREDICTED BY IDOCK:   -4.46 KCAL/MOL
REMARK 922        TOTAL FREE ENERGY PREDICTED BY IDOCK:   -6.02 KCAL/MOL
REMARK 923 INTER-LIGAND FREE ENERGY PREDICTED BY IDOCK:   -7.57 KCAL/MOL
REMARK 924 INTRA-LIGAND FREE ENERGY PREDICTED BY IDOCK:    1.55 KCAL/MOL
REMARK 927      BINDING AFFINITY PREDICTED BY RF-SCORE:    0.00 PKD
ROOT
HETATM    1  C   UNL     1     -10.725  17.664  67.196  1.00  0.00    -0.200 C  
HETATM    2  N   UNL     1     -10.675  16.213  66.974  1.00  0.00    -0.293 NA 
HETATM    3  C   UNL     1     -11.731  15.576  67.772  1.00  0.00    -0.088 C  
HETATM    4  C   UNL     1     -11.835  14.057  67.660  1.00  0.00    -0.430 C  
HETATM    5  C   UNL     1     -12.346  13.593  66.298  1.00  0.00    -0.464 C  
HETATM    6  C   UNL     1     -11.235  13.389  65.254  1.00  0.00    -0.289 C  
HETATM    7  C   UNL     1     -10.718  15.914  65.535  1.00  0.00    -0.372 C  
HETATM    8  C   UNL     1     -10.188  14.513  65.207  1.00  0.00    -0.431 C  
ENDROOT
BRANCH   6   9
HETATM    9  N   UNL     1     -10.588  12.058  65.367  1.00  0.00    -0.268 N  
HETATM   10  N   UNL     1     -10.772  11.377  66.545  1.00  0.00    -0.267 NA 
HETATM   11  C   UNL     1     -10.288  10.184  66.700  1.00  0.00    -0.208 C  
HETATM   12  O   UNL     1      -9.653  12.161  63.246  1.00  0.00    -0.327 OA 
HETATM   13  C   UNL     1      -9.496   9.503  65.656  1.00  0.00    -0.326 A  
HETATM   14  C   UNL     1      -8.989   8.205  65.799  1.00  0.00    -0.165 A  
HETATM   15  C   UNL     1      -9.843  11.557  64.303  1.00  0.00    -0.244 C  
HETATM   16  C   UNL     1      -8.282   7.612  64.748  1.00  0.00    -0.081 A  
HETATM   17  C   UNL     1      -9.281  10.202  64.471  1.00  0.00    -0.305 A  
HETATM   18  C   UNL     1      -8.065   8.314  63.564  1.00  0.00    -0.130 A  
HETATM   19  C   UNL     1      -8.560   9.610  63.424  1.00  0.00    -0.213 A  
BRANCH  11  20
HETATM   20  C   UNL     1     -10.623   9.476  68.008  1.00  0.00    -0.282 C  
BRANCH  20  21
HETATM   21  C   UNL     1     -11.207  10.335  69.108  1.00  0.00    -0.268 A  
HETATM   22 CL   UNL     1     -13.361  12.847  72.206  1.00  0.00    -0.635 Cl 
HETATM   23  C   UNL     1     -11.063  11.731  69.123  1.00  0.00    -0.294 A  
HETATM   24  C   UNL     1     -12.694  10.510  71.037  1.00  0.00    -0.504 A  
HETATM   25  C   UNL     1     -11.716  12.504  70.091  1.00  0.00    -0.255 A  
HETATM   26  C   UNL     1     -12.037   9.737  70.073  1.00  0.00     0.062 A  
HETATM   27  C   UNL     1     -12.530  11.891  71.041  1.00  0.00    -0.290 A  
ENDBRANCH  20  21
ENDBRANCH  11  20
ENDBRANCH   6   9
TORSDOF 3
ENDMDL
MODEL      135
REMARK 921   NORMALIZED FREE ENERGY PREDICTED BY IDOCK:   -4.46 KCAL/MOL
REMARK 922        TOTAL FREE ENERGY PREDICTED BY IDOCK:   -6.02 KCAL/MOL
REMARK 923 INTER-LIGAND FREE ENERGY PREDICTED BY IDOCK:   -6.19 KCAL/MOL
REMARK 924 INTRA-LIGAND FREE ENERGY PREDICTED BY IDOCK:    0.17 KCAL/MOL
REMARK 927      BINDING AFFINITY PREDICTED BY RF-SCORE:    0.00 PKD
ROOT
HETATM    1  C   UNL     1      -7.202   2.885  66.920  1.00  0.00    -0.058 C  
HETATM    2  N   UNL     1      -7.668   4.268  67.079  1.00  0.00    -0.091 NA 
HETATM    3  C   UNL     1      -6.500   5.153  67.172  1.00  0.00    -0.048 C  
HETATM    4  C   UNL     1      -6.795   6.642  67.334  1.00  0.00    -0.073 C  
HETATM    5  C   UNL     1      -7.388   7.273  66.076  1.00  0.00    -0.075 C  
HETATM    6  C   UNL     1      -8.921   7.186  66.000  1.00  0.00    -0.111 C  
HETATM    7  C   UNL     1      -8.623   4.611  66.014  1.00  0.00    -0.115 C  
HETATM    8  C   UNL     1      -9.503   5.814  66.375  1.00  0.00    -0.172 C  
ENDROOT
BRANCH   6   9
HETATM    9  N   UNL     1      -9.588   8.276  66.756  1.00  0.00    -0.204 N  
HETATM   10  N   UNL     1      -9.942   9.397  66.046  1.00  0.00    -0.300 NA 
HETATM   11  C   UNL     1     -10.579  10.368  66.622  1.00  0.00    -0.178 C  
HETATM   12  O   UNL     1      -9.506   7.135  68.775  1.00  0.00    -0.142 OA 
HETATM   13  C   UNL     1     -10.935  10.350  68.055  1.00  0.00    -0.347 A  
HETATM   14  C   UNL     1     -11.646  11.379  68.684  1.00  0.00    -0.384 A  
HETATM   15  C   UNL     1      -9.832   8.125  68.119  1.00  0.00    -0.168 C  
HETATM   16  C   UNL     1     -11.981  11.271  70.038  1.00  0.00    -0.447 A  
HETATM   17  C   UNL     1     -10.552   9.228  68.786  1.00  0.00    -0.220 A  
HETATM   18  C   UNL     1     -11.593  10.150  70.769  1.00  0.00    -0.445 A  
HETATM   19  C   UNL     1     -10.876   9.129  70.147  1.00  0.00    -0.269 A  
BRANCH  11  20
HETATM   20  C   UNL     1     -11.007  11.527  65.729  1.00  0.00    -0.305 C  
BRANCH  20  21
HETATM   21  C   UNL     1     -10.403  12.878  66.045  1.00  0.00    -0.294 A  
HETATM   22 CL   UNL     1      -8.431  16.926  66.566  1.00  0.00    -0.282 Cl 
HETATM   23  C   UNL     1      -9.254  13.017  66.837  1.00  0.00    -0.236 A  
HETATM   24  C   UNL     1     -10.323  15.274  65.584  1.00  0.00    -0.389 A  
HETATM   25  C   UNL     1      -8.655  14.270  67.011  1.00  0.00    -0.213 A  
HETATM   26  C   UNL     1     -10.924  14.023  65.415  1.00  0.00    -0.321 A  
HETATM   27  C   UNL     1      -9.190  15.392  66.381  1.00  0.00    -0.305 A  
ENDBRANCH  20  21
ENDBRANCH  11  20
ENDBRANCH   6   9
TORSDOF 3
ENDMDL
MODEL      136
REMARK 921   NORMALIZED FREE ENERGY PREDICTED BY IDOCK:   -4.45 KCAL/MOL
REMARK 922        TOTAL FREE ENERGY PREDICTED BY IDOCK:   -6.01 KCAL/MOL
REMARK 923 INTER-LIGAND FREE ENERGY PREDICTED BY IDOCK:   -5.27 KCAL/MOL
REMARK 924 INTRA-LIGAND FREE ENERGY PREDICTED BY IDOCK:   -0.73 KCAL/MOL
REMARK 927      BINDING AFFINITY PREDICTED BY RF-SCORE:    0.00 PKD
ROOT
HETATM    1  C   UNL     1      -7.646  13.633  68.278  1.00  0.00    -0.130 C  
HETATM    2  N   UNL     1      -8.124  12.287  67.942  1.00  0.00    -0.144 NA 
HETATM    3  C   UNL     1      -9.593  12.301  67.912  1.00  0.00    -0.203 C  
HETATM    4  C   UNL     1     -10.272  10.977  67.569  1.00  0.00    -0.219 C  
HETATM    5  C   UNL     1     -10.075  10.566  66.111  1.00  0.00    -0.306 C  
HETATM    6  C   UNL     1      -8.801   9.742  65.865  1.00  0.00    -0.150 C  
HETATM    7  C   UNL     1      -7.484  11.809  66.707  1.00  0.00    -0.057 C  
HETATM    8  C   UNL     1      -7.544  10.284  66.562  1.00  0.00    -0.113 C  
ENDROOT
BRANCH   6   9
HETATM    9  N   UNL     1      -8.995   8.298  66.155  1.00  0.00    -0.172 N  
HETATM   10  N   UNL     1      -9.940   7.976  67.097  1.00  0.00    -0.209 NA 
HETATM   11  C   UNL     1     -10.209   6.737  67.364  1.00  0.00    -0.197 C  
HETATM   12  O   UNL     1      -7.374   7.619  64.640  1.00  0.00    -0.074 OA 
HETATM   13  C   UNL     1      -9.512   5.610  66.712  1.00  0.00    -0.150 A  
HETATM   14  C   UNL     1      -9.809   4.267  66.971  1.00  0.00    -0.216 A  
HETATM   15  C   UNL     1      -8.237   7.348  65.475  1.00  0.00    -0.135 C  
HETATM   16  C   UNL     1      -9.132   3.255  66.282  1.00  0.00    -0.161 A  
HETATM   17  C   UNL     1      -8.531   5.933  65.777  1.00  0.00    -0.148 A  
HETATM   18  C   UNL     1      -8.148   3.580  65.350  1.00  0.00    -0.097 A  
HETATM   19  C   UNL     1      -7.843   4.916  65.098  1.00  0.00    -0.092 A  
BRANCH  11  20
HETATM   20  C   UNL     1     -11.337   6.482  68.358  1.00  0.00    -0.154 C  
BRANCH  20  21
HETATM   21  C   UNL     1     -10.964   6.518  69.824  1.00  0.00    -0.396 A  
HETATM   22 CL   UNL     1     -10.180   6.326  74.284  1.00  0.00    -0.341 Cl 
HETATM   23  C   UNL     1     -11.315   7.590  70.658  1.00  0.00    -0.301 A  
HETATM   24  C   UNL     1     -10.114   5.328  71.779  1.00  0.00    -0.257 A  
HETATM   25  C   UNL     1     -11.058   7.536  72.033  1.00  0.00    -0.288 A  
HETATM   26  C   UNL     1     -10.367   5.385  70.405  1.00  0.00    -0.353 A  
HETATM   27  C   UNL     1     -10.462   6.405  72.588  1.00  0.00    -0.210 A  
ENDBRANCH  20  21
ENDBRANCH  11  20
ENDBRANCH   6   9
TORSDOF 3
ENDMDL
MODEL      137
REMARK 921   NORMALIZED FREE ENERGY PREDICTED BY IDOCK:   -4.44 KCAL/MOL
REMARK 922        TOTAL FREE ENERGY PREDICTED BY IDOCK:   -6.00 KCAL/MOL
REMARK 923 INTER-LIGAND FREE ENERGY PREDICTED BY IDOCK:   -6.47 KCAL/MOL
REMARK 924 INTRA-LIGAND FREE ENERGY PREDICTED BY IDOCK:    0.47 KCAL/MOL
REMARK 927      BINDING AFFINITY PREDICTED BY RF-SCORE:    0.00 PKD
ROOT
HETATM    1  C   UNL     1     -12.278  17.266  74.292  1.00  0.00     0.330 C  
HETATM    2  N   UNL     1     -12.365  16.188  73.299  1.00  0.00    -0.506 NA 
HETATM    3  C   UNL     1     -13.773  15.802  73.143  1.00  0.00    -0.418 C  
HETATM    4  C   UNL     1     -14.059  14.689  72.137  1.00  0.00    -0.604 C  
HETATM    5  C   UNL     1     -13.839  15.124  70.690  1.00  0.00    -0.006 C  
HETATM    6  C   UNL     1     -12.398  14.924  70.192  1.00  0.00    -0.327 C  
HETATM    7  C   UNL     1     -11.688  16.583  72.054  1.00  0.00    -0.225 C  
HETATM    8  C   UNL     1     -11.312  15.381  71.179  1.00  0.00    -0.427 C  
ENDROOT
BRANCH   6   9
HETATM    9  N   UNL     1     -12.147  13.538  69.723  1.00  0.00    -0.328 N  
HETATM   10  N   UNL     1     -11.940  13.367  68.376  1.00  0.00    -0.353 NA 
HETATM   11  C   UNL     1     -11.657  12.197  67.896  1.00  0.00    -0.347 C  
HETATM   12  O   UNL     1     -12.328  12.622  71.847  1.00  0.00     0.142 OA 
HETATM   13  C   UNL     1     -11.572  10.987  68.740  1.00  0.00    -0.386 A  
HETATM   14  C   UNL     1     -11.242   9.722  68.240  1.00  0.00    -0.074 A  
HETATM   15  C   UNL     1     -12.126  12.490  70.639  1.00  0.00    -0.221 C  
HETATM   16  C   UNL     1     -11.142   8.631  69.109  1.00  0.00     0.158 A  
HETATM   17  C   UNL     1     -11.812  11.151  70.102  1.00  0.00    -0.449 A  
HETATM   18  C   UNL     1     -11.386   8.796  70.472  1.00  0.00    -0.255 A  
HETATM   19  C   UNL     1     -11.724  10.052  70.970  1.00  0.00    -0.479 A  
BRANCH  11  20
HETATM   20  C   UNL     1     -11.354  12.127  66.404  1.00  0.00    -0.411 C  
BRANCH  20  21
HETATM   21  C   UNL     1      -9.975  11.638  66.019  1.00  0.00    -0.260 A  
HETATM   22 CL   UNL     1      -5.974   9.763  65.009  1.00  0.00    -0.082 Cl 
HETATM   23  C   UNL     1      -8.841  11.907  66.801  1.00  0.00    -0.193 A  
HETATM   24  C   UNL     1      -8.604  10.201  64.600  1.00  0.00    -0.193 A  
HETATM   25  C   UNL     1      -7.603  11.340  66.478  1.00  0.00    -0.111 A  
HETATM   26  C   UNL     1      -9.839  10.772  64.919  1.00  0.00    -0.350 A  
HETATM   27  C   UNL     1      -7.490  10.488  65.382  1.00  0.00    -0.089 A  
ENDBRANCH  20  21
ENDBRANCH  11  20
ENDBRANCH   6   9
TORSDOF 3
ENDMDL
MODEL      138
REMARK 921   NORMALIZED FREE ENERGY PREDICTED BY IDOCK:   -4.40 KCAL/MOL
REMARK 922        TOTAL FREE ENERGY PREDICTED BY IDOCK:   -5.95 KCAL/MOL
REMARK 923 INTER-LIGAND FREE ENERGY PREDICTED BY IDOCK:   -5.47 KCAL/MOL
REMARK 924 INTRA-LIGAND FREE ENERGY PREDICTED BY IDOCK:   -0.48 KCAL/MOL
REMARK 927      BINDING AFFINITY PREDICTED BY RF-SCORE:    0.00 PKD
ROOT
HETATM    1  C   UNL     1     -10.998  19.486  66.771  1.00  0.00    -0.282 C  
HETATM    2  N   UNL     1     -10.181  18.293  67.028  1.00  0.00    -0.359 NA 
HETATM    3  C   UNL     1      -8.837  18.513  66.479  1.00  0.00    -0.293 C  
HETATM    4  C   UNL     1      -7.839  17.371  66.662  1.00  0.00    -0.292 C  
HETATM    5  C   UNL     1      -7.403  17.188  68.113  1.00  0.00    -0.202 C  
HETATM    6  C   UNL     1      -8.313  16.250  68.922  1.00  0.00    -0.231 C  
HETATM    7  C   UNL     1     -10.218  17.946  68.457  1.00  0.00    -0.390 C  
HETATM    8  C   UNL     1      -9.818  16.489  68.722  1.00  0.00    -0.254 C  
ENDROOT
BRANCH   6   9
HETATM    9  N   UNL     1      -7.968  14.819  68.728  1.00  0.00    -0.146 N  
HETATM   10  N   UNL     1      -8.619  14.154  67.719  1.00  0.00    -0.172 NA 
HETATM   11  C   UNL     1      -8.332  12.920  67.449  1.00  0.00    -0.190 C  
HETATM   12  O   UNL     1      -6.437  14.793  70.472  1.00  0.00    -0.152 OA 
HETATM   13  C   UNL     1      -7.328  12.149  68.212  1.00  0.00    -0.100 A  
HETATM   14  C   UNL     1      -6.988  10.824  67.915  1.00  0.00    -0.073 A  
HETATM   15  C   UNL     1      -7.017  14.218  69.551  1.00  0.00    -0.083 C  
HETATM   16  C   UNL     1      -5.998  10.173  68.659  1.00  0.00    -0.041 A  
HETATM   17  C   UNL     1      -6.687  12.810  69.256  1.00  0.00    -0.058 A  
HETATM   18  C   UNL     1      -5.360  10.834  69.707  1.00  0.00    -0.040 A  
HETATM   19  C   UNL     1      -5.704  12.150  70.010  1.00  0.00    -0.141 A  
BRANCH  11  20
HETATM   20  C   UNL     1      -9.043  12.299  66.252  1.00  0.00    -0.125 C  
BRANCH  20  21
HETATM   21  C   UNL     1      -9.604  10.907  66.450  1.00  0.00    -0.229 A  
HETATM   22 CL   UNL     1     -11.020   6.710  67.411  1.00  0.00    -0.422 Cl 
HETATM   23  C   UNL     1      -9.187   9.816  65.672  1.00  0.00    -0.252 A  
HETATM   24  C   UNL     1     -10.913   9.373  67.825  1.00  0.00    -0.122 A  
HETATM   25  C   UNL     1      -9.638   8.523  65.960  1.00  0.00    -0.236 A  
HETATM   26  C   UNL     1     -10.467  10.666  67.534  1.00  0.00    -0.272 A  
HETATM   27  C   UNL     1     -10.496   8.306  67.036  1.00  0.00    -0.314 A  
ENDBRANCH  20  21
ENDBRANCH  11  20
ENDBRANCH   6   9
TORSDOF 3
ENDMDL
MODEL      139
REMARK 921   NORMALIZED FREE ENERGY PREDICTED BY IDOCK:   -4.39 KCAL/MOL
REMARK 922        TOTAL FREE ENERGY PREDICTED BY IDOCK:   -5.94 KCAL/MOL
REMARK 923 INTER-LIGAND FREE ENERGY PREDICTED BY IDOCK:   -4.98 KCAL/MOL
REMARK 924 INTRA-LIGAND FREE ENERGY PREDICTED BY IDOCK:   -0.96 KCAL/MOL
REMARK 927      BINDING AFFINITY PREDICTED BY RF-SCORE:    0.00 PKD
ROOT
HETATM    1  C   UNL     1      -7.022   2.330  65.747  1.00  0.00    -0.047 C  
HETATM    2  N   UNL     1      -7.477   3.682  66.093  1.00  0.00    -0.079 NA 
HETATM    3  C   UNL     1      -6.518   4.278  67.032  1.00  0.00    -0.042 C  
HETATM    4  C   UNL     1      -6.827   5.698  67.500  1.00  0.00    -0.060 C  
HETATM    5  C   UNL     1      -6.656   6.740  66.397  1.00  0.00    -0.048 C  
HETATM    6  C   UNL     1      -7.920   6.963  65.551  1.00  0.00    -0.126 C  
HETATM    7  C   UNL     1      -7.721   4.468  64.874  1.00  0.00    -0.081 C  
HETATM    8  C   UNL     1      -8.637   5.673  65.121  1.00  0.00    -0.130 C  
ENDROOT
BRANCH   6   9
HETATM    9  N   UNL     1      -8.866   7.916  66.185  1.00  0.00    -0.160 N  
HETATM   10  N   UNL     1      -9.577   7.458  67.266  1.00  0.00    -0.143 NA 
HETATM   11  C   UNL     1     -10.380   8.246  67.910  1.00  0.00    -0.219 C  
HETATM   12  O   UNL     1      -8.374   9.630  64.700  1.00  0.00    -0.138 OA 
HETATM   13  C   UNL     1     -10.604   9.652  67.515  1.00  0.00    -0.339 A  
HETATM   14  C   UNL     1     -11.447  10.523  68.216  1.00  0.00    -0.272 A  
HETATM   15  C   UNL     1      -8.990   9.207  65.679  1.00  0.00    -0.203 C  
HETATM   16  C   UNL     1     -11.576  11.853  67.803  1.00  0.00    -0.393 A  
HETATM   17  C   UNL     1      -9.907  10.113  66.400  1.00  0.00    -0.279 A  
HETATM   18  C   UNL     1     -10.882  12.311  66.685  1.00  0.00    -0.296 A  
HETATM   19  C   UNL     1     -10.050  11.443  65.980  1.00  0.00    -0.275 A  
BRANCH  11  20
HETATM   20  C   UNL     1     -11.054   7.670  69.150  1.00  0.00     0.108 C  
BRANCH  20  21
HETATM   21  C   UNL     1     -10.355   7.913  70.470  1.00  0.00    -0.205 A  
HETATM   22 CL   UNL     1      -8.106   8.215  74.393  1.00  0.00    -0.306 Cl 
HETATM   23  C   UNL     1     -11.045   7.913  71.692  1.00  0.00    -0.285 A  
HETATM   24  C   UNL     1      -8.257   8.110  71.702  1.00  0.00    -0.156 A  
HETATM   25  C   UNL     1     -10.351   8.023  72.902  1.00  0.00    -0.397 A  
HETATM   26  C   UNL     1      -8.952   8.006  70.493  1.00  0.00    -0.152 A  
HETATM   27  C   UNL     1      -8.961   8.118  72.902  1.00  0.00    -0.260 A  
ENDBRANCH  20  21
ENDBRANCH  11  20
ENDBRANCH   6   9
TORSDOF 3
ENDMDL
MODEL      140
REMARK 921   NORMALIZED FREE ENERGY PREDICTED BY IDOCK:   -4.39 KCAL/MOL
REMARK 922        TOTAL FREE ENERGY PREDICTED BY IDOCK:   -5.93 KCAL/MOL
REMARK 923 INTER-LIGAND FREE ENERGY PREDICTED BY IDOCK:   -6.69 KCAL/MOL
REMARK 924 INTRA-LIGAND FREE ENERGY PREDICTED BY IDOCK:    0.76 KCAL/MOL
REMARK 927      BINDING AFFINITY PREDICTED BY RF-SCORE:    0.00 PKD
ROOT
HETATM    1  C   UNL     1     -10.859   3.951  73.861  1.00  0.00    -0.230 C  
HETATM    2  N   UNL     1     -10.744   4.942  72.784  1.00  0.00    -0.218 NA 
HETATM    3  C   UNL     1     -11.965   5.757  72.758  1.00  0.00    -0.012 C  
HETATM    4  C   UNL     1     -12.021   6.854  71.697  1.00  0.00    -0.379 C  
HETATM    5  C   UNL     1     -11.054   8.002  71.977  1.00  0.00    -0.353 C  
HETATM    6  C   UNL     1      -9.649   7.789  71.389  1.00  0.00    -0.155 C  
HETATM    7  C   UNL     1      -9.493   5.703  72.921  1.00  0.00    -0.147 C  
HETATM    8  C   UNL     1      -9.069   6.384  71.613  1.00  0.00    -0.144 C  
ENDROOT
BRANCH   6   9
HETATM    9  N   UNL     1      -9.567   8.182  69.960  1.00  0.00    -0.171 N  
HETATM   10  N   UNL     1     -10.390   9.200  69.547  1.00  0.00    -0.209 NA 
HETATM   11  C   UNL     1     -10.336   9.640  68.329  1.00  0.00    -0.204 C  
HETATM   12  O   UNL     1      -7.944   6.600  69.460  1.00  0.00    -0.113 OA 
HETATM   13  C   UNL     1      -9.428   9.068  67.314  1.00  0.00    -0.189 A  
HETATM   14  C   UNL     1      -9.339   9.549  66.002  1.00  0.00    -0.273 A  
HETATM   15  C   UNL     1      -8.677   7.526  69.112  1.00  0.00    -0.136 C  
HETATM   16  C   UNL     1      -8.425   8.980  65.109  1.00  0.00    -0.183 A  
HETATM   17  C   UNL     1      -8.612   8.014  67.720  1.00  0.00    -0.128 A  
HETATM   18  C   UNL     1      -7.612   7.923  65.516  1.00  0.00    -0.083 A  
HETATM   19  C   UNL     1      -7.706   7.436  66.818  1.00  0.00    -0.109 A  
BRANCH  11  20
HETATM   20  C   UNL     1     -11.224  10.832  67.994  1.00  0.00    -0.372 C  
BRANCH  20  21
HETATM   21  C   UNL     1     -11.894  11.522  69.162  1.00  0.00    -0.406 A  
HETATM   22 CL   UNL     1     -13.483  13.681  72.816  1.00  0.00    -0.584 Cl 
HETATM   23  C   UNL     1     -12.484  10.807  70.214  1.00  0.00    -0.395 A  
HETATM   24  C   UNL     1     -12.304  13.591  70.392  1.00  0.00    -0.397 A  
HETATM   25  C   UNL     1     -12.989  11.476  71.335  1.00  0.00    -0.450 A  
HETATM   26  C   UNL     1     -11.805  12.922  69.270  1.00  0.00    -0.363 A  
HETATM   27  C   UNL     1     -12.895  12.864  71.421  1.00  0.00    -0.283 A  
ENDBRANCH  20  21
ENDBRANCH  11  20
ENDBRANCH   6   9
TORSDOF 3
ENDMDL
MODEL      141
REMARK 921   NORMALIZED FREE ENERGY PREDICTED BY IDOCK:   -4.36 KCAL/MOL
REMARK 922        TOTAL FREE ENERGY PREDICTED BY IDOCK:   -5.90 KCAL/MOL
REMARK 923 INTER-LIGAND FREE ENERGY PREDICTED BY IDOCK:   -5.89 KCAL/MOL
REMARK 924 INTRA-LIGAND FREE ENERGY PREDICTED BY IDOCK:   -0.01 KCAL/MOL
REMARK 927      BINDING AFFINITY PREDICTED BY RF-SCORE:    0.00 PKD
ROOT
HETATM    1  C   UNL     1     -10.392   5.783  70.841  1.00  0.00    -0.237 C  
HETATM    2  N   UNL     1      -9.969   6.993  70.125  1.00  0.00    -0.182 NA 
HETATM    3  C   UNL     1      -9.813   6.669  68.701  1.00  0.00    -0.137 C  
HETATM    4  C   UNL     1      -9.380   7.817  67.792  1.00  0.00    -0.155 C  
HETATM    5  C   UNL     1     -10.468   8.874  67.609  1.00  0.00    -0.320 C  
HETATM    6  C   UNL     1     -10.445   9.980  68.677  1.00  0.00    -0.204 C  
HETATM    7  C   UNL     1     -10.888   8.104  70.411  1.00  0.00    -0.236 C  
HETATM    8  C   UNL     1     -10.266   9.475  70.117  1.00  0.00    -0.291 C  
ENDROOT
BRANCH   6   9
HETATM    9  N   UNL     1      -9.469  11.054  68.360  1.00  0.00    -0.175 N  
HETATM   10  N   UNL     1      -9.906  12.068  67.544  1.00  0.00    -0.184 NA 
HETATM   11  C   UNL     1      -9.133  13.072  67.268  1.00  0.00    -0.209 C  
HETATM   12  O   UNL     1      -7.769  10.089  69.609  1.00  0.00    -0.121 OA 
HETATM   13  C   UNL     1      -7.749  13.176  67.774  1.00  0.00    -0.153 A  
HETATM   14  C   UNL     1      -6.912  14.266  67.506  1.00  0.00    -0.177 A  
HETATM   15  C   UNL     1      -8.183  11.000  68.891  1.00  0.00    -0.127 C  
HETATM   16  C   UNL     1      -5.627  14.311  68.055  1.00  0.00    -0.128 A  
HETATM   17  C   UNL     1      -7.292  12.134  68.577  1.00  0.00    -0.105 A  
HETATM   18  C   UNL     1      -5.169  13.266  68.855  1.00  0.00    -0.073 A  
HETATM   19  C   UNL     1      -5.997  12.175  69.115  1.00  0.00    -0.075 A  
BRANCH  11  20
HETATM   20  C   UNL     1      -9.741  14.190  66.429  1.00  0.00    -0.313 C  
BRANCH  20  21
HETATM   21  C   UNL     1      -9.729  15.574  67.042  1.00  0.00    -0.230 A  
HETATM   22 CL   UNL     1     -10.148  19.707  68.853  1.00  0.00    -0.531 Cl 
HETATM   23  C   UNL     1      -9.391  16.716  66.302  1.00  0.00    -0.323 A  
HETATM   24  C   UNL     1     -10.323  17.017  68.920  1.00  0.00    -0.337 A  
HETATM   25  C   UNL     1      -9.505  17.991  66.868  1.00  0.00    -0.288 A  
HETATM   26  C   UNL     1     -10.203  15.743  68.355  1.00  0.00    -0.223 A  
HETATM   27  C   UNL     1      -9.973  18.137  68.172  1.00  0.00    -0.359 A  
ENDBRANCH  20  21
ENDBRANCH  11  20
ENDBRANCH   6   9
TORSDOF 3
ENDMDL
MODEL      142
REMARK 921   NORMALIZED FREE ENERGY PREDICTED BY IDOCK:   -4.35 KCAL/MOL
REMARK 922        TOTAL FREE ENERGY PREDICTED BY IDOCK:   -5.89 KCAL/MOL
REMARK 923 INTER-LIGAND FREE ENERGY PREDICTED BY IDOCK:   -5.88 KCAL/MOL
REMARK 924 INTRA-LIGAND FREE ENERGY PREDICTED BY IDOCK:   -0.01 KCAL/MOL
REMARK 927      BINDING AFFINITY PREDICTED BY RF-SCORE:    0.00 PKD
ROOT
HETATM    1  C   UNL     1      -7.379   8.837  71.797  1.00  0.00    -0.041 C  
HETATM    2  N   UNL     1      -7.931   9.307  70.521  1.00  0.00    -0.153 NA 
HETATM    3  C   UNL     1      -7.121   8.758  69.425  1.00  0.00    -0.057 C  
HETATM    4  C   UNL     1      -7.555   9.138  68.011  1.00  0.00    -0.085 C  
HETATM    5  C   UNL     1      -8.870   8.484  67.596  1.00  0.00    -0.138 C  
HETATM    6  C   UNL     1     -10.117   9.298  67.977  1.00  0.00    -0.193 C  
HETATM    7  C   UNL     1      -9.367   9.003  70.442  1.00  0.00    -0.208 C  
HETATM    8  C   UNL     1     -10.097   9.866  69.405  1.00  0.00    -0.227 C  
ENDROOT
BRANCH   6   9
HETATM    9  N   UNL     1     -10.430  10.356  66.983  1.00  0.00    -0.243 N  
HETATM   10  N   UNL     1      -9.888  10.210  65.730  1.00  0.00    -0.248 NA 
HETATM   11  C   UNL     1     -10.160  11.060  64.790  1.00  0.00    -0.308 C  
HETATM   12  O   UNL     1     -11.724  11.583  68.468  1.00  0.00    -0.290 OA 
HETATM   13  C   UNL     1     -11.028  12.236  65.005  1.00  0.00    -0.344 A  
HETATM   14  C   UNL     1     -11.353  13.148  63.994  1.00  0.00    -0.437 A  
HETATM   15  C   UNL     1     -11.244  11.426  67.344  1.00  0.00    -0.305 C  
HETATM   16  C   UNL     1     -12.214  14.216  64.266  1.00  0.00    -0.449 A  
HETATM   17  C   UNL     1     -11.556  12.405  66.284  1.00  0.00    -0.449 A  
HETATM   18  C   UNL     1     -12.738  14.386  65.546  1.00  0.00    -0.308 A  
HETATM   19  C   UNL     1     -12.408  13.485  66.557  1.00  0.00    -0.382 A  
BRANCH  11  20
HETATM   20  C   UNL     1      -9.584  10.761  63.411  1.00  0.00    -0.375 C  
BRANCH  20  21
HETATM   21  C   UNL     1      -8.417   9.798  63.363  1.00  0.00    -0.186 A  
HETATM   22 CL   UNL     1      -5.160   6.650  63.502  1.00  0.00    -0.025 Cl 
HETATM   23  C   UNL     1      -7.225  10.033  64.065  1.00  0.00    -0.129 A  
HETATM   24  C   UNL     1      -7.568   7.596  62.741  1.00  0.00    -0.113 A  
HETATM   25  C   UNL     1      -6.213   9.066  64.093  1.00  0.00    -0.072 A  
HETATM   26  C   UNL     1      -8.577   8.564  62.709  1.00  0.00    -0.051 A  
HETATM   27  C   UNL     1      -6.390   7.851  63.435  1.00  0.00    -0.067 A  
ENDBRANCH  20  21
ENDBRANCH  11  20
ENDBRANCH   6   9
TORSDOF 3
ENDMDL
MODEL      143
REMARK 921   NORMALIZED FREE ENERGY PREDICTED BY IDOCK:   -4.35 KCAL/MOL
REMARK 922        TOTAL FREE ENERGY PREDICTED BY IDOCK:   -5.88 KCAL/MOL
REMARK 923 INTER-LIGAND FREE ENERGY PREDICTED BY IDOCK:   -4.70 KCAL/MOL
REMARK 924 INTRA-LIGAND FREE ENERGY PREDICTED BY IDOCK:   -1.18 KCAL/MOL
REMARK 927      BINDING AFFINITY PREDICTED BY RF-SCORE:    0.00 PKD
ROOT
HETATM    1  C   UNL     1      -9.996   6.694  74.369  1.00  0.00    -0.332 C  
HETATM    2  N   UNL     1      -9.790   6.280  72.975  1.00  0.00    -0.166 NA 
HETATM    3  C   UNL     1      -8.500   6.809  72.512  1.00  0.00    -0.118 C  
HETATM    4  C   UNL     1      -8.111   6.470  71.075  1.00  0.00    -0.120 C  
HETATM    5  C   UNL     1      -7.770   4.994  70.882  1.00  0.00    -0.083 C  
HETATM    6  C   UNL     1      -8.985   4.114  70.544  1.00  0.00    -0.095 C  
HETATM    7  C   UNL     1      -9.946   4.824  72.845  1.00  0.00    -0.155 C  
HETATM    8  C   UNL     1     -10.230   4.387  71.403  1.00  0.00    -0.153 C  
ENDROOT
BRANCH   6   9
HETATM    9  N   UNL     1      -9.316   4.137  69.097  1.00  0.00    -0.152 N  
HETATM   10  N   UNL     1     -10.078   5.189  68.651  1.00  0.00    -0.168 NA 
HETATM   11  C   UNL     1     -10.361   5.311  67.392  1.00  0.00    -0.180 C  
HETATM   12  O   UNL     1      -8.181   2.163  68.649  1.00  0.00    -0.055 OA 
HETATM   13  C   UNL     1      -9.920   4.333  66.377  1.00  0.00    -0.223 A  
HETATM   14  C   UNL     1     -10.196   4.466  65.010  1.00  0.00    -0.166 A  
HETATM   15  C   UNL     1      -8.850   3.123  68.264  1.00  0.00    -0.121 C  
HETATM   16  C   UNL     1      -9.709   3.518  64.104  1.00  0.00    -0.168 A  
HETATM   17  C   UNL     1      -9.173   3.249  66.829  1.00  0.00    -0.187 A  
HETATM   18  C   UNL     1      -8.964   2.431  64.558  1.00  0.00    -0.117 A  
HETATM   19  C   UNL     1      -8.698   2.292  65.919  1.00  0.00    -0.119 A  
BRANCH  11  20
HETATM   20  C   UNL     1     -11.135   6.560  66.985  1.00  0.00    -0.411 C  
BRANCH  20  21
HETATM   21  C   UNL     1     -10.358   7.858  66.971  1.00  0.00    -0.411 A  
HETATM   22 CL   UNL     1      -7.672  11.508  67.070  1.00  0.00    -0.152 Cl 
HETATM   23  C   UNL     1     -10.511   8.832  67.969  1.00  0.00    -0.260 A  
HETATM   24  C   UNL     1      -8.527   9.171  66.029  1.00  0.00    -0.139 A  
HETATM   25  C   UNL     1      -9.692   9.967  67.988  1.00  0.00    -0.158 A  
HETATM   26  C   UNL     1      -9.350   8.041  66.007  1.00  0.00    -0.158 A  
HETATM   27  C   UNL     1      -8.702  10.130  67.021  1.00  0.00    -0.132 A  
ENDBRANCH  20  21
ENDBRANCH  11  20
ENDBRANCH   6   9
TORSDOF 3
ENDMDL
MODEL      144
REMARK 921   NORMALIZED FREE ENERGY PREDICTED BY IDOCK:   -4.33 KCAL/MOL
REMARK 922        TOTAL FREE ENERGY PREDICTED BY IDOCK:   -5.87 KCAL/MOL
REMARK 923 INTER-LIGAND FREE ENERGY PREDICTED BY IDOCK:   -4.83 KCAL/MOL
REMARK 924 INTRA-LIGAND FREE ENERGY PREDICTED BY IDOCK:   -1.04 KCAL/MOL
REMARK 927      BINDING AFFINITY PREDICTED BY RF-SCORE:    0.00 PKD
ROOT
HETATM    1  C   UNL     1      -5.382   5.298  64.375  1.00  0.00    -0.010 C  
HETATM    2  N   UNL     1      -6.337   5.627  65.441  1.00  0.00    -0.037 NA 
HETATM    3  C   UNL     1      -7.255   4.494  65.620  1.00  0.00    -0.072 C  
HETATM    4  C   UNL     1      -8.321   4.655  66.701  1.00  0.00    -0.106 C  
HETATM    5  C   UNL     1      -7.744   4.632  68.114  1.00  0.00    -0.081 C  
HETATM    6  C   UNL     1      -7.305   6.013  68.629  1.00  0.00    -0.085 C  
HETATM    7  C   UNL     1      -5.623   6.044  66.657  1.00  0.00    -0.013 C  
HETATM    8  C   UNL     1      -6.508   6.850  67.616  1.00  0.00    -0.050 C  
ENDROOT
BRANCH   6   9
HETATM    9  N   UNL     1      -8.435   6.792  69.196  1.00  0.00    -0.127 N  
HETATM   10  N   UNL     1      -9.163   7.558  68.319  1.00  0.00    -0.139 NA 
HETATM   11  C   UNL     1     -10.199   8.222  68.725  1.00  0.00    -0.210 C  
HETATM   12  O   UNL     1      -8.062   6.050  71.362  1.00  0.00    -0.111 OA 
HETATM   13  C   UNL     1     -10.642   8.226  70.135  1.00  0.00    -0.233 A  
HETATM   14  C   UNL     1     -11.774   8.916  70.584  1.00  0.00    -0.212 A  
HETATM   15  C   UNL     1      -8.714   6.717  70.558  1.00  0.00    -0.144 C  
HETATM   16  C   UNL     1     -12.152   8.838  71.928  1.00  0.00    -0.433 A  
HETATM   17  C   UNL     1      -9.889   7.474  71.034  1.00  0.00    -0.182 A  
HETATM   18  C   UNL     1     -11.396   8.089  72.828  1.00  0.00    -0.439 A  
HETATM   19  C   UNL     1     -10.262   7.409  72.384  1.00  0.00    -0.240 A  
BRANCH  11  20
HETATM   20  C   UNL     1     -10.993   8.968  67.659  1.00  0.00     0.008 C  
BRANCH  20  21
HETATM   21  C   UNL     1     -10.545  10.380  67.351  1.00  0.00    -0.321 A  
HETATM   22 CL   UNL     1      -9.634  14.698  66.316  1.00  0.00    -0.319 Cl 
HETATM   23  C   UNL     1      -9.840  10.701  66.181  1.00  0.00    -0.268 A  
HETATM   24  C   UNL     1     -10.674  12.760  67.878  1.00  0.00    -0.235 A  
HETATM   25  C   UNL     1      -9.544  12.034  65.871  1.00  0.00    -0.238 A  
HETATM   26  C   UNL     1     -10.964  11.428  68.190  1.00  0.00    -0.284 A  
HETATM   27  C   UNL     1      -9.965  13.058  66.718  1.00  0.00    -0.245 A  
ENDBRANCH  20  21
ENDBRANCH  11  20
ENDBRANCH   6   9
TORSDOF 3
ENDMDL
MODEL      145
REMARK 921   NORMALIZED FREE ENERGY PREDICTED BY IDOCK:   -4.30 KCAL/MOL
REMARK 922        TOTAL FREE ENERGY PREDICTED BY IDOCK:   -5.83 KCAL/MOL
REMARK 923 INTER-LIGAND FREE ENERGY PREDICTED BY IDOCK:   -4.94 KCAL/MOL
REMARK 924 INTRA-LIGAND FREE ENERGY PREDICTED BY IDOCK:   -0.89 KCAL/MOL
REMARK 927      BINDING AFFINITY PREDICTED BY RF-SCORE:    0.00 PKD
ROOT
HETATM    1  C   UNL     1      -8.609   4.950  72.025  1.00  0.00    -0.124 C  
HETATM    2  N   UNL     1      -8.926   5.852  70.911  1.00  0.00    -0.144 NA 
HETATM    3  C   UNL     1     -10.365   5.766  70.629  1.00  0.00    -0.245 C  
HETATM    4  C   UNL     1     -10.883   6.648  69.494  1.00  0.00    -0.339 C  
HETATM    5  C   UNL     1     -10.864   8.135  69.840  1.00  0.00    -0.215 C  
HETATM    6  C   UNL     1      -9.537   8.835  69.504  1.00  0.00    -0.167 C  
HETATM    7  C   UNL     1      -8.428   7.207  71.190  1.00  0.00    -0.121 C  
HETATM    8  C   UNL     1      -8.280   8.055  69.921  1.00  0.00    -0.119 C  
ENDROOT
BRANCH   6   9
HETATM    9  N   UNL     1      -9.461   9.253  68.081  1.00  0.00    -0.137 N  
HETATM   10  N   UNL     1      -8.510   8.639  67.304  1.00  0.00    -0.114 NA 
HETATM   11  C   UNL     1      -8.419   8.907  66.039  1.00  0.00    -0.129 C  
HETATM   12  O   UNL     1     -11.181  10.797  68.283  1.00  0.00    -0.254 OA 
HETATM   13  C   UNL     1      -9.290   9.893  65.367  1.00  0.00    -0.297 A  
HETATM   14  C   UNL     1      -9.221  10.174  63.998  1.00  0.00    -0.315 A  
HETATM   15  C   UNL     1     -10.335  10.222  67.597  1.00  0.00    -0.220 C  
HETATM   16  C   UNL     1     -10.108  11.092  63.427  1.00  0.00    -0.439 A  
HETATM   17  C   UNL     1     -10.236  10.541  66.159  1.00  0.00    -0.299 A  
HETATM   18  C   UNL     1     -11.051  11.743  64.221  1.00  0.00    -0.420 A  
HETATM   19  C   UNL     1     -11.114  11.472  65.586  1.00  0.00    -0.261 A  
BRANCH  11  20
HETATM   20  C   UNL     1      -7.394   8.106  65.244  1.00  0.00    -0.073 C  
BRANCH  20  21
HETATM   21  C   UNL     1      -7.326   6.623  65.534  1.00  0.00    -0.076 A  
HETATM   22 CL   UNL     1      -6.912   2.134  66.002  1.00  0.00    -0.043 Cl 
HETATM   23  C   UNL     1      -8.444   5.784  65.404  1.00  0.00    -0.151 A  
HETATM   24  C   UNL     1      -5.950   4.653  65.965  1.00  0.00    -0.023 A  
HETATM   25  C   UNL     1      -8.317   4.399  65.565  1.00  0.00    -0.114 A  
HETATM   26  C   UNL     1      -6.078   6.037  65.809  1.00  0.00    -0.029 A  
HETATM   27  C   UNL     1      -7.071   3.839  65.841  1.00  0.00    -0.066 A  
ENDBRANCH  20  21
ENDBRANCH  11  20
ENDBRANCH   6   9
TORSDOF 3
ENDMDL
MODEL      146
REMARK 921   NORMALIZED FREE ENERGY PREDICTED BY IDOCK:   -4.27 KCAL/MOL
REMARK 922        TOTAL FREE ENERGY PREDICTED BY IDOCK:   -5.80 KCAL/MOL
REMARK 923 INTER-LIGAND FREE ENERGY PREDICTED BY IDOCK:   -5.49 KCAL/MOL
REMARK 924 INTRA-LIGAND FREE ENERGY PREDICTED BY IDOCK:   -0.31 KCAL/MOL
REMARK 927      BINDING AFFINITY PREDICTED BY RF-SCORE:    0.00 PKD
ROOT
HETATM    1  C   UNL     1     -12.223  14.268  69.502  1.00  0.00    -0.297 C  
HETATM    2  N   UNL     1     -11.983  12.944  70.090  1.00  0.00    -0.337 NA 
HETATM    3  C   UNL     1     -12.917  12.747  71.206  1.00  0.00    -0.220 C  
HETATM    4  C   UNL     1     -12.817  11.411  71.939  1.00  0.00    -0.381 C  
HETATM    5  C   UNL     1     -13.304  10.232  71.098  1.00  0.00    -0.339 C  
HETATM    6  C   UNL     1     -12.210   9.601  70.222  1.00  0.00     0.089 C  
HETATM    7  C   UNL     1     -12.032  11.906  69.050  1.00  0.00    -0.262 C  
HETATM    8  C   UNL     1     -11.327  10.611  69.474  1.00  0.00    -0.342 C  
ENDROOT
BRANCH   6   9
HETATM    9  N   UNL     1     -11.385   8.616  70.967  1.00  0.00    -0.266 N  
HETATM   10  N   UNL     1     -10.047   8.898  71.094  1.00  0.00    -0.245 NA 
HETATM   11  C   UNL     1      -9.271   8.118  71.779  1.00  0.00    -0.174 C  
HETATM   12  O   UNL     1     -13.175   7.199  71.383  1.00  0.00    -0.385 OA 
HETATM   13  C   UNL     1      -9.754   6.883  72.430  1.00  0.00    -0.168 A  
HETATM   14  C   UNL     1      -8.934   6.045  73.195  1.00  0.00    -0.130 A  
HETATM   15  C   UNL     1     -11.981   7.477  71.502  1.00  0.00    -0.307 C  
HETATM   16  C   UNL     1      -9.475   4.913  73.814  1.00  0.00    -0.130 A  
HETATM   17  C   UNL     1     -11.105   6.578  72.279  1.00  0.00    -0.297 A  
HETATM   18  C   UNL     1     -10.825   4.607  73.659  1.00  0.00    -0.375 A  
HETATM   19  C   UNL     1     -11.641   5.434  72.889  1.00  0.00    -0.296 A  
BRANCH  11  20
HETATM   20  C   UNL     1      -7.822   8.564  71.937  1.00  0.00    -0.157 C  
BRANCH  20  21
HETATM   21  C   UNL     1      -7.226   9.339  70.782  1.00  0.00    -0.126 A  
HETATM   22 CL   UNL     1      -5.278  11.265  67.171  1.00  0.00    -0.053 Cl 
HETATM   23  C   UNL     1      -6.078  10.131  70.927  1.00  0.00    -0.050 A  
HETATM   24  C   UNL     1      -7.161   9.757  68.377  1.00  0.00    -0.077 A  
HETATM   25  C   UNL     1      -5.487  10.739  69.813  1.00  0.00    -0.041 A  
HETATM   26  C   UNL     1      -7.754   9.155  69.491  1.00  0.00    -0.080 A  
HETATM   27  C   UNL     1      -6.028  10.547  68.543  1.00  0.00    -0.043 A  
ENDBRANCH  20  21
ENDBRANCH  11  20
ENDBRANCH   6   9
TORSDOF 3
ENDMDL
MODEL      147
REMARK 921   NORMALIZED FREE ENERGY PREDICTED BY IDOCK:   -4.27 KCAL/MOL
REMARK 922        TOTAL FREE ENERGY PREDICTED BY IDOCK:   -5.79 KCAL/MOL
REMARK 923 INTER-LIGAND FREE ENERGY PREDICTED BY IDOCK:   -5.20 KCAL/MOL
REMARK 924 INTRA-LIGAND FREE ENERGY PREDICTED BY IDOCK:   -0.60 KCAL/MOL
REMARK 927      BINDING AFFINITY PREDICTED BY RF-SCORE:    0.00 PKD
ROOT
HETATM    1  C   UNL     1     -12.032  16.089  70.902  1.00  0.00    -0.339 C  
HETATM    2  N   UNL     1     -11.923  14.633  71.055  1.00  0.00    -0.325 NA 
HETATM    3  C   UNL     1     -12.721  14.218  72.216  1.00  0.00    -0.298 C  
HETATM    4  C   UNL     1     -12.732  12.723  72.526  1.00  0.00     0.403 C  
HETATM    5  C   UNL     1     -13.500  11.906  71.489  1.00  0.00     0.068 C  
HETATM    6  C   UNL     1     -12.641  11.445  70.300  1.00  0.00    -0.147 C  
HETATM    7  C   UNL     1     -12.267  13.960  69.793  1.00  0.00    -0.332 C  
HETATM    8  C   UNL     1     -11.720  12.529  69.719  1.00  0.00    -0.355 C  
ENDROOT
BRANCH   6   9
HETATM    9  N   UNL     1     -11.886  10.201  70.595  1.00  0.00    -0.317 N  
HETATM   10  N   UNL     1     -10.554  10.190  70.264  1.00  0.00    -0.290 NA 
HETATM   11  C   UNL     1      -9.813   9.164  70.542  1.00  0.00    -0.233 C  
HETATM   12  O   UNL     1     -13.733   9.105  71.473  1.00  0.00    -0.378 OA 
HETATM   13  C   UNL     1     -10.345   7.948  71.190  1.00  0.00    -0.225 A  
HETATM   14  C   UNL     1      -9.553   6.842  71.520  1.00  0.00    -0.165 A  
HETATM   15  C   UNL     1     -12.536   9.120  71.186  1.00  0.00    -0.233 C  
HETATM   16  C   UNL     1     -10.123   5.743  72.170  1.00  0.00    -0.219 A  
HETATM   17  C   UNL     1     -11.703   7.942  71.501  1.00  0.00    -0.317 A  
HETATM   18  C   UNL     1     -11.483   5.737  72.477  1.00  0.00    -0.349 A  
HETATM   19  C   UNL     1     -12.275   6.832  72.140  1.00  0.00    -0.260 A  
BRANCH  11  20
HETATM   20  C   UNL     1      -8.329   9.285  70.217  1.00  0.00    -0.204 C  
BRANCH  20  21
HETATM   21  C   UNL     1      -7.967   9.403  68.753  1.00  0.00    -0.092 A  
HETATM   22 CL   UNL     1      -6.504   9.526  64.465  1.00  0.00    -0.089 Cl 
HETATM   23  C   UNL     1      -7.486  10.597  68.195  1.00  0.00    -0.090 A  
HETATM   24  C   UNL     1      -7.540   8.286  66.624  1.00  0.00    -0.090 A  
HETATM   25  C   UNL     1      -7.050  10.638  66.866  1.00  0.00    -0.109 A  
HETATM   26  C   UNL     1      -7.981   8.248  67.951  1.00  0.00    -0.123 A  
HETATM   27  C   UNL     1      -7.075   9.482  66.087  1.00  0.00    -0.092 A  
ENDBRANCH  20  21
ENDBRANCH  11  20
ENDBRANCH   6   9
TORSDOF 3
ENDMDL
MODEL      148
REMARK 921   NORMALIZED FREE ENERGY PREDICTED BY IDOCK:   -4.23 KCAL/MOL
REMARK 922        TOTAL FREE ENERGY PREDICTED BY IDOCK:   -5.75 KCAL/MOL
REMARK 923 INTER-LIGAND FREE ENERGY PREDICTED BY IDOCK:   -5.66 KCAL/MOL
REMARK 924 INTRA-LIGAND FREE ENERGY PREDICTED BY IDOCK:   -0.09 KCAL/MOL
REMARK 927      BINDING AFFINITY PREDICTED BY RF-SCORE:    0.00 PKD
ROOT
HETATM    1  C   UNL     1      -9.692  16.007  69.127  1.00  0.00    -0.251 C  
HETATM    2  N   UNL     1      -9.912  14.575  68.887  1.00  0.00    -0.226 NA 
HETATM    3  C   UNL     1     -11.354  14.303  68.944  1.00  0.00    -0.274 C  
HETATM    4  C   UNL     1     -11.776  12.854  68.708  1.00  0.00    -0.363 C  
HETATM    5  C   UNL     1     -11.573  12.402  67.263  1.00  0.00    -0.435 C  
HETATM    6  C   UNL     1     -10.175  11.827  66.983  1.00  0.00    -0.214 C  
HETATM    7  C   UNL     1      -9.250  14.157  67.642  1.00  0.00    -0.193 C  
HETATM    8  C   UNL     1      -9.016  12.643  67.577  1.00  0.00    -0.187 C  
ENDROOT
BRANCH   6   9
HETATM    9  N   UNL     1     -10.067  10.393  67.356  1.00  0.00    -0.187 N  
HETATM   10  N   UNL     1     -10.612  10.022  68.560  1.00  0.00    -0.205 NA 
HETATM   11  C   UNL     1     -10.609   8.780  68.930  1.00  0.00    -0.155 C  
HETATM   12  O   UNL     1      -8.930   9.817  65.417  1.00  0.00    -0.164 OA 
HETATM   13  C   UNL     1     -10.006   7.706  68.115  1.00  0.00    -0.203 A  
HETATM   14  C   UNL     1     -10.019   6.357  68.490  1.00  0.00    -0.155 A  
HETATM   15  C   UNL     1      -9.439   9.499  66.492  1.00  0.00    -0.182 C  
HETATM   16  C   UNL     1      -9.461   5.392  67.644  1.00  0.00    -0.132 A  
HETATM   17  C   UNL     1      -9.425   8.082  66.907  1.00  0.00    -0.244 A  
HETATM   18  C   UNL     1      -8.877   5.770  66.437  1.00  0.00    -0.131 A  
HETATM   19  C   UNL     1      -8.854   7.114  66.068  1.00  0.00    -0.154 A  
BRANCH  11  20
HETATM   20  C   UNL     1     -11.319   8.457  70.240  1.00  0.00    -0.131 C  
BRANCH  20  21
HETATM   21  C   UNL     1     -10.594   7.524  71.186  1.00  0.00    -0.234 A  
HETATM   22 CL   UNL     1      -8.772   4.788  74.306  1.00  0.00    -0.110 Cl 
HETATM   23  C   UNL     1      -9.480   7.934  71.933  1.00  0.00    -0.220 A  
HETATM   24  C   UNL     1     -10.565   5.398  72.386  1.00  0.00    -0.276 A  
HETATM   25  C   UNL     1      -8.908   7.081  72.885  1.00  0.00    -0.146 A  
HETATM   26  C   UNL     1     -11.132   6.248  71.431  1.00  0.00    -0.339 A  
HETATM   27  C   UNL     1      -9.454   5.819  73.109  1.00  0.00    -0.146 A  
ENDBRANCH  20  21
ENDBRANCH  11  20
ENDBRANCH   6   9
TORSDOF 3
ENDMDL
MODEL      149
REMARK 921   NORMALIZED FREE ENERGY PREDICTED BY IDOCK:   -4.15 KCAL/MOL
REMARK 922        TOTAL FREE ENERGY PREDICTED BY IDOCK:   -5.66 KCAL/MOL
REMARK 923 INTER-LIGAND FREE ENERGY PREDICTED BY IDOCK:   -4.66 KCAL/MOL
REMARK 924 INTRA-LIGAND FREE ENERGY PREDICTED BY IDOCK:   -0.99 KCAL/MOL
REMARK 927      BINDING AFFINITY PREDICTED BY RF-SCORE:    0.00 PKD
ROOT
HETATM    1  C   UNL     1      -6.754   4.837  63.574  1.00  0.00    -0.038 C  
HETATM    2  N   UNL     1      -7.437   4.682  64.865  1.00  0.00    -0.072 NA 
HETATM    3  C   UNL     1      -8.551   3.740  64.699  1.00  0.00    -0.105 C  
HETATM    4  C   UNL     1      -9.378   3.448  65.950  1.00  0.00    -0.145 C  
HETATM    5  C   UNL     1      -8.615   2.630  66.990  1.00  0.00    -0.119 C  
HETATM    6  C   UNL     1      -7.800   3.484  67.976  1.00  0.00    -0.068 C  
HETATM    7  C   UNL     1      -6.471   4.323  65.914  1.00  0.00    -0.037 C  
HETATM    8  C   UNL     1      -6.995   4.619  67.325  1.00  0.00    -0.060 C  
ENDROOT
BRANCH   6   9
HETATM    9  N   UNL     1      -8.624   3.989  69.104  1.00  0.00    -0.077 N  
HETATM   10  N   UNL     1      -9.372   5.116  68.869  1.00  0.00    -0.118 NA 
HETATM   11  C   UNL     1     -10.161   5.586  69.784  1.00  0.00    -0.265 C  
HETATM   12  O   UNL     1      -7.936   2.316  70.557  1.00  0.00    -0.042 OA 
HETATM   13  C   UNL     1     -10.284   4.973  71.123  1.00  0.00    -0.281 A  
HETATM   14  C   UNL     1     -11.151   5.453  72.112  1.00  0.00    -0.234 A  
HETATM   15  C   UNL     1      -8.614   3.317  70.323  1.00  0.00    -0.059 C  
HETATM   16  C   UNL     1     -11.241   4.795  73.342  1.00  0.00    -0.425 A  
HETATM   17  C   UNL     1      -9.504   3.847  71.375  1.00  0.00    -0.222 A  
HETATM   18  C   UNL     1     -10.457   3.670  73.595  1.00  0.00    -0.262 A  
HETATM   19  C   UNL     1      -9.586   3.197  72.616  1.00  0.00    -0.182 A  
BRANCH  11  20
HETATM   20  C   UNL     1     -11.017   6.786  69.397  1.00  0.00    -0.321 C  
BRANCH  20  21
HETATM   21  C   UNL     1     -10.339   7.859  68.574  1.00  0.00    -0.229 A  
HETATM   22 CL   UNL     1      -8.077  10.741  65.905  1.00  0.00    -0.160 Cl 
HETATM   23  C   UNL     1      -9.322   8.672  69.098  1.00  0.00    -0.153 A  
HETATM   24  C   UNL     1      -9.946   8.855  66.380  1.00  0.00    -0.354 A  
HETATM   25  C   UNL     1      -8.635   9.573  68.276  1.00  0.00    -0.120 A  
HETATM   26  C   UNL     1     -10.635   7.959  67.203  1.00  0.00    -0.383 A  
HETATM   27  C   UNL     1      -8.948   9.659  66.921  1.00  0.00    -0.134 A  
ENDBRANCH  20  21
ENDBRANCH  11  20
ENDBRANCH   6   9
TORSDOF 3
ENDMDL
MODEL      150
REMARK 921   NORMALIZED FREE ENERGY PREDICTED BY IDOCK:   -4.11 KCAL/MOL
REMARK 922        TOTAL FREE ENERGY PREDICTED BY IDOCK:   -5.60 KCAL/MOL
REMARK 923 INTER-LIGAND FREE ENERGY PREDICTED BY IDOCK:   -4.87 KCAL/MOL
REMARK 924 INTRA-LIGAND FREE ENERGY PREDICTED BY IDOCK:   -0.73 KCAL/MOL
REMARK 927      BINDING AFFINITY PREDICTED BY RF-SCORE:    0.00 PKD
ROOT
HETATM    1  C   UNL     1      -8.134   4.436  63.215  1.00  0.00    -0.089 C  
HETATM    2  N   UNL     1      -8.555   4.796  64.575  1.00  0.00    -0.140 NA 
HETATM    3  C   UNL     1      -9.886   4.227  64.823  1.00  0.00    -0.158 C  
HETATM    4  C   UNL     1     -10.487   4.496  66.202  1.00  0.00    -0.198 C  
HETATM    5  C   UNL     1      -9.768   3.745  67.321  1.00  0.00    -0.144 C  
HETATM    6  C   UNL     1      -8.576   4.511  67.917  1.00  0.00    -0.102 C  
HETATM    7  C   UNL     1      -7.524   4.410  65.549  1.00  0.00    -0.081 C  
HETATM    8  C   UNL     1      -7.653   5.166  66.877  1.00  0.00    -0.088 C  
ENDROOT
BRANCH   6   9
HETATM    9  N   UNL     1      -8.991   5.488  68.956  1.00  0.00    -0.107 N  
HETATM   10  N   UNL     1      -8.818   6.818  68.662  1.00  0.00    -0.124 NA 
HETATM   11  C   UNL     1      -9.209   7.733  69.493  1.00  0.00    -0.149 C  
HETATM   12  O   UNL     1      -9.679   3.845  70.443  1.00  0.00    -0.187 OA 
HETATM   13  C   UNL     1      -9.825   7.416  70.797  1.00  0.00    -0.178 A  
HETATM   14  C   UNL     1     -10.276   8.393  71.693  1.00  0.00    -0.310 A  
HETATM   15  C   UNL     1      -9.533   5.033  70.156  1.00  0.00    -0.169 C  
HETATM   16  C   UNL     1     -10.886   8.012  72.893  1.00  0.00    -0.399 A  
HETATM   17  C   UNL     1      -9.975   6.067  71.113  1.00  0.00    -0.227 A  
HETATM   18  C   UNL     1     -11.032   6.663  73.209  1.00  0.00    -0.237 A  
HETATM   19  C   UNL     1     -10.575   5.689  72.323  1.00  0.00    -0.270 A  
BRANCH  11  20
HETATM   20  C   UNL     1      -9.056   9.179  69.036  1.00  0.00    -0.143 C  
BRANCH  20  21
HETATM   21  C   UNL     1      -8.968   9.408  67.543  1.00  0.00    -0.130 A  
HETATM   22 CL   UNL     1      -8.943   9.711  63.021  1.00  0.00    -0.260 Cl 
HETATM   23  C   UNL     1      -7.795   9.154  66.816  1.00  0.00    -0.101 A  
HETATM   24  C   UNL     1     -10.124   9.859  65.441  1.00  0.00    -0.270 A  
HETATM   25  C   UNL     1      -7.785   9.264  65.421  1.00  0.00    -0.099 A  
HETATM   26  C   UNL     1     -10.133   9.755  66.836  1.00  0.00    -0.287 A  
HETATM   27  C   UNL     1      -8.949   9.613  64.739  1.00  0.00    -0.225 A  
ENDBRANCH  20  21
ENDBRANCH  11  20
ENDBRANCH   6   9
TORSDOF 3
ENDMDL
MODEL      151
REMARK 921   NORMALIZED FREE ENERGY PREDICTED BY IDOCK:   -4.09 KCAL/MOL
REMARK 922        TOTAL FREE ENERGY PREDICTED BY IDOCK:   -5.58 KCAL/MOL
REMARK 923 INTER-LIGAND FREE ENERGY PREDICTED BY IDOCK:   -4.63 KCAL/MOL
REMARK 924 INTRA-LIGAND FREE ENERGY PREDICTED BY IDOCK:   -0.96 KCAL/MOL
REMARK 927      BINDING AFFINITY PREDICTED BY RF-SCORE:    0.00 PKD
ROOT
HETATM    1  C   UNL     1      -8.597   2.179  64.383  1.00  0.00    -0.090 C  
HETATM    2  N   UNL     1      -8.846   3.226  65.381  1.00  0.00    -0.128 NA 
HETATM    3  C   UNL     1      -7.556   3.766  65.831  1.00  0.00    -0.085 C  
HETATM    4  C   UNL     1      -7.619   4.880  66.874  1.00  0.00    -0.088 C  
HETATM    5  C   UNL     1      -8.167   6.191  66.312  1.00  0.00    -0.116 C  
HETATM    6  C   UNL     1      -9.698   6.309  66.392  1.00  0.00    -0.099 C  
HETATM    7  C   UNL     1      -9.786   4.226  64.851  1.00  0.00    -0.176 C  
HETATM    8  C   UNL     1     -10.460   5.047  65.956  1.00  0.00    -0.289 C  
ENDROOT
BRANCH   6   9
HETATM    9  N   UNL     1     -10.162   6.784  67.720  1.00  0.00    -0.156 N  
HETATM   10  N   UNL     1     -10.343   5.831  68.691  1.00  0.00    -0.200 NA 
HETATM   11  C   UNL     1     -10.691   6.172  69.893  1.00  0.00    -0.301 C  
HETATM   12  O   UNL     1     -10.245   9.009  67.066  1.00  0.00    -0.226 OA 
HETATM   13  C   UNL     1     -10.941   7.574  70.284  1.00  0.00    -0.264 A  
HETATM   14  C   UNL     1     -11.292   7.960  71.583  1.00  0.00    -0.299 A  
HETATM   15  C   UNL     1     -10.385   8.143  67.930  1.00  0.00    -0.220 C  
HETATM   16  C   UNL     1     -11.473   9.313  71.885  1.00  0.00    -0.382 A  
HETATM   17  C   UNL     1     -10.788   8.541  69.293  1.00  0.00    -0.072 A  
HETATM   18  C   UNL     1     -11.323  10.280  70.892  1.00  0.00    -0.376 A  
HETATM   19  C   UNL     1     -10.985   9.897  69.596  1.00  0.00    -0.285 A  
BRANCH  11  20
HETATM   20  C   UNL     1     -10.778   5.051  70.922  1.00  0.00    -0.053 C  
BRANCH  20  21
HETATM   21  C   UNL     1      -9.548   4.183  71.078  1.00  0.00    -0.253 A  
HETATM   22 CL   UNL     1      -5.897   1.658  71.992  1.00  0.00    -0.008 Cl 
HETATM   23  C   UNL     1      -8.261   4.647  70.765  1.00  0.00    -0.088 A  
HETATM   24  C   UNL     1      -8.551   2.135  71.956  1.00  0.00    -0.080 A  
HETATM   25  C   UNL     1      -7.136   3.859  71.033  1.00  0.00    -0.033 A  
HETATM   26  C   UNL     1      -9.676   2.920  71.683  1.00  0.00    -0.226 A  
HETATM   27  C   UNL     1      -7.285   2.609  71.630  1.00  0.00    -0.036 A  
ENDBRANCH  20  21
ENDBRANCH  11  20
ENDBRANCH   6   9
TORSDOF 3
ENDMDL
MODEL      152
REMARK 921   NORMALIZED FREE ENERGY PREDICTED BY IDOCK:   -4.00 KCAL/MOL
REMARK 922        TOTAL FREE ENERGY PREDICTED BY IDOCK:   -5.48 KCAL/MOL
REMARK 923 INTER-LIGAND FREE ENERGY PREDICTED BY IDOCK:   -5.40 KCAL/MOL
REMARK 924 INTRA-LIGAND FREE ENERGY PREDICTED BY IDOCK:   -0.08 KCAL/MOL
REMARK 927      BINDING AFFINITY PREDICTED BY RF-SCORE:    0.00 PKD
ROOT
HETATM    1  C   UNL     1     -11.954   8.130  71.098  1.00  0.00    -0.273 C  
HETATM    2  N   UNL     1     -11.088   9.201  70.588  1.00  0.00    -0.251 NA 
HETATM    3  C   UNL     1      -9.688   8.767  70.693  1.00  0.00    -0.197 C  
HETATM    4  C   UNL     1      -8.637   9.759  70.199  1.00  0.00    -0.214 C  
HETATM    5  C   UNL     1      -8.649   9.933  68.682  1.00  0.00    -0.119 C  
HETATM    6  C   UNL     1      -9.614  11.024  68.190  1.00  0.00    -0.171 C  
HETATM    7  C   UNL     1     -11.513   9.605  69.240  1.00  0.00     0.136 C  
HETATM    8  C   UNL     1     -11.001  10.998  68.852  1.00  0.00    -0.277 C  
ENDROOT
BRANCH   6   9
HETATM    9  N   UNL     1      -9.015  12.382  68.255  1.00  0.00    -0.192 N  
HETATM   10  N   UNL     1      -9.859  13.418  68.571  1.00  0.00    -0.213 NA 
HETATM   11  C   UNL     1      -9.402  14.624  68.704  1.00  0.00    -0.206 C  
HETATM   12  O   UNL     1      -6.888  11.637  67.702  1.00  0.00    -0.080 OA 
HETATM   13  C   UNL     1      -7.980  14.965  68.498  1.00  0.00    -0.140 A  
HETATM   14  C   UNL     1      -7.467  16.257  68.663  1.00  0.00    -0.185 A  
HETATM   15  C   UNL     1      -7.656  12.551  68.005  1.00  0.00    -0.127 C  
HETATM   16  C   UNL     1      -6.099  16.494  68.488  1.00  0.00    -0.129 A  
HETATM   17  C   UNL     1      -7.126  13.922  68.147  1.00  0.00    -0.118 A  
HETATM   18  C   UNL     1      -5.247  15.450  68.133  1.00  0.00    -0.124 A  
HETATM   19  C   UNL     1      -5.757  14.165  67.958  1.00  0.00    -0.131 A  
BRANCH  11  20
HETATM   20  C   UNL     1     -10.401  15.687  69.146  1.00  0.00    -0.241 C  
BRANCH  20  21
HETATM   21  C   UNL     1     -10.533  16.900  68.250  1.00  0.00    -0.352 A  
HETATM   22 CL   UNL     1     -10.497  20.463  65.450  1.00  0.00    -0.127 Cl 
HETATM   23  C   UNL     1     -10.525  18.208  68.758  1.00  0.00    -0.148 A  
HETATM   24  C   UNL     1     -10.526  17.820  65.990  1.00  0.00    -0.286 A  
HETATM   25  C   UNL     1     -10.531  19.307  67.891  1.00  0.00    -0.514 A  
HETATM   26  C   UNL     1     -10.526  16.722  66.855  1.00  0.00    -0.269 A  
HETATM   27  C   UNL     1     -10.528  19.110  66.512  1.00  0.00    -0.448 A  
ENDBRANCH  20  21
ENDBRANCH  11  20
ENDBRANCH   6   9
TORSDOF 3
ENDMDL
MODEL      153
REMARK 921   NORMALIZED FREE ENERGY PREDICTED BY IDOCK:   -3.97 KCAL/MOL
REMARK 922        TOTAL FREE ENERGY PREDICTED BY IDOCK:   -5.44 KCAL/MOL
REMARK 923 INTER-LIGAND FREE ENERGY PREDICTED BY IDOCK:   -4.73 KCAL/MOL
REMARK 924 INTRA-LIGAND FREE ENERGY PREDICTED BY IDOCK:   -0.71 KCAL/MOL
REMARK 927      BINDING AFFINITY PREDICTED BY RF-SCORE:    0.00 PKD
ROOT
HETATM    1  C   UNL     1     -13.270  14.407  64.804  1.00  0.00     0.725 C  
HETATM    2  N   UNL     1     -12.213  13.618  65.450  1.00  0.00    -0.415 NA 
HETATM    3  C   UNL     1     -10.957  13.819  64.716  1.00  0.00    -0.392 C  
HETATM    4  C   UNL     1      -9.737  13.075  65.254  1.00  0.00     0.003 C  
HETATM    5  C   UNL     1      -9.244  13.627  66.590  1.00  0.00    -0.225 C  
HETATM    6  C   UNL     1      -9.920  12.985  67.814  1.00  0.00    -0.227 C  
HETATM    7  C   UNL     1     -12.149  13.928  66.886  1.00  0.00    -0.430 C  
HETATM    8  C   UNL     1     -11.444  12.833  67.696  1.00  0.00    -0.387 C  
ENDROOT
BRANCH   6   9
HETATM    9  N   UNL     1      -9.282  11.703  68.206  1.00  0.00    -0.183 N  
HETATM   10  N   UNL     1     -10.052  10.570  68.106  1.00  0.00    -0.154 NA 
HETATM   11  C   UNL     1      -9.550   9.406  68.374  1.00  0.00    -0.146 C  
HETATM   12  O   UNL     1      -7.260  12.700  68.758  1.00  0.00    -0.102 OA 
HETATM   13  C   UNL     1      -8.156   9.223  68.827  1.00  0.00    -0.104 A  
HETATM   14  C   UNL     1      -7.592   7.969  69.095  1.00  0.00    -0.097 A  
HETATM   15  C   UNL     1      -7.960  11.693  68.644  1.00  0.00    -0.127 C  
HETATM   16  C   UNL     1      -6.251   7.875  69.482  1.00  0.00    -0.034 A  
HETATM   17  C   UNL     1      -7.380  10.372  68.959  1.00  0.00    -0.097 A  
HETATM   18  C   UNL     1      -5.477   9.026  69.618  1.00  0.00    -0.034 A  
HETATM   19  C   UNL     1      -6.039  10.275  69.361  1.00  0.00    -0.042 A  
BRANCH  11  20
HETATM   20  C   UNL     1     -10.457   8.203  68.145  1.00  0.00    -0.225 C  
BRANCH  20  21
HETATM   21  C   UNL     1     -10.745   7.337  69.352  1.00  0.00    -0.236 A  
HETATM   22 CL   UNL     1     -11.251   4.943  73.167  1.00  0.00    -0.387 Cl 
HETATM   23  C   UNL     1     -10.413   5.974  69.390  1.00  0.00    -0.331 A  
HETATM   24  C   UNL     1     -11.401   7.201  71.699  1.00  0.00    -0.282 A  
HETATM   25  C   UNL     1     -10.586   5.232  70.565  1.00  0.00    -0.272 A  
HETATM   26  C   UNL     1     -11.234   7.940  70.524  1.00  0.00    -0.259 A  
HETATM   27  C   UNL     1     -11.075   5.848  71.714  1.00  0.00    -0.265 A  
ENDBRANCH  20  21
ENDBRANCH  11  20
ENDBRANCH   6   9
TORSDOF 3
ENDMDL
MODEL      154
REMARK 921   NORMALIZED FREE ENERGY PREDICTED BY IDOCK:   -3.97 KCAL/MOL
REMARK 922        TOTAL FREE ENERGY PREDICTED BY IDOCK:   -5.44 KCAL/MOL
REMARK 923 INTER-LIGAND FREE ENERGY PREDICTED BY IDOCK:   -4.49 KCAL/MOL
REMARK 924 INTRA-LIGAND FREE ENERGY PREDICTED BY IDOCK:   -0.95 KCAL/MOL
REMARK 927      BINDING AFFINITY PREDICTED BY RF-SCORE:    0.00 PKD
ROOT
HETATM    1  C   UNL     1     -10.119   5.018  73.684  1.00  0.00    -0.177 C  
HETATM    2  N   UNL     1      -9.601   5.558  72.421  1.00  0.00    -0.150 NA 
HETATM    3  C   UNL     1      -8.335   6.253  72.687  1.00  0.00    -0.120 C  
HETATM    4  C   UNL     1      -7.643   6.877  71.478  1.00  0.00    -0.087 C  
HETATM    5  C   UNL     1      -7.068   5.838  70.518  1.00  0.00    -0.067 C  
HETATM    6  C   UNL     1      -8.064   5.364  69.447  1.00  0.00    -0.093 C  
HETATM    7  C   UNL     1      -9.525   4.497  71.405  1.00  0.00    -0.156 C  
HETATM    8  C   UNL     1      -9.472   5.051  69.976  1.00  0.00    -0.231 C  
ENDROOT
BRANCH   6   9
HETATM    9  N   UNL     1      -8.121   6.281  68.280  1.00  0.00    -0.111 N  
HETATM   10  N   UNL     1      -9.312   6.927  68.057  1.00  0.00    -0.124 NA 
HETATM   11  C   UNL     1      -9.424   7.788  67.094  1.00  0.00    -0.155 C  
HETATM   12  O   UNL     1      -5.924   5.871  67.655  1.00  0.00    -0.016 OA 
HETATM   13  C   UNL     1      -8.315   8.103  66.172  1.00  0.00    -0.126 A  
HETATM   14  C   UNL     1      -8.413   9.049  65.144  1.00  0.00    -0.183 A  
HETATM   15  C   UNL     1      -6.994   6.455  67.480  1.00  0.00    -0.078 C  
HETATM   16  C   UNL     1      -7.304   9.322  64.337  1.00  0.00    -0.105 A  
HETATM   17  C   UNL     1      -7.113   7.428  66.376  1.00  0.00    -0.074 A  
HETATM   18  C   UNL     1      -6.104   8.643  64.540  1.00  0.00    -0.066 A  
HETATM   19  C   UNL     1      -6.007   7.693  65.556  1.00  0.00    -0.038 A  
BRANCH  11  20
HETATM   20  C   UNL     1     -10.758   8.518  66.984  1.00  0.00    -0.190 C  
BRANCH  20  21
HETATM   21  C   UNL     1     -10.855   9.852  67.692  1.00  0.00    -0.318 A  
HETATM   22 CL   UNL     1     -11.584  13.748  69.890  1.00  0.00    -0.321 Cl 
HETATM   23  C   UNL     1     -10.921  11.066  66.992  1.00  0.00    -0.333 A  
HETATM   24  C   UNL     1     -11.238  11.076  69.769  1.00  0.00    -0.339 A  
HETATM   25  C   UNL     1     -11.129  12.271  67.674  1.00  0.00    -0.318 A  
HETATM   26  C   UNL     1     -11.024   9.874  69.088  1.00  0.00    -0.233 A  
HETATM   27  C   UNL     1     -11.290  12.270  69.058  1.00  0.00    -0.280 A  
ENDBRANCH  20  21
ENDBRANCH  11  20
ENDBRANCH   6   9
TORSDOF 3
ENDMDL
MODEL      155
REMARK 921   NORMALIZED FREE ENERGY PREDICTED BY IDOCK:   -3.96 KCAL/MOL
REMARK 922        TOTAL FREE ENERGY PREDICTED BY IDOCK:   -5.43 KCAL/MOL
REMARK 923 INTER-LIGAND FREE ENERGY PREDICTED BY IDOCK:   -4.34 KCAL/MOL
REMARK 924 INTRA-LIGAND FREE ENERGY PREDICTED BY IDOCK:   -1.09 KCAL/MOL
REMARK 927      BINDING AFFINITY PREDICTED BY RF-SCORE:    0.00 PKD
ROOT
HETATM    1  C   UNL     1     -11.893  14.761  66.597  1.00  0.00    -0.242 C  
HETATM    2  N   UNL     1     -11.260  13.474  66.907  1.00  0.00    -0.303 NA 
HETATM    3  C   UNL     1     -11.520  13.146  68.315  1.00  0.00    -0.314 C  
HETATM    4  C   UNL     1     -10.938  11.827  68.818  1.00  0.00    -0.281 C  
HETATM    5  C   UNL     1     -11.637  10.604  68.227  1.00  0.00    -0.245 C  
HETATM    6  C   UNL     1     -11.033  10.127  66.896  1.00  0.00    -0.036 C  
HETATM    7  C   UNL     1     -11.686  12.448  65.943  1.00  0.00    -0.419 C  
HETATM    8  C   UNL     1     -10.729  11.251  65.892  1.00  0.00    -0.291 C  
ENDROOT
BRANCH   6   9
HETATM    9  N   UNL     1      -9.851   9.250  67.092  1.00  0.00    -0.181 N  
HETATM   10  N   UNL     1      -8.619   9.856  67.076  1.00  0.00    -0.128 NA 
HETATM   11  C   UNL     1      -7.543   9.168  67.297  1.00  0.00    -0.088 C  
HETATM   12  O   UNL     1     -11.123   7.319  67.284  1.00  0.00    -0.258 OA 
HETATM   13  C   UNL     1      -7.563   7.712  67.544  1.00  0.00    -0.109 A  
HETATM   14  C   UNL     1      -6.412   6.960  67.810  1.00  0.00    -0.050 A  
HETATM   15  C   UNL     1     -10.028   7.882  67.285  1.00  0.00    -0.215 C  
HETATM   16  C   UNL     1      -6.518   5.590  68.074  1.00  0.00    -0.044 A  
HETATM   17  C   UNL     1      -8.808   7.088  67.531  1.00  0.00    -0.119 A  
HETATM   18  C   UNL     1      -7.764   4.967  68.057  1.00  0.00    -0.083 A  
HETATM   19  C   UNL     1      -8.909   5.711  67.782  1.00  0.00    -0.105 A  
BRANCH  11  20
HETATM   20  C   UNL     1      -6.233   9.947  67.349  1.00  0.00    -0.059 C  
BRANCH  20  21
HETATM   21  C   UNL     1      -6.263  11.264  68.094  1.00  0.00    -0.049 A  
HETATM   22 CL   UNL     1      -5.923  15.272  70.182  1.00  0.00    -0.143 Cl 
HETATM   23  C   UNL     1      -6.150  11.335  69.491  1.00  0.00    -0.085 A  
HETATM   24  C   UNL     1      -6.170  13.702  68.003  1.00  0.00    -0.139 A  
HETATM   25  C   UNL     1      -6.062  12.575  70.135  1.00  0.00    -0.099 A  
HETATM   26  C   UNL     1      -6.264  12.463  67.360  1.00  0.00    -0.158 A  
HETATM   27  C   UNL     1      -6.069  13.752  69.390  1.00  0.00    -0.103 A  
ENDBRANCH  20  21
ENDBRANCH  11  20
ENDBRANCH   6   9
TORSDOF 3
ENDMDL
MODEL      156
REMARK 921   NORMALIZED FREE ENERGY PREDICTED BY IDOCK:   -3.91 KCAL/MOL
REMARK 922        TOTAL FREE ENERGY PREDICTED BY IDOCK:   -5.37 KCAL/MOL
REMARK 923 INTER-LIGAND FREE ENERGY PREDICTED BY IDOCK:   -5.26 KCAL/MOL
REMARK 924 INTRA-LIGAND FREE ENERGY PREDICTED BY IDOCK:   -0.11 KCAL/MOL
REMARK 927      BINDING AFFINITY PREDICTED BY RF-SCORE:    0.00 PKD
ROOT
HETATM    1  C   UNL     1      -7.756   1.652  63.980  1.00  0.00    -0.060 C  
HETATM    2  N   UNL     1      -7.927   2.790  64.891  1.00  0.00    -0.081 NA 
HETATM    3  C   UNL     1      -6.635   3.087  65.523  1.00  0.00    -0.036 C  
HETATM    4  C   UNL     1      -6.619   4.256  66.506  1.00  0.00    -0.049 C  
HETATM    5  C   UNL     1      -6.791   5.611  65.823  1.00  0.00    -0.057 C  
HETATM    6  C   UNL     1      -8.258   6.039  65.654  1.00  0.00    -0.139 C  
HETATM    7  C   UNL     1      -8.548   3.922  64.187  1.00  0.00    -0.098 C  
HETATM    8  C   UNL     1      -9.193   4.931  65.144  1.00  0.00    -0.128 C  
ENDROOT
BRANCH   6   9
HETATM    9  N   UNL     1      -8.805   6.682  66.875  1.00  0.00    -0.115 N  
HETATM   10  N   UNL     1      -8.449   7.989  67.101  1.00  0.00    -0.123 NA 
HETATM   11  C   UNL     1      -8.932   8.639  68.114  1.00  0.00    -0.141 C  
HETATM   12  O   UNL     1      -9.957   4.783  67.545  1.00  0.00    -0.174 OA 
HETATM   13  C   UNL     1      -9.852   8.023  69.092  1.00  0.00    -0.178 A  
HETATM   14  C   UNL     1     -10.401   8.718  70.175  1.00  0.00    -0.225 A  
HETATM   15  C   UNL     1      -9.642   5.960  67.722  1.00  0.00    -0.115 C  
HETATM   16  C   UNL     1     -11.298   8.076  71.036  1.00  0.00    -0.294 A  
HETATM   17  C   UNL     1     -10.192   6.688  68.883  1.00  0.00    -0.195 A  
HETATM   18  C   UNL     1     -11.634   6.740  70.828  1.00  0.00    -0.418 A  
HETATM   19  C   UNL     1     -11.080   6.043  69.756  1.00  0.00    -0.476 A  
BRANCH  11  20
HETATM   20  C   UNL     1      -8.548  10.109  68.227  1.00  0.00    -0.116 C  
BRANCH  20  21
HETATM   21  C   UNL     1      -9.454  11.097  67.523  1.00  0.00    -0.178 A  
HETATM   22 CL   UNL     1     -12.422  14.051  65.791  1.00  0.00    -0.514 Cl 
HETATM   23  C   UNL     1     -10.346  10.705  66.514  1.00  0.00    -0.299 A  
HETATM   24  C   UNL     1     -10.414  13.340  67.445  1.00  0.00    -0.243 A  
HETATM   25  C   UNL     1     -11.251  11.623  65.968  1.00  0.00    -0.299 A  
HETATM   26  C   UNL     1      -9.506  12.424  67.985  1.00  0.00    -0.208 A  
HETATM   27  C   UNL     1     -11.283  12.935  66.438  1.00  0.00    -0.300 A  
ENDBRANCH  20  21
ENDBRANCH  11  20
ENDBRANCH   6   9
TORSDOF 3
ENDMDL
MODEL      157
REMARK 921   NORMALIZED FREE ENERGY PREDICTED BY IDOCK:   -3.84 KCAL/MOL
REMARK 922        TOTAL FREE ENERGY PREDICTED BY IDOCK:   -5.29 KCAL/MOL
REMARK 923 INTER-LIGAND FREE ENERGY PREDICTED BY IDOCK:   -5.17 KCAL/MOL
REMARK 924 INTRA-LIGAND FREE ENERGY PREDICTED BY IDOCK:   -0.12 KCAL/MOL
REMARK 927      BINDING AFFINITY PREDICTED BY RF-SCORE:    0.00 PKD
ROOT
HETATM    1  C   UNL     1     -11.631   4.806  73.099  1.00  0.00    -0.197 C  
HETATM    2  N   UNL     1     -11.175   5.845  72.168  1.00  0.00    -0.279 NA 
HETATM    3  C   UNL     1     -12.175   6.921  72.135  1.00  0.00    -0.217 C  
HETATM    4  C   UNL     1     -11.863   8.101  71.217  1.00  0.00    -0.317 C  
HETATM    5  C   UNL     1     -10.705   8.959  71.721  1.00  0.00    -0.432 C  
HETATM    6  C   UNL     1      -9.324   8.483  71.240  1.00  0.00    -0.203 C  
HETATM    7  C   UNL     1      -9.811   6.275  72.508  1.00  0.00    -0.166 C  
HETATM    8  C   UNL     1      -9.100   6.966  71.338  1.00  0.00    -0.148 C  
ENDROOT
BRANCH   6   9
HETATM    9  N   UNL     1      -8.993   8.987  69.883  1.00  0.00    -0.153 N  
HETATM   10  N   UNL     1      -8.414  10.230  69.807  1.00  0.00    -0.125 NA 
HETATM   11  C   UNL     1      -8.042  10.716  68.664  1.00  0.00    -0.132 C  
HETATM   12  O   UNL     1      -9.801   7.093  68.814  1.00  0.00    -0.154 OA 
HETATM   13  C   UNL     1      -8.239   9.996  67.389  1.00  0.00    -0.118 A  
HETATM   14  C   UNL     1      -7.820  10.495  66.150  1.00  0.00    -0.145 A  
HETATM   15  C   UNL     1      -9.266   8.201  68.766  1.00  0.00    -0.144 C  
HETATM   16  C   UNL     1      -8.006   9.735  64.991  1.00  0.00    -0.131 A  
HETATM   17  C   UNL     1      -8.853   8.747  67.458  1.00  0.00    -0.139 A  
HETATM   18  C   UNL     1      -8.624   8.488  65.061  1.00  0.00    -0.162 A  
HETATM   19  C   UNL     1      -9.052   7.994  66.292  1.00  0.00    -0.232 A  
BRANCH  11  20
HETATM   20  C   UNL     1      -7.328  12.062  68.694  1.00  0.00    -0.111 C  
BRANCH  20  21
HETATM   21  C   UNL     1      -8.172  13.279  68.384  1.00  0.00    -0.134 A  
HETATM   22 CL   UNL     1     -10.766  16.965  67.906  1.00  0.00    -0.355 Cl 
HETATM   23  C   UNL     1      -9.474  13.175  67.872  1.00  0.00    -0.218 A  
HETATM   24  C   UNL     1      -8.490  15.691  68.591  1.00  0.00    -0.179 A  
HETATM   25  C   UNL     1     -10.268  14.317  67.709  1.00  0.00    -0.235 A  
HETATM   26  C   UNL     1      -7.695  14.551  68.748  1.00  0.00    -0.140 A  
HETATM   27  C   UNL     1      -9.774  15.568  68.072  1.00  0.00    -0.207 A  
ENDBRANCH  20  21
ENDBRANCH  11  20
ENDBRANCH   6   9
TORSDOF 3
ENDMDL
MODEL      158
REMARK 921   NORMALIZED FREE ENERGY PREDICTED BY IDOCK:   -3.82 KCAL/MOL
REMARK 922        TOTAL FREE ENERGY PREDICTED BY IDOCK:   -5.26 KCAL/MOL
REMARK 923 INTER-LIGAND FREE ENERGY PREDICTED BY IDOCK:   -4.13 KCAL/MOL
REMARK 924 INTRA-LIGAND FREE ENERGY PREDICTED BY IDOCK:   -1.13 KCAL/MOL
REMARK 927      BINDING AFFINITY PREDICTED BY RF-SCORE:    0.00 PKD
ROOT
HETATM    1  C   UNL     1     -12.830  12.197  64.303  1.00  0.00    -0.188 C  
HETATM    2  N   UNL     1     -11.766  11.782  65.225  1.00  0.00    -0.202 NA 
HETATM    3  C   UNL     1     -10.661  11.210  64.445  1.00  0.00    -0.343 C  
HETATM    4  C   UNL     1      -9.452  10.726  65.243  1.00  0.00    -0.263 C  
HETATM    5  C   UNL     1      -8.651  11.869  65.862  1.00  0.00     0.210 C  
HETATM    6  C   UNL     1      -9.145  12.292  67.255  1.00  0.00    -0.184 C  
HETATM    7  C   UNL     1     -11.390  12.896  66.108  1.00  0.00    -0.317 C  
HETATM    8  C   UNL     1     -10.671  12.427  67.379  1.00  0.00    -0.257 C  
ENDROOT
BRANCH   6   9
HETATM    9  N   UNL     1      -8.594  11.436  68.336  1.00  0.00    -0.152 N  
HETATM   10  N   UNL     1      -9.322  10.323  68.679  1.00  0.00    -0.154 NA 
HETATM   11  C   UNL     1      -8.879   9.495  69.573  1.00  0.00    -0.179 C  
HETATM   12  O   UNL     1      -6.730  12.780  68.661  1.00  0.00    -0.076 OA 
HETATM   13  C   UNL     1      -7.605   9.701  70.290  1.00  0.00    -0.175 A  
HETATM   14  C   UNL     1      -7.101   8.803  71.238  1.00  0.00    -0.096 A  
HETATM   15  C   UNL     1      -7.388  11.778  68.943  1.00  0.00    -0.093 C  
HETATM   16  C   UNL     1      -5.866   9.048  71.847  1.00  0.00    -0.073 A  
HETATM   17  C   UNL     1      -6.877  10.845  69.967  1.00  0.00    -0.093 A  
HETATM   18  C   UNL     1      -5.141  10.194  71.525  1.00  0.00    -0.081 A  
HETATM   19  C   UNL     1      -5.645  11.095  70.589  1.00  0.00    -0.131 A  
BRANCH  11  20
HETATM   20  C   UNL     1      -9.716   8.245  69.818  1.00  0.00    -0.180 C  
BRANCH  20  21
HETATM   21  C   UNL     1      -9.845   7.283  68.657  1.00  0.00    -0.161 A  
HETATM   22 CL   UNL     1     -10.500   4.151  65.447  1.00  0.00    -0.179 Cl 
HETATM   23  C   UNL     1      -8.818   6.393  68.305  1.00  0.00    -0.115 A  
HETATM   24  C   UNL     1     -11.280   6.218  66.994  1.00  0.00    -0.248 A  
HETATM   25  C   UNL     1      -9.017   5.437  67.302  1.00  0.00    -0.111 A  
HETATM   26  C   UNL     1     -11.080   7.176  67.992  1.00  0.00    -0.046 A  
HETATM   27  C   UNL     1     -10.247   5.351  66.653  1.00  0.00    -0.243 A  
ENDBRANCH  20  21
ENDBRANCH  11  20
ENDBRANCH   6   9
TORSDOF 3
ENDMDL
MODEL      159
REMARK 921   NORMALIZED FREE ENERGY PREDICTED BY IDOCK:   -3.79 KCAL/MOL
REMARK 922        TOTAL FREE ENERGY PREDICTED BY IDOCK:   -5.22 KCAL/MOL
REMARK 923 INTER-LIGAND FREE ENERGY PREDICTED BY IDOCK:   -4.48 KCAL/MOL
REMARK 924 INTRA-LIGAND FREE ENERGY PREDICTED BY IDOCK:   -0.75 KCAL/MOL
REMARK 927      BINDING AFFINITY PREDICTED BY RF-SCORE:    0.00 PKD
ROOT
HETATM    1  C   UNL     1      -7.890   5.476  73.393  1.00  0.00    -0.107 C  
HETATM    2  N   UNL     1      -7.994   5.191  71.957  1.00  0.00    -0.110 NA 
HETATM    3  C   UNL     1      -6.987   5.985  71.242  1.00  0.00    -0.068 C  
HETATM    4  C   UNL     1      -6.942   5.810  69.726  1.00  0.00    -0.066 C  
HETATM    5  C   UNL     1      -6.415   4.442  69.299  1.00  0.00    -0.036 C  
HETATM    6  C   UNL     1      -7.506   3.364  69.187  1.00  0.00    -0.049 C  
HETATM    7  C   UNL     1      -7.926   3.741  71.717  1.00  0.00    -0.063 C  
HETATM    8  C   UNL     1      -8.504   3.340  70.355  1.00  0.00    -0.095 C  
ENDROOT
BRANCH   6   9
HETATM    9  N   UNL     1      -8.210   3.404  67.880  1.00  0.00    -0.079 N  
HETATM   10  N   UNL     1      -9.216   4.328  67.745  1.00  0.00    -0.135 NA 
HETATM   11  C   UNL     1      -9.840   4.465  66.617  1.00  0.00    -0.226 C  
HETATM   12  O   UNL     1      -6.945   1.684  66.971  1.00  0.00    -0.037 OA 
HETATM   13  C   UNL     1      -9.540   3.633  65.434  1.00  0.00    -0.156 A  
HETATM   14  C   UNL     1     -10.186   3.787  64.201  1.00  0.00    -0.240 A  
HETATM   15  C   UNL     1      -7.832   2.531  66.863  1.00  0.00    -0.071 C  
HETATM   16  C   UNL     1      -9.818   2.987  63.115  1.00  0.00    -0.099 A  
HETATM   17  C   UNL     1      -8.540   2.673  65.575  1.00  0.00    -0.108 A  
HETATM   18  C   UNL     1      -8.820   2.024  63.259  1.00  0.00    -0.084 A  
HETATM   19  C   UNL     1      -8.183   1.863  64.487  1.00  0.00    -0.074 A  
BRANCH  11  20
HETATM   20  C   UNL     1     -10.877   5.579  66.541  1.00  0.00    -0.237 C  
BRANCH  20  21
HETATM   21  C   UNL     1     -10.880   6.576  67.680  1.00  0.00    -0.419 A  
HETATM   22 CL   UNL     1     -10.435   9.560  71.062  1.00  0.00    -0.384 Cl 
HETATM   23  C   UNL     1     -11.114   6.191  69.009  1.00  0.00    -0.437 A  
HETATM   24  C   UNL     1     -10.373   8.831  68.466  1.00  0.00    -0.231 A  
HETATM   25  C   UNL     1     -10.992   7.118  70.051  1.00  0.00    -0.287 A  
HETATM   26  C   UNL     1     -10.501   7.906  67.425  1.00  0.00    -0.360 A  
HETATM   27  C   UNL     1     -10.620   8.432  69.776  1.00  0.00    -0.221 A  
ENDBRANCH  20  21
ENDBRANCH  11  20
ENDBRANCH   6   9
TORSDOF 3
ENDMDL
MODEL      160
REMARK 921   NORMALIZED FREE ENERGY PREDICTED BY IDOCK:   -3.78 KCAL/MOL
REMARK 922        TOTAL FREE ENERGY PREDICTED BY IDOCK:   -5.22 KCAL/MOL
REMARK 923 INTER-LIGAND FREE ENERGY PREDICTED BY IDOCK:   -5.18 KCAL/MOL
REMARK 924 INTRA-LIGAND FREE ENERGY PREDICTED BY IDOCK:   -0.04 KCAL/MOL
REMARK 927      BINDING AFFINITY PREDICTED BY RF-SCORE:    0.00 PKD
ROOT
HETATM    1  C   UNL     1     -12.571  14.938  65.447  1.00  0.00     0.154 C  
HETATM    2  N   UNL     1     -11.926  13.853  66.196  1.00  0.00    -0.400 NA 
HETATM    3  C   UNL     1     -11.499  12.814  65.250  1.00  0.00    -0.325 C  
HETATM    4  C   UNL     1     -10.797  11.600  65.855  1.00  0.00    -0.339 C  
HETATM    5  C   UNL     1      -9.405  11.924  66.392  1.00  0.00    -0.233 C  
HETATM    6  C   UNL     1      -9.398  12.400  67.854  1.00  0.00    -0.195 C  
HETATM    7  C   UNL     1     -10.858  14.387  67.054  1.00  0.00    -0.297 C  
HETATM    8  C   UNL     1     -10.483  13.434  68.195  1.00  0.00    -0.250 C  
ENDROOT
BRANCH   6   9
HETATM    9  N   UNL     1      -9.413  11.270  68.818  1.00  0.00    -0.172 N  
HETATM   10  N   UNL     1      -8.270  10.515  68.906  1.00  0.00    -0.132 NA 
HETATM   11  C   UNL     1      -8.183   9.547  69.764  1.00  0.00    -0.151 C  
HETATM   12  O   UNL     1     -11.591  11.682  69.504  1.00  0.00    -0.281 OA 
HETATM   13  C   UNL     1      -9.294   9.178  70.666  1.00  0.00    -0.312 A  
HETATM   14  C   UNL     1      -9.206   8.154  71.616  1.00  0.00    -0.220 A  
HETATM   15  C   UNL     1     -10.552  11.027  69.582  1.00  0.00    -0.083 C  
HETATM   16  C   UNL     1     -10.288   7.890  72.461  1.00  0.00    -0.349 A  
HETATM   17  C   UNL     1     -10.466   9.923  70.559  1.00  0.00    -0.330 A  
HETATM   18  C   UNL     1     -11.462   8.633  72.351  1.00  0.00    -0.369 A  
HETATM   19  C   UNL     1     -11.555   9.646  71.399  1.00  0.00    -0.472 A  
BRANCH  11  20
HETATM   20  C   UNL     1      -6.842   8.828  69.848  1.00  0.00    -0.042 C  
BRANCH  20  21
HETATM   21  C   UNL     1      -6.702   7.566  69.025  1.00  0.00    -0.049 A  
HETATM   22 CL   UNL     1      -6.685   3.890  66.373  1.00  0.00    -0.052 Cl 
HETATM   23  C   UNL     1      -6.919   6.291  69.569  1.00  0.00    -0.071 A  
HETATM   24  C   UNL     1      -6.468   6.541  66.822  1.00  0.00    -0.043 A  
HETATM   25  C   UNL     1      -6.897   5.155  68.751  1.00  0.00    -0.051 A  
HETATM   26  C   UNL     1      -6.484   7.675  67.640  1.00  0.00    -0.058 A  
HETATM   27  C   UNL     1      -6.675   5.284  67.382  1.00  0.00    -0.055 A  
ENDBRANCH  20  21
ENDBRANCH  11  20
ENDBRANCH   6   9
TORSDOF 3
ENDMDL
MODEL      161
REMARK 921   NORMALIZED FREE ENERGY PREDICTED BY IDOCK:   -3.77 KCAL/MOL
REMARK 922        TOTAL FREE ENERGY PREDICTED BY IDOCK:   -5.20 KCAL/MOL
REMARK 923 INTER-LIGAND FREE ENERGY PREDICTED BY IDOCK:   -4.21 KCAL/MOL
REMARK 924 INTRA-LIGAND FREE ENERGY PREDICTED BY IDOCK:   -0.99 KCAL/MOL
REMARK 927      BINDING AFFINITY PREDICTED BY RF-SCORE:    0.00 PKD
ROOT
HETATM    1  C   UNL     1      -8.187  11.009  65.533  1.00  0.00     0.018 C  
HETATM    2  N   UNL     1      -8.306  10.065  66.651  1.00  0.00    -0.125 NA 
HETATM    3  C   UNL     1      -7.085   9.251  66.714  1.00  0.00    -0.082 C  
HETATM    4  C   UNL     1      -7.028   8.209  67.829  1.00  0.00    -0.078 C  
HETATM    5  C   UNL     1      -6.890   8.831  69.217  1.00  0.00    -0.050 C  
HETATM    6  C   UNL     1      -8.235   9.170  69.882  1.00  0.00    -0.136 C  
HETATM    7  C   UNL     1      -8.639  10.781  67.891  1.00  0.00    -0.125 C  
HETATM    8  C   UNL     1      -9.248   9.863  68.958  1.00  0.00    -0.168 C  
ENDROOT
BRANCH   6   9
HETATM    9  N   UNL     1      -8.842   7.998  70.562  1.00  0.00    -0.135 N  
HETATM   10  N   UNL     1      -9.146   6.914  69.777  1.00  0.00    -0.144 NA 
HETATM   11  C   UNL     1      -9.625   5.831  70.304  1.00  0.00    -0.164 C  
HETATM   12  O   UNL     1      -8.822   9.006  72.652  1.00  0.00    -0.261 OA 
HETATM   13  C   UNL     1      -9.902   5.702  71.749  1.00  0.00    -0.208 A  
HETATM   14  C   UNL     1     -10.395   4.531  72.337  1.00  0.00    -0.256 A  
HETATM   15  C   UNL     1      -9.071   8.036  71.935  1.00  0.00    -0.156 C  
HETATM   16  C   UNL     1     -10.593   4.473  73.720  1.00  0.00    -0.319 A  
HETATM   17  C   UNL     1      -9.624   6.811  72.546  1.00  0.00    -0.165 A  
HETATM   18  C   UNL     1     -10.318   5.584  74.515  1.00  0.00    -0.263 A  
HETATM   19  C   UNL     1      -9.837   6.755  73.931  1.00  0.00    -0.318 A  
BRANCH  11  20
HETATM   20  C   UNL     1      -9.844   4.652  69.363  1.00  0.00    -0.272 C  
BRANCH  20  21
HETATM   21  C   UNL     1      -9.129   4.713  68.030  1.00  0.00    -0.144 A  
HETATM   22 CL   UNL     1      -7.236   4.535  63.916  1.00  0.00    -0.050 Cl 
HETATM   23  C   UNL     1      -7.810   4.261  67.869  1.00  0.00    -0.079 A  
HETATM   24  C   UNL     1      -9.261   5.061  65.618  1.00  0.00    -0.161 A  
HETATM   25  C   UNL     1      -7.221   4.222  66.599  1.00  0.00    -0.075 A  
HETATM   26  C   UNL     1      -9.847   5.105  66.887  1.00  0.00    -0.201 A  
HETATM   27  C   UNL     1      -7.950   4.619  65.480  1.00  0.00    -0.095 A  
ENDBRANCH  20  21
ENDBRANCH  11  20
ENDBRANCH   6   9
TORSDOF 3
ENDMDL
MODEL      162
REMARK 921   NORMALIZED FREE ENERGY PREDICTED BY IDOCK:   -3.73 KCAL/MOL
REMARK 922        TOTAL FREE ENERGY PREDICTED BY IDOCK:   -5.16 KCAL/MOL
REMARK 923 INTER-LIGAND FREE ENERGY PREDICTED BY IDOCK:   -5.76 KCAL/MOL
REMARK 924 INTRA-LIGAND FREE ENERGY PREDICTED BY IDOCK:    0.60 KCAL/MOL
REMARK 927      BINDING AFFINITY PREDICTED BY RF-SCORE:    0.00 PKD
ROOT
HETATM    1  C   UNL     1      -7.146  18.628  67.429  1.00  0.00    -0.206 C  
HETATM    2  N   UNL     1      -7.965  17.410  67.448  1.00  0.00    -0.195 NA 
HETATM    3  C   UNL     1      -9.022  17.535  66.435  1.00  0.00    -0.238 C  
HETATM    4  C   UNL     1      -9.975  16.349  66.306  1.00  0.00    -0.341 C  
HETATM    5  C   UNL     1      -9.308  15.112  65.706  1.00  0.00    -0.207 C  
HETATM    6  C   UNL     1      -8.640  14.200  66.748  1.00  0.00    -0.069 C  
HETATM    7  C   UNL     1      -7.114  16.219  67.312  1.00  0.00    -0.190 C  
HETATM    8  C   UNL     1      -7.804  14.940  67.804  1.00  0.00    -0.164 C  
ENDROOT
BRANCH   6   9
HETATM    9  N   UNL     1      -9.603  13.266  67.385  1.00  0.00    -0.217 N  
HETATM   10  N   UNL     1      -9.740  12.028  66.808  1.00  0.00    -0.203 NA 
HETATM   11  C   UNL     1     -10.517  11.135  67.338  1.00  0.00    -0.220 C  
HETATM   12  O   UNL     1     -10.212  14.777  69.037  1.00  0.00    -0.232 OA 
HETATM   13  C   UNL     1     -11.315  11.394  68.554  1.00  0.00    -0.333 A  
HETATM   14  C   UNL     1     -12.138  10.432  69.152  1.00  0.00     0.047 A  
HETATM   15  C   UNL     1     -10.309  13.665  68.517  1.00  0.00    -0.243 C  
HETATM   16  C   UNL     1     -12.833  10.740  70.327  1.00  0.00    -0.226 A  
HETATM   17  C   UNL     1     -11.202  12.659  69.125  1.00  0.00    -0.300 A  
HETATM   18  C   UNL     1     -12.722  12.008  70.895  1.00  0.00    -0.291 A  
HETATM   19  C   UNL     1     -11.911  12.970  70.295  1.00  0.00    -0.360 A  
BRANCH  11  20
HETATM   20  C   UNL     1     -10.531   9.763  66.675  1.00  0.00    -0.233 C  
BRANCH  20  21
HETATM   21  C   UNL     1     -10.497   8.567  67.603  1.00  0.00    -0.308 A  
HETATM   22 CL   UNL     1      -9.997   4.880  70.190  1.00  0.00    -0.307 Cl 
HETATM   23  C   UNL     1     -11.280   7.425  67.379  1.00  0.00     0.145 A  
HETATM   24  C   UNL     1      -9.405   7.405  69.451  1.00  0.00    -0.155 A  
HETATM   25  C   UNL     1     -11.136   6.293  68.189  1.00  0.00    -0.364 A  
HETATM   26  C   UNL     1      -9.553   8.538  68.645  1.00  0.00    -0.153 A  
HETATM   27  C   UNL     1     -10.198   6.286  69.219  1.00  0.00    -0.193 A  
ENDBRANCH  20  21
ENDBRANCH  11  20
ENDBRANCH   6   9
TORSDOF 3
ENDMDL
MODEL      163
REMARK 921   NORMALIZED FREE ENERGY PREDICTED BY IDOCK:   -3.68 KCAL/MOL
REMARK 922        TOTAL FREE ENERGY PREDICTED BY IDOCK:   -5.10 KCAL/MOL
REMARK 923 INTER-LIGAND FREE ENERGY PREDICTED BY IDOCK:   -5.09 KCAL/MOL
REMARK 924 INTRA-LIGAND FREE ENERGY PREDICTED BY IDOCK:   -0.01 KCAL/MOL
REMARK 927      BINDING AFFINITY PREDICTED BY RF-SCORE:    0.00 PKD
ROOT
HETATM    1  C   UNL     1      -8.607   9.800  67.417  1.00  0.00    -0.128 C  
HETATM    2  N   UNL     1      -8.648  11.260  67.570  1.00  0.00    -0.132 NA 
HETATM    3  C   UNL     1      -7.878  11.632  68.764  1.00  0.00    -0.096 C  
HETATM    4  C   UNL     1      -7.804  13.124  69.080  1.00  0.00     0.233 C  
HETATM    5  C   UNL     1      -6.954  13.903  68.078  1.00  0.00    -0.142 C  
HETATM    6  C   UNL     1      -7.740  14.409  66.857  1.00  0.00     0.300 C  
HETATM    7  C   UNL     1      -8.220  11.917  66.326  1.00  0.00     0.137 C  
HETATM    8  C   UNL     1      -8.691  13.374  66.236  1.00  0.00     0.358 C  
ENDROOT
BRANCH   6   9
HETATM    9  N   UNL     1      -8.443  15.689  67.126  1.00  0.00    -0.189 N  
HETATM   10  N   UNL     1      -9.599  15.620  67.864  1.00  0.00    -0.206 NA 
HETATM   11  C   UNL     1     -10.239  16.699  68.189  1.00  0.00    -0.280 C  
HETATM   12  O   UNL     1      -6.892  16.963  65.961  1.00  0.00    -0.062 OA 
HETATM   13  C   UNL     1      -9.798  18.045  67.773  1.00  0.00    -0.306 A  
HETATM   14  C   UNL     1     -10.464  19.221  68.138  1.00  0.00    -0.450 A  
HETATM   15  C   UNL     1      -7.917  16.883  66.639  1.00  0.00    -0.265 C  
HETATM   16  C   UNL     1      -9.961  20.463  67.737  1.00  0.00    -0.477 A  
HETATM   17  C   UNL     1      -8.642  18.118  66.998  1.00  0.00    -0.260 A  
HETATM   18  C   UNL     1      -8.806  20.534  66.960  1.00  0.00    -0.357 A  
HETATM   19  C   UNL     1      -8.148  19.364  66.586  1.00  0.00    -0.310 A  
BRANCH  11  20
HETATM   20  C   UNL     1     -11.460  16.524  69.086  1.00  0.00    -0.084 C  
BRANCH  20  21
HETATM   21  C   UNL     1     -11.805  15.105  69.484  1.00  0.00    -0.358 A  
HETATM   22 CL   UNL     1     -12.619  10.938  71.068  1.00  0.00    -0.482 Cl 
HETATM   23  C   UNL     1     -11.128  13.995  68.957  1.00  0.00    -0.296 A  
HETATM   24  C   UNL     1     -12.997  13.607  70.998  1.00  0.00    -0.303 A  
HETATM   25  C   UNL     1     -11.393  12.707  69.436  1.00  0.00    -0.273 A  
HETATM   26  C   UNL     1     -12.737  14.894  70.516  1.00  0.00    -0.399 A  
HETATM   27  C   UNL     1     -12.323  12.518  70.456  1.00  0.00    -0.262 A  
ENDBRANCH  20  21
ENDBRANCH  11  20
ENDBRANCH   6   9
TORSDOF 3
ENDMDL
MODEL      164
REMARK 921   NORMALIZED FREE ENERGY PREDICTED BY IDOCK:   -3.62 KCAL/MOL
REMARK 922        TOTAL FREE ENERGY PREDICTED BY IDOCK:   -5.03 KCAL/MOL
REMARK 923 INTER-LIGAND FREE ENERGY PREDICTED BY IDOCK:   -5.13 KCAL/MOL
REMARK 924 INTRA-LIGAND FREE ENERGY PREDICTED BY IDOCK:    0.10 KCAL/MOL
REMARK 927      BINDING AFFINITY PREDICTED BY RF-SCORE:    0.00 PKD
ROOT
HETATM    1  C   UNL     1      -6.222  21.129  66.170  1.00  0.00    -0.240 C  
HETATM    2  N   UNL     1      -6.652  19.741  66.377  1.00  0.00    -0.189 NA 
HETATM    3  C   UNL     1      -5.467  18.913  66.638  1.00  0.00    -0.150 C  
HETATM    4  C   UNL     1      -5.723  17.429  66.886  1.00  0.00    -0.202 C  
HETATM    5  C   UNL     1      -6.417  17.159  68.220  1.00  0.00    -0.153 C  
HETATM    6  C   UNL     1      -7.952  17.202  68.141  1.00  0.00    -0.216 C  
HETATM    7  C   UNL     1      -7.694  19.676  67.413  1.00  0.00    -0.264 C  
HETATM    8  C   UNL     1      -8.519  18.386  67.341  1.00  0.00    -0.257 C  
ENDROOT
BRANCH   6   9
HETATM    9  N   UNL     1      -8.532  15.916  67.677  1.00  0.00    -0.156 N  
HETATM   10  N   UNL     1      -7.655  14.883  67.455  1.00  0.00    -0.195 NA 
HETATM   11  C   UNL     1      -8.088  13.713  67.105  1.00  0.00    -0.077 C  
HETATM   12  O   UNL     1     -10.708  16.721  67.673  1.00  0.00    -0.339 OA 
HETATM   13  C   UNL     1      -9.521  13.423  66.895  1.00  0.00    -0.253 A  
HETATM   14  C   UNL     1     -10.006  12.157  66.543  1.00  0.00    -0.230 A  
HETATM   15  C   UNL     1      -9.908  15.802  67.496  1.00  0.00    -0.229 C  
HETATM   16  C   UNL     1     -11.383  11.951  66.401  1.00  0.00    -0.400 A  
HETATM   17  C   UNL     1     -10.413  14.475  67.090  1.00  0.00    -0.267 A  
HETATM   18  C   UNL     1     -12.273  13.006  66.593  1.00  0.00    -0.285 A  
HETATM   19  C   UNL     1     -11.791  14.269  66.934  1.00  0.00    -0.458 A  
BRANCH  11  20
HETATM   20  C   UNL     1      -7.044  12.611  66.971  1.00  0.00     0.074 C  
BRANCH  20  21
HETATM   21  C   UNL     1      -7.323  11.324  67.717  1.00  0.00    -0.094 A  
HETATM   22 CL   UNL     1      -7.762   7.536  70.166  1.00  0.00    -0.088 Cl 
HETATM   23  C   UNL     1      -7.168  10.065  67.120  1.00  0.00    -0.090 A  
HETATM   24  C   UNL     1      -7.761  10.214  69.847  1.00  0.00    -0.171 A  
HETATM   25  C   UNL     1      -7.320   8.895  67.874  1.00  0.00    -0.084 A  
HETATM   26  C   UNL     1      -7.614  11.382  69.092  1.00  0.00    -0.038 A  
HETATM   27  C   UNL     1      -7.612   8.974  69.234  1.00  0.00    -0.079 A  
ENDBRANCH  20  21
ENDBRANCH  11  20
ENDBRANCH   6   9
TORSDOF 3
ENDMDL
MODEL      165
REMARK 921   NORMALIZED FREE ENERGY PREDICTED BY IDOCK:   -3.54 KCAL/MOL
REMARK 922        TOTAL FREE ENERGY PREDICTED BY IDOCK:   -4.93 KCAL/MOL
REMARK 923 INTER-LIGAND FREE ENERGY PREDICTED BY IDOCK:   -4.26 KCAL/MOL
REMARK 924 INTRA-LIGAND FREE ENERGY PREDICTED BY IDOCK:   -0.67 KCAL/MOL
REMARK 927      BINDING AFFINITY PREDICTED BY RF-SCORE:    0.00 PKD
ROOT
HETATM    1  C   UNL     1     -13.392  11.668  63.743  1.00  0.00     0.628 C  
HETATM    2  N   UNL     1     -12.299  12.255  64.527  1.00  0.00    -0.410 NA 
HETATM    3  C   UNL     1     -11.270  12.753  63.604  1.00  0.00    -0.427 C  
HETATM    4  C   UNL     1     -10.050  13.409  64.247  1.00  0.00     0.020 C  
HETATM    5  C   UNL     1     -10.369  14.756  64.892  1.00  0.00    -0.365 C  
HETATM    6  C   UNL     1     -10.828  14.651  66.356  1.00  0.00    -0.315 C  
HETATM    7  C   UNL     1     -12.824  13.254  65.469  1.00  0.00    -0.224 C  
HETATM    8  C   UNL     1     -11.858  13.542  66.625  1.00  0.00    -0.450 C  
ENDROOT
BRANCH   6   9
HETATM    9  N   UNL     1      -9.687  14.564  67.303  1.00  0.00    -0.228 N  
HETATM   10  N   UNL     1      -9.268  13.305  67.656  1.00  0.00    -0.200 NA 
HETATM   11  C   UNL     1      -8.243  13.145  68.433  1.00  0.00    -0.130 C  
HETATM   12  O   UNL     1      -9.468  16.867  67.490  1.00  0.00    -0.237 OA 
HETATM   13  C   UNL     1      -7.489  14.280  69.004  1.00  0.00    -0.102 A  
HETATM   14  C   UNL     1      -6.365  14.123  69.823  1.00  0.00    -0.141 A  
HETATM   15  C   UNL     1      -9.095  15.730  67.782  1.00  0.00    -0.188 C  
HETATM   16  C   UNL     1      -5.680  15.249  70.293  1.00  0.00    -0.144 A  
HETATM   17  C   UNL     1      -7.930  15.560  68.673  1.00  0.00    -0.146 A  
HETATM   18  C   UNL     1      -6.124  16.528  69.964  1.00  0.00    -0.151 A  
HETATM   19  C   UNL     1      -7.250  16.686  69.158  1.00  0.00    -0.220 A  
BRANCH  11  20
HETATM   20  C   UNL     1      -7.801  11.710  68.693  1.00  0.00    -0.132 C  
BRANCH  20  21
HETATM   21  C   UNL     1      -7.518  10.861  67.472  1.00  0.00    -0.097 A  
HETATM   22 CL   UNL     1      -7.022   8.060  63.944  1.00  0.00    -0.070 Cl 
HETATM   23  C   UNL     1      -6.449   9.952  67.425  1.00  0.00    -0.068 A  
HETATM   24  C   UNL     1      -8.272  10.022  65.307  1.00  0.00    -0.148 A  
HETATM   25  C   UNL     1      -6.288   9.100  66.327  1.00  0.00    -0.065 A  
HETATM   26  C   UNL     1      -8.430  10.878  66.402  1.00  0.00    -0.163 A  
HETATM   27  C   UNL     1      -7.201   9.136  65.275  1.00  0.00    -0.089 A  
ENDBRANCH  20  21
ENDBRANCH  11  20
ENDBRANCH   6   9
TORSDOF 3
ENDMDL
MODEL      166
REMARK 921   NORMALIZED FREE ENERGY PREDICTED BY IDOCK:   -3.53 KCAL/MOL
REMARK 922        TOTAL FREE ENERGY PREDICTED BY IDOCK:   -4.92 KCAL/MOL
REMARK 923 INTER-LIGAND FREE ENERGY PREDICTED BY IDOCK:   -3.86 KCAL/MOL
REMARK 924 INTRA-LIGAND FREE ENERGY PREDICTED BY IDOCK:   -1.06 KCAL/MOL
REMARK 927      BINDING AFFINITY PREDICTED BY RF-SCORE:    0.00 PKD
ROOT
HETATM    1  C   UNL     1      -5.202  10.593  65.083  1.00  0.00    -0.147 C  
HETATM    2  N   UNL     1      -5.980   9.535  65.740  1.00  0.00    -0.054 NA 
HETATM    3  C   UNL     1      -7.388   9.950  65.797  1.00  0.00    -0.111 C  
HETATM    4  C   UNL     1      -8.355   8.963  66.446  1.00  0.00    -0.117 C  
HETATM    5  C   UNL     1      -8.581   7.709  65.604  1.00  0.00    -0.142 C  
HETATM    6  C   UNL     1      -7.569   6.585  65.880  1.00  0.00    -0.087 C  
HETATM    7  C   UNL     1      -5.741   8.241  65.083  1.00  0.00    -0.044 C  
HETATM    8  C   UNL     1      -6.107   7.049  65.975  1.00  0.00    -0.036 C  
ENDROOT
BRANCH   6   9
HETATM    9  N   UNL     1      -7.947   5.758  67.054  1.00  0.00    -0.102 N  
HETATM   10  N   UNL     1      -7.967   6.387  68.275  1.00  0.00    -0.105 NA 
HETATM   11  C   UNL     1      -8.342   5.749  69.339  1.00  0.00    -0.112 C  
HETATM   12  O   UNL     1      -8.234   3.829  65.798  1.00  0.00    -0.103 OA 
HETATM   13  C   UNL     1      -8.734   4.325  69.320  1.00  0.00    -0.121 A  
HETATM   14  C   UNL     1      -9.166   3.631  70.456  1.00  0.00    -0.210 A  
HETATM   15  C   UNL     1      -8.264   4.413  66.881  1.00  0.00    -0.102 C  
HETATM   16  C   UNL     1      -9.560   2.293  70.349  1.00  0.00    -0.107 A  
HETATM   17  C   UNL     1      -8.686   3.675  68.088  1.00  0.00    -0.130 A  
HETATM   18  C   UNL     1      -9.507   1.642  69.117  1.00  0.00    -0.154 A  
HETATM   19  C   UNL     1      -9.068   2.329  67.987  1.00  0.00    -0.223 A  
BRANCH  11  20
HETATM   20  C   UNL     1      -8.418   6.559  70.628  1.00  0.00    -0.134 C  
BRANCH  20  21
HETATM   21  C   UNL     1      -9.407   7.704  70.648  1.00  0.00    -0.163 A  
HETATM   22 CL   UNL     1     -12.472  11.022  70.276  1.00  0.00    -0.376 Cl 
HETATM   23  C   UNL     1      -9.002   9.043  70.544  1.00  0.00    -0.249 A  
HETATM   24  C   UNL     1     -11.731   8.441  70.526  1.00  0.00    -0.076 A  
HETATM   25  C   UNL     1      -9.950  10.068  70.446  1.00  0.00    -0.117 A  
HETATM   26  C   UNL     1     -10.784   7.417  70.629  1.00  0.00    -0.242 A  
HETATM   27  C   UNL     1     -11.309   9.763  70.434  1.00  0.00    -0.297 A  
ENDBRANCH  20  21
ENDBRANCH  11  20
ENDBRANCH   6   9
TORSDOF 3
ENDMDL
MODEL      167
REMARK 921   NORMALIZED FREE ENERGY PREDICTED BY IDOCK:   -3.36 KCAL/MOL
REMARK 922        TOTAL FREE ENERGY PREDICTED BY IDOCK:   -4.72 KCAL/MOL
REMARK 923 INTER-LIGAND FREE ENERGY PREDICTED BY IDOCK:   -3.94 KCAL/MOL
REMARK 924 INTRA-LIGAND FREE ENERGY PREDICTED BY IDOCK:   -0.78 KCAL/MOL
REMARK 927      BINDING AFFINITY PREDICTED BY RF-SCORE:    0.00 PKD
ROOT
HETATM    1  C   UNL     1      -7.295  13.220  67.578  1.00  0.00    -0.152 C  
HETATM    2  N   UNL     1      -7.825  11.857  67.712  1.00  0.00    -0.129 NA 
HETATM    3  C   UNL     1      -9.226  11.936  68.147  1.00  0.00    -0.187 C  
HETATM    4  C   UNL     1      -9.949  10.604  68.333  1.00  0.00    -0.176 C  
HETATM    5  C   UNL     1     -10.220   9.884  67.014  1.00  0.00    -0.294 C  
HETATM    6  C   UNL     1      -9.073   8.965  66.561  1.00  0.00    -0.166 C  
HETATM    7  C   UNL     1      -7.603  11.098  66.472  1.00  0.00    -0.135 C  
HETATM    8  C   UNL     1      -7.671   9.581  66.688  1.00  0.00    -0.098 C  
ENDROOT
BRANCH   6   9
HETATM    9  N   UNL     1      -9.131   7.627  67.203  1.00  0.00    -0.124 N  
HETATM   10  N   UNL     1      -9.438   7.594  68.541  1.00  0.00    -0.146 NA 
HETATM   11  C   UNL     1      -9.564   6.462  69.161  1.00  0.00    -0.136 C  
HETATM   12  O   UNL     1      -8.591   6.496  65.250  1.00  0.00    -0.123 OA 
HETATM   13  C   UNL     1      -9.361   5.160  68.494  1.00  0.00    -0.161 A  
HETATM   14  C   UNL     1      -9.519   3.930  69.143  1.00  0.00    -0.246 A  
HETATM   15  C   UNL     1      -8.885   6.484  66.446  1.00  0.00    -0.143 C  
HETATM   16  C   UNL     1      -9.348   2.737  68.433  1.00  0.00    -0.252 A  
HETATM   17  C   UNL     1      -9.020   5.190  67.144  1.00  0.00    -0.112 A  
HETATM   18  C   UNL     1      -9.003   2.769  67.083  1.00  0.00    -0.182 A  
HETATM   19  C   UNL     1      -8.835   3.992  66.437  1.00  0.00    -0.121 A  
BRANCH  11  20
HETATM   20  C   UNL     1      -9.996   6.529  70.621  1.00  0.00    -0.206 C  
BRANCH  20  21
HETATM   21  C   UNL     1      -8.934   6.212  71.652  1.00  0.00    -0.142 A  
HETATM   22 CL   UNL     1      -5.534   5.040  74.411  1.00  0.00    -0.021 Cl 
HETATM   23  C   UNL     1      -9.120   5.233  72.640  1.00  0.00    -0.141 A  
HETATM   24  C   UNL     1      -6.622   6.464  72.395  1.00  0.00    -0.060 A  
HETATM   25  C   UNL     1      -8.074   4.884  73.502  1.00  0.00    -0.107 A  
HETATM   26  C   UNL     1      -7.669   6.816  71.538  1.00  0.00    -0.096 A  
HETATM   27  C   UNL     1      -6.829   5.498  73.374  1.00  0.00    -0.083 A  
ENDBRANCH  20  21
ENDBRANCH  11  20
ENDBRANCH   6   9
TORSDOF 3
ENDMDL
MODEL      168
REMARK 921   NORMALIZED FREE ENERGY PREDICTED BY IDOCK:   -3.34 KCAL/MOL
REMARK 922        TOTAL FREE ENERGY PREDICTED BY IDOCK:   -4.70 KCAL/MOL
REMARK 923 INTER-LIGAND FREE ENERGY PREDICTED BY IDOCK:   -6.11 KCAL/MOL
REMARK 924 INTRA-LIGAND FREE ENERGY PREDICTED BY IDOCK:    1.41 KCAL/MOL
REMARK 927      BINDING AFFINITY PREDICTED BY RF-SCORE:    0.00 PKD
ROOT
HETATM    1  C   UNL     1     -10.120   3.123  64.027  1.00  0.00    -0.175 C  
HETATM    2  N   UNL     1      -9.954   3.542  65.425  1.00  0.00    -0.036 NA 
HETATM    3  C   UNL     1      -8.573   3.263  65.840  1.00  0.00    -0.120 C  
HETATM    4  C   UNL     1      -8.212   3.643  67.275  1.00  0.00    -0.091 C  
HETATM    5  C   UNL     1      -8.156   5.153  67.495  1.00  0.00    -0.099 C  
HETATM    6  C   UNL     1      -9.507   5.775  67.887  1.00  0.00    -0.110 C  
HETATM    7  C   UNL     1     -10.384   4.938  65.595  1.00  0.00    -0.124 C  
HETATM    8  C   UNL     1     -10.702   5.284  67.055  1.00  0.00    -0.172 C  
ENDROOT
BRANCH   6   9
HETATM    9  N   UNL     1      -9.782   5.660  69.342  1.00  0.00    -0.148 N  
HETATM   10  N   UNL     1     -10.007   6.830  70.025  1.00  0.00    -0.175 NA 
HETATM   11  C   UNL     1     -10.312   6.810  71.284  1.00  0.00    -0.204 C  
HETATM   12  O   UNL     1      -9.592   3.347  69.352  1.00  0.00    -0.172 OA 
HETATM   13  C   UNL     1     -10.405   5.558  72.063  1.00  0.00    -0.265 A  
HETATM   14  C   UNL     1     -10.758   5.518  73.417  1.00  0.00    -0.317 A  
HETATM   15  C   UNL     1      -9.809   4.405  69.944  1.00  0.00    -0.220 C  
HETATM   16  C   UNL     1     -10.865   4.289  74.076  1.00  0.00    -0.301 A  
HETATM   17  C   UNL     1     -10.148   4.371  71.381  1.00  0.00    -0.210 A  
HETATM   18  C   UNL     1     -10.604   3.103  73.393  1.00  0.00    -0.276 A  
HETATM   19  C   UNL     1     -10.242   3.140  72.048  1.00  0.00    -0.108 A  
BRANCH  11  20
HETATM   20  C   UNL     1     -10.631   8.153  71.930  1.00  0.00    -0.324 C  
BRANCH  20  21
HETATM   21  C   UNL     1     -11.045   9.268  70.995  1.00  0.00    -0.396 A  
HETATM   22 CL   UNL     1     -11.971  12.869  68.403  1.00  0.00    -0.342 Cl 
HETATM   23  C   UNL     1     -12.235   9.989  71.172  1.00  0.00    -0.477 A  
HETATM   24  C   UNL     1     -10.436  10.796  69.191  1.00  0.00    -0.243 A  
HETATM   25  C   UNL     1     -12.528  11.091  70.359  1.00  0.00    -0.397 A  
HETATM   26  C   UNL     1     -10.147   9.692  69.999  1.00  0.00    -0.293 A  
HETATM   27  C   UNL     1     -11.626  11.492  69.376  1.00  0.00    -0.321 A  
ENDBRANCH  20  21
ENDBRANCH  11  20
ENDBRANCH   6   9
TORSDOF 3
ENDMDL
MODEL      169
REMARK 921   NORMALIZED FREE ENERGY PREDICTED BY IDOCK:   -3.32 KCAL/MOL
REMARK 922        TOTAL FREE ENERGY PREDICTED BY IDOCK:   -4.68 KCAL/MOL
REMARK 923 INTER-LIGAND FREE ENERGY PREDICTED BY IDOCK:   -5.71 KCAL/MOL
REMARK 924 INTRA-LIGAND FREE ENERGY PREDICTED BY IDOCK:    1.03 KCAL/MOL
REMARK 927      BINDING AFFINITY PREDICTED BY RF-SCORE:    0.00 PKD
ROOT
HETATM    1  C   UNL     1     -10.780  19.700  66.390  1.00  0.00    -0.424 C  
HETATM    2  N   UNL     1     -10.044  18.487  66.766  1.00  0.00    -0.357 NA 
HETATM    3  C   UNL     1      -8.647  18.630  66.335  1.00  0.00    -0.271 C  
HETATM    4  C   UNL     1      -7.721  17.457  66.652  1.00  0.00    -0.293 C  
HETATM    5  C   UNL     1      -7.427  17.317  68.144  1.00  0.00    -0.208 C  
HETATM    6  C   UNL     1      -8.447  16.450  68.900  1.00  0.00    -0.247 C  
HETATM    7  C   UNL     1     -10.225  18.201  68.197  1.00  0.00    -0.388 C  
HETATM    8  C   UNL     1      -9.915  16.742  68.553  1.00  0.00    -0.271 C  
ENDROOT
BRANCH   6   9
HETATM    9  N   UNL     1      -8.149  14.999  68.792  1.00  0.00    -0.156 N  
HETATM   10  N   UNL     1      -9.128  14.203  68.251  1.00  0.00    -0.186 NA 
HETATM   11  C   UNL     1      -8.922  12.936  68.070  1.00  0.00    -0.196 C  
HETATM   12  O   UNL     1      -6.037  15.207  69.732  1.00  0.00    -0.122 OA 
HETATM   13  C   UNL     1      -7.661  12.269  68.455  1.00  0.00    -0.128 A  
HETATM   14  C   UNL     1      -7.414  10.908  68.242  1.00  0.00    -0.093 A  
HETATM   15  C   UNL     1      -6.919  14.511  69.227  1.00  0.00    -0.141 C  
HETATM   16  C   UNL     1      -6.179  10.357  68.598  1.00  0.00    -0.047 A  
HETATM   17  C   UNL     1      -6.677  13.068  69.033  1.00  0.00    -0.099 A  
HETATM   18  C   UNL     1      -5.196  11.157  69.179  1.00  0.00    -0.040 A  
HETATM   19  C   UNL     1      -5.444  12.510  69.401  1.00  0.00    -0.075 A  
BRANCH  11  20
HETATM   20  C   UNL     1     -10.034  12.156  67.379  1.00  0.00    -0.206 C  
BRANCH  20  21
HETATM   21  C   UNL     1      -9.651  11.409  66.120  1.00  0.00    -0.242 A  
HETATM   22 CL   UNL     1      -8.908   8.968  62.374  1.00  0.00    -0.213 Cl 
HETATM   23  C   UNL     1      -8.746  10.337  66.133  1.00  0.00    -0.163 A  
HETATM   24  C   UNL     1     -10.086  10.959  63.760  1.00  0.00    -0.413 A  
HETATM   25  C   UNL     1      -8.505   9.594  64.971  1.00  0.00    -0.160 A  
HETATM   26  C   UNL     1     -10.322  11.704  64.920  1.00  0.00    -0.331 A  
HETATM   27  C   UNL     1      -9.178   9.906  63.791  1.00  0.00    -0.243 A  
ENDBRANCH  20  21
ENDBRANCH  11  20
ENDBRANCH   6   9
TORSDOF 3
ENDMDL
MODEL      170
REMARK 921   NORMALIZED FREE ENERGY PREDICTED BY IDOCK:   -3.27 KCAL/MOL
REMARK 922        TOTAL FREE ENERGY PREDICTED BY IDOCK:   -4.62 KCAL/MOL
REMARK 923 INTER-LIGAND FREE ENERGY PREDICTED BY IDOCK:   -4.52 KCAL/MOL
REMARK 924 INTRA-LIGAND FREE ENERGY PREDICTED BY IDOCK:   -0.10 KCAL/MOL
REMARK 927      BINDING AFFINITY PREDICTED BY RF-SCORE:    0.00 PKD
ROOT
HETATM    1  C   UNL     1     -13.453  12.188  63.759  1.00  0.00     0.707 C  
HETATM    2  N   UNL     1     -12.313  12.625  64.575  1.00  0.00    -0.473 NA 
HETATM    3  C   UNL     1     -11.417  13.434  63.739  1.00  0.00    -0.241 C  
HETATM    4  C   UNL     1     -10.170  13.986  64.427  1.00  0.00     0.168 C  
HETATM    5  C   UNL     1     -10.486  15.078  65.446  1.00  0.00    -0.406 C  
HETATM    6  C   UNL     1     -10.780  14.544  66.858  1.00  0.00    -0.288 C  
HETATM    7  C   UNL     1     -12.785  13.288  65.800  1.00  0.00    -0.231 C  
HETATM    8  C   UNL     1     -11.717  13.327  66.899  1.00  0.00    -0.437 C  
ENDROOT
BRANCH   6   9
HETATM    9  N   UNL     1      -9.541  14.295  67.638  1.00  0.00    -0.215 N  
HETATM   10  N   UNL     1      -8.906  15.393  68.163  1.00  0.00    -0.168 NA 
HETATM   11  C   UNL     1      -7.852  15.254  68.904  1.00  0.00    -0.165 C  
HETATM   12  O   UNL     1      -9.630  11.996  67.335  1.00  0.00    -0.173 OA 
HETATM   13  C   UNL     1      -7.256  13.936  69.204  1.00  0.00    -0.038 A  
HETATM   14  C   UNL     1      -6.134  13.768  70.025  1.00  0.00    -0.142 A  
HETATM   15  C   UNL     1      -9.083  12.991  67.812  1.00  0.00    -0.200 C  
HETATM   16  C   UNL     1      -5.652  12.483  70.294  1.00  0.00    -0.155 A  
HETATM   17  C   UNL     1      -7.879  12.821  68.649  1.00  0.00    -0.044 A  
HETATM   18  C   UNL     1      -6.274  11.369  69.735  1.00  0.00    -0.135 A  
HETATM   19  C   UNL     1      -7.385  11.535  68.910  1.00  0.00    -0.116 A  
BRANCH  11  20
HETATM   20  C   UNL     1      -7.274  16.526  69.514  1.00  0.00    -0.049 C  
BRANCH  20  21
HETATM   21  C   UNL     1      -6.956  17.649  68.551  1.00  0.00    -0.231 A  
HETATM   22 CL   UNL     1      -6.410  20.937  65.479  1.00  0.00    -0.266 Cl 
HETATM   23  C   UNL     1      -6.063  17.487  67.481  1.00  0.00    -0.159 A  
HETATM   24  C   UNL     1      -7.503  19.873  67.704  1.00  0.00    -0.320 A  
HETATM   25  C   UNL     1      -5.883  18.510  66.542  1.00  0.00    -0.180 A  
HETATM   26  C   UNL     1      -7.678  18.853  68.644  1.00  0.00    -0.375 A  
HETATM   27  C   UNL     1      -6.606  19.696  66.655  1.00  0.00    -0.190 A  
ENDBRANCH  20  21
ENDBRANCH  11  20
ENDBRANCH   6   9
TORSDOF 3
ENDMDL
MODEL      171
REMARK 921   NORMALIZED FREE ENERGY PREDICTED BY IDOCK:   -3.22 KCAL/MOL
REMARK 922        TOTAL FREE ENERGY PREDICTED BY IDOCK:   -4.56 KCAL/MOL
REMARK 923 INTER-LIGAND FREE ENERGY PREDICTED BY IDOCK:   -5.34 KCAL/MOL
REMARK 924 INTRA-LIGAND FREE ENERGY PREDICTED BY IDOCK:    0.78 KCAL/MOL
REMARK 927      BINDING AFFINITY PREDICTED BY RF-SCORE:    0.00 PKD
ROOT
HETATM    1  C   UNL     1     -11.824  14.588  64.584  1.00  0.00    -0.453 C  
HETATM    2  N   UNL     1     -11.291  13.794  65.699  1.00  0.00    -0.303 NA 
HETATM    3  C   UNL     1     -11.440  14.564  66.940  1.00  0.00    -0.364 C  
HETATM    4  C   UNL     1     -10.942  13.888  68.216  1.00  0.00    -0.274 C  
HETATM    5  C   UNL     1     -11.811  12.706  68.641  1.00  0.00    -0.342 C  
HETATM    6  C   UNL     1     -11.390  11.367  68.011  1.00  0.00    -0.303 C  
HETATM    7  C   UNL     1     -11.908  12.460  65.718  1.00  0.00    -0.406 C  
HETATM    8  C   UNL     1     -11.081  11.438  66.508  1.00  0.00    -0.312 C  
ENDROOT
BRANCH   6   9
HETATM    9  N   UNL     1     -10.285  10.712  68.756  1.00  0.00    -0.181 N  
HETATM   10  N   UNL     1     -10.563   9.501  69.340  1.00  0.00    -0.214 NA 
HETATM   11  C   UNL     1      -9.636   8.839  69.958  1.00  0.00    -0.169 C  
HETATM   12  O   UNL     1      -8.777  12.423  68.328  1.00  0.00    -0.183 OA 
HETATM   13  C   UNL     1      -8.255   9.345  70.102  1.00  0.00    -0.180 A  
HETATM   14  C   UNL     1      -7.237   8.630  70.744  1.00  0.00    -0.067 A  
HETATM   15  C   UNL     1      -9.039  11.329  68.830  1.00  0.00    -0.116 C  
HETATM   16  C   UNL     1      -5.943   9.158  70.805  1.00  0.00    -0.045 A  
HETATM   17  C   UNL     1      -7.977  10.587  69.538  1.00  0.00    -0.119 A  
HETATM   18  C   UNL     1      -5.667  10.403  70.244  1.00  0.00    -0.074 A  
HETATM   19  C   UNL     1      -6.682  11.121  69.613  1.00  0.00    -0.134 A  
BRANCH  11  20
HETATM   20  C   UNL     1     -10.020   7.464  70.493  1.00  0.00    -0.184 C  
BRANCH  20  21
HETATM   21  C   UNL     1      -9.479   6.272  69.734  1.00  0.00    -0.163 A  
HETATM   22 CL   UNL     1      -8.166   2.449  67.684  1.00  0.00    -0.069 Cl 
HETATM   23  C   UNL     1      -8.260   5.663  70.068  1.00  0.00    -0.110 A  
HETATM   24  C   UNL     1      -9.874   4.492  68.111  1.00  0.00    -0.152 A  
HETATM   25  C   UNL     1      -7.848   4.492  69.423  1.00  0.00    -0.062 A  
HETATM   26  C   UNL     1     -10.283   5.665  68.752  1.00  0.00    -0.269 A  
HETATM   27  C   UNL     1      -8.657   3.909  68.450  1.00  0.00    -0.095 A  
ENDBRANCH  20  21
ENDBRANCH  11  20
ENDBRANCH   6   9
TORSDOF 3
ENDMDL
MODEL      172
REMARK 921   NORMALIZED FREE ENERGY PREDICTED BY IDOCK:   -3.12 KCAL/MOL
REMARK 922        TOTAL FREE ENERGY PREDICTED BY IDOCK:   -4.44 KCAL/MOL
REMARK 923 INTER-LIGAND FREE ENERGY PREDICTED BY IDOCK:   -3.96 KCAL/MOL
REMARK 924 INTRA-LIGAND FREE ENERGY PREDICTED BY IDOCK:   -0.48 KCAL/MOL
REMARK 927      BINDING AFFINITY PREDICTED BY RF-SCORE:    0.00 PKD
ROOT
HETATM    1  C   UNL     1     -14.204   8.529  72.385  1.00  0.00    -0.325 C  
HETATM    2  N   UNL     1     -13.198   8.762  71.341  1.00  0.00    -0.290 NA 
HETATM    3  C   UNL     1     -13.219  10.183  70.972  1.00  0.00    -0.335 C  
HETATM    4  C   UNL     1     -12.225  10.614  69.896  1.00  0.00    -0.346 C  
HETATM    5  C   UNL     1     -10.776  10.584  70.377  1.00  0.00    -0.074 C  
HETATM    6  C   UNL     1     -10.084   9.225  70.182  1.00  0.00    -0.213 C  
HETATM    7  C   UNL     1     -11.887   8.252  71.772  1.00  0.00    -0.306 C  
HETATM    8  C   UNL     1     -10.932   8.011  70.597  1.00  0.00    -0.250 C  
ENDROOT
BRANCH   6   9
HETATM    9  N   UNL     1      -9.541   9.056  68.811  1.00  0.00    -0.151 N  
HETATM   10  N   UNL     1      -9.717   7.829  68.220  1.00  0.00    -0.155 NA 
HETATM   11  C   UNL     1      -9.322   7.621  67.003  1.00  0.00    -0.157 C  
HETATM   12  O   UNL     1      -8.714  11.222  68.706  1.00  0.00    -0.157 OA 
HETATM   13  C   UNL     1      -8.644   8.655  66.196  1.00  0.00    -0.158 A  
HETATM   14  C   UNL     1      -8.237   8.454  64.871  1.00  0.00    -0.155 A  
HETATM   15  C   UNL     1      -8.896  10.121  68.186  1.00  0.00    -0.126 C  
HETATM   16  C   UNL     1      -7.636   9.496  64.159  1.00  0.00    -0.123 A  
HETATM   17  C   UNL     1      -8.437   9.893  66.801  1.00  0.00    -0.125 A  
HETATM   18  C   UNL     1      -7.426  10.732  64.767  1.00  0.00     0.259 A  
HETATM   19  C   UNL     1      -7.822  10.932  66.088  1.00  0.00    -0.144 A  
BRANCH  11  20
HETATM   20  C   UNL     1      -9.644   6.256  66.406  1.00  0.00    -0.159 C  
BRANCH  20  21
HETATM   21  C   UNL     1      -8.591   5.182  66.575  1.00  0.00    -0.111 A  
HETATM   22 CL   UNL     1      -5.677   1.717  66.784  1.00  0.00    -0.018 Cl 
HETATM   23  C   UNL     1      -8.533   4.364  67.713  1.00  0.00    -0.101 A  
HETATM   24  C   UNL     1      -6.820   3.837  65.569  1.00  0.00    -0.053 A  
HETATM   25  C   UNL     1      -7.621   3.304  67.783  1.00  0.00    -0.064 A  
HETATM   26  C   UNL     1      -7.727   4.898  65.502  1.00  0.00    -0.086 A  
HETATM   27  C   UNL     1      -6.771   3.043  66.711  1.00  0.00    -0.041 A  
ENDBRANCH  20  21
ENDBRANCH  11  20
ENDBRANCH   6   9
TORSDOF 3
ENDMDL
MODEL      173
REMARK 921   NORMALIZED FREE ENERGY PREDICTED BY IDOCK:   -3.03 KCAL/MOL
REMARK 922        TOTAL FREE ENERGY PREDICTED BY IDOCK:   -4.33 KCAL/MOL
REMARK 923 INTER-LIGAND FREE ENERGY PREDICTED BY IDOCK:   -4.78 KCAL/MOL
REMARK 924 INTRA-LIGAND FREE ENERGY PREDICTED BY IDOCK:    0.44 KCAL/MOL
REMARK 927      BINDING AFFINITY PREDICTED BY RF-SCORE:    0.00 PKD
ROOT
HETATM    1  C   UNL     1     -14.410   7.107  71.894  1.00  0.00    -0.313 C  
HETATM    2  N   UNL     1     -13.024   7.288  71.445  1.00  0.00    -0.384 NA 
HETATM    3  C   UNL     1     -12.645   8.694  71.639  1.00  0.00    -0.338 C  
HETATM    4  C   UNL     1     -11.222   9.070  71.230  1.00  0.00    -0.385 C  
HETATM    5  C   UNL     1     -10.161   8.478  72.155  1.00  0.00    -0.393 C  
HETATM    6  C   UNL     1      -9.690   7.074  71.741  1.00  0.00    -0.158 C  
HETATM    7  C   UNL     1     -12.142   6.312  72.102  1.00  0.00    -0.252 C  
HETATM    8  C   UNL     1     -10.821   6.109  71.349  1.00  0.00    -0.319 C  
ENDROOT
BRANCH   6   9
HETATM    9  N   UNL     1      -8.634   7.114  70.698  1.00  0.00    -0.142 N  
HETATM   10  N   UNL     1      -8.349   5.934  70.057  1.00  0.00    -0.120 NA 
HETATM   11  C   UNL     1      -7.482   5.898  69.095  1.00  0.00    -0.085 C  
HETATM   12  O   UNL     1      -8.221   9.379  70.985  1.00  0.00    -0.294 OA 
HETATM   13  C   UNL     1      -6.733   7.092  68.651  1.00  0.00    -0.063 A  
HETATM   14  C   UNL     1      -5.812   7.074  67.596  1.00  0.00    -0.021 A  
HETATM   15  C   UNL     1      -7.992   8.315  70.409  1.00  0.00    -0.098 C  
HETATM   16  C   UNL     1      -5.172   8.256  67.209  1.00  0.00    -0.033 A  
HETATM   17  C   UNL     1      -6.997   8.285  69.319  1.00  0.00    -0.058 A  
HETATM   18  C   UNL     1      -5.434   9.449  67.880  1.00  0.00    -0.037 A  
HETATM   19  C   UNL     1      -6.342   9.466  68.937  1.00  0.00    -0.043 A  
BRANCH  11  20
HETATM   20  C   UNL     1      -7.302   4.560  68.387  1.00  0.00    -0.065 C  
BRANCH  20  21
HETATM   21  C   UNL     1      -8.203   4.301  67.199  1.00  0.00    -0.100 A  
HETATM   22 CL   UNL     1     -10.688   3.869  63.433  1.00  0.00    -0.216 Cl 
HETATM   23  C   UNL     1      -9.549   4.699  67.180  1.00  0.00    -0.197 A  
HETATM   24  C   UNL     1      -8.414   3.625  64.862  1.00  0.00    -0.104 A  
HETATM   25  C   UNL     1     -10.319   4.550  66.021  1.00  0.00    -0.276 A  
HETATM   26  C   UNL     1      -7.646   3.770  66.022  1.00  0.00    -0.088 A  
HETATM   27  C   UNL     1      -9.749   4.017  64.867  1.00  0.00    -0.193 A  
ENDBRANCH  20  21
ENDBRANCH  11  20
ENDBRANCH   6   9
TORSDOF 3
ENDMDL
MODEL      174
REMARK 921   NORMALIZED FREE ENERGY PREDICTED BY IDOCK:   -3.01 KCAL/MOL
REMARK 922        TOTAL FREE ENERGY PREDICTED BY IDOCK:   -4.31 KCAL/MOL
REMARK 923 INTER-LIGAND FREE ENERGY PREDICTED BY IDOCK:   -3.21 KCAL/MOL
REMARK 924 INTRA-LIGAND FREE ENERGY PREDICTED BY IDOCK:   -1.10 KCAL/MOL
REMARK 927      BINDING AFFINITY PREDICTED BY RF-SCORE:    0.00 PKD
ROOT
HETATM    1  C   UNL     1      -8.099   6.076  73.361  1.00  0.00    -0.111 C  
HETATM    2  N   UNL     1      -8.047   5.676  71.949  1.00  0.00    -0.114 NA 
HETATM    3  C   UNL     1      -6.993   6.448  71.277  1.00  0.00    -0.075 C  
HETATM    4  C   UNL     1      -6.789   6.157  69.792  1.00  0.00    -0.068 C  
HETATM    5  C   UNL     1      -6.183   4.779  69.533  1.00  0.00    -0.026 C  
HETATM    6  C   UNL     1      -7.226   3.657  69.400  1.00  0.00    -0.049 C  
HETATM    7  C   UNL     1      -7.914   4.216  71.836  1.00  0.00    -0.084 C  
HETATM    8  C   UNL     1      -8.338   3.688  70.460  1.00  0.00    -0.082 C  
ENDROOT
BRANCH   6   9
HETATM    9  N   UNL     1      -7.793   3.570  68.030  1.00  0.00    -0.068 N  
HETATM   10  N   UNL     1      -8.796   4.453  67.717  1.00  0.00    -0.105 NA 
HETATM   11  C   UNL     1      -9.303   4.479  66.524  1.00  0.00    -0.151 C  
HETATM   12  O   UNL     1      -6.411   1.814  67.404  1.00  0.00    -0.024 OA 
HETATM   13  C   UNL     1      -8.869   3.559  65.452  1.00  0.00    -0.126 A  
HETATM   14  C   UNL     1      -9.388   3.593  64.152  1.00  0.00    -0.142 A  
HETATM   15  C   UNL     1      -7.297   2.625  67.135  1.00  0.00    -0.057 C  
HETATM   16  C   UNL     1      -8.896   2.715  63.181  1.00  0.00    -0.085 A  
HETATM   17  C   UNL     1      -7.872   2.641  65.775  1.00  0.00    -0.081 A  
HETATM   18  C   UNL     1      -7.902   1.794  63.506  1.00  0.00    -0.060 A  
HETATM   19  C   UNL     1      -7.391   1.752  64.802  1.00  0.00    -0.057 A  
BRANCH  11  20
HETATM   20  C   UNL     1     -10.346   5.555  66.249  1.00  0.00    -0.215 C  
BRANCH  20  21
HETATM   21  C   UNL     1      -9.912   6.987  66.474  1.00  0.00    -0.163 A  
HETATM   22 CL   UNL     1      -8.951  11.399  66.872  1.00  0.00    -0.165 Cl 
HETATM   23  C   UNL     1      -8.780   7.532  65.848  1.00  0.00    -0.170 A  
HETATM   24  C   UNL     1     -10.439   9.202  67.355  1.00  0.00    -0.339 A  
HETATM   25  C   UNL     1      -8.476   8.891  65.986  1.00  0.00    -0.138 A  
HETATM   26  C   UNL     1     -10.740   7.843  67.222  1.00  0.00    -0.299 A  
HETATM   27  C   UNL     1      -9.307   9.721  66.735  1.00  0.00    -0.152 A  
ENDBRANCH  20  21
ENDBRANCH  11  20
ENDBRANCH   6   9
TORSDOF 3
ENDMDL
MODEL      175
REMARK 921   NORMALIZED FREE ENERGY PREDICTED BY IDOCK:   -2.98 KCAL/MOL
REMARK 922        TOTAL FREE ENERGY PREDICTED BY IDOCK:   -4.27 KCAL/MOL
REMARK 923 INTER-LIGAND FREE ENERGY PREDICTED BY IDOCK:   -4.26 KCAL/MOL
REMARK 924 INTRA-LIGAND FREE ENERGY PREDICTED BY IDOCK:   -0.02 KCAL/MOL
REMARK 927      BINDING AFFINITY PREDICTED BY RF-SCORE:    0.00 PKD
ROOT
HETATM    1  C   UNL     1      -7.598  19.924  68.657  1.00  0.00    -0.216 C  
HETATM    2  N   UNL     1      -7.849  18.505  68.375  1.00  0.00    -0.302 NA 
HETATM    3  C   UNL     1      -7.936  18.320  66.921  1.00  0.00    -0.236 C  
HETATM    4  C   UNL     1      -8.188  16.893  66.438  1.00  0.00    -0.342 C  
HETATM    5  C   UNL     1      -6.991  15.970  66.656  1.00  0.00     0.139 C  
HETATM    6  C   UNL     1      -6.979  15.284  68.032  1.00  0.00    -0.133 C  
HETATM    7  C   UNL     1      -6.846  17.665  69.048  1.00  0.00    -0.240 C  
HETATM    8  C   UNL     1      -7.307  16.212  69.212  1.00  0.00    -0.231 C  
ENDROOT
BRANCH   6   9
HETATM    9  N   UNL     1      -7.818  14.060  68.063  1.00  0.00    -0.137 N  
HETATM   10  N   UNL     1      -7.221  12.887  67.672  1.00  0.00    -0.133 NA 
HETATM   11  C   UNL     1      -7.869  11.766  67.726  1.00  0.00    -0.135 C  
HETATM   12  O   UNL     1      -9.702  15.185  68.817  1.00  0.00    -0.205 OA 
HETATM   13  C   UNL     1      -9.275  11.678  68.171  1.00  0.00    -0.184 A  
HETATM   14  C   UNL     1      -9.980  10.472  68.259  1.00  0.00    -0.176 A  
HETATM   15  C   UNL     1      -9.145  14.140  68.480  1.00  0.00    -0.176 C  
HETATM   16  C   UNL     1     -11.298  10.466  68.728  1.00  0.00    -0.275 A  
HETATM   17  C   UNL     1      -9.895  12.870  68.539  1.00  0.00    -0.147 A  
HETATM   18  C   UNL     1     -11.919  11.659  69.093  1.00  0.00    -0.378 A  
HETATM   19  C   UNL     1     -11.222  12.862  68.996  1.00  0.00    -0.320 A  
BRANCH  11  20
HETATM   20  C   UNL     1      -7.090  10.509  67.358  1.00  0.00    -0.090 C  
BRANCH  20  21
HETATM   21  C   UNL     1      -6.692   9.604  68.504  1.00  0.00    -0.052 A  
HETATM   22 CL   UNL     1      -5.140   7.170  71.998  1.00  0.00    -0.031 Cl 
HETATM   23  C   UNL     1      -6.102   8.348  68.295  1.00  0.00    -0.046 A  
HETATM   24  C   UNL     1      -6.317   9.335  70.901  1.00  0.00    -0.076 A  
HETATM   25  C   UNL     1      -5.638   7.590  69.376  1.00  0.00    -0.023 A  
HETATM   26  C   UNL     1      -6.786  10.089  69.821  1.00  0.00    -0.086 A  
HETATM   27  C   UNL     1      -5.745   8.087  70.674  1.00  0.00    -0.029 A  
ENDBRANCH  20  21
ENDBRANCH  11  20
ENDBRANCH   6   9
TORSDOF 3
ENDMDL
MODEL      176
REMARK 921   NORMALIZED FREE ENERGY PREDICTED BY IDOCK:   -2.95 KCAL/MOL
REMARK 922        TOTAL FREE ENERGY PREDICTED BY IDOCK:   -4.24 KCAL/MOL
REMARK 923 INTER-LIGAND FREE ENERGY PREDICTED BY IDOCK:   -4.63 KCAL/MOL
REMARK 924 INTRA-LIGAND FREE ENERGY PREDICTED BY IDOCK:    0.39 KCAL/MOL
REMARK 927      BINDING AFFINITY PREDICTED BY RF-SCORE:    0.00 PKD
ROOT
HETATM    1  C   UNL     1     -10.333  15.333  68.018  1.00  0.00    -0.244 C  
HETATM    2  N   UNL     1     -10.345  13.880  68.227  1.00  0.00    -0.242 NA 
HETATM    3  C   UNL     1     -11.696  13.374  67.948  1.00  0.00    -0.361 C  
HETATM    4  C   UNL     1     -11.897  11.868  68.107  1.00  0.00    -0.338 C  
HETATM    5  C   UNL     1     -11.184  11.055  67.029  1.00  0.00    -0.255 C  
HETATM    6  C   UNL     1      -9.732  10.692  67.383  1.00  0.00    -0.167 C  
HETATM    7  C   UNL     1      -9.272  13.242  67.450  1.00  0.00    -0.216 C  
HETATM    8  C   UNL     1      -8.910  11.848  67.975  1.00  0.00    -0.177 C  
ENDROOT
BRANCH   6   9
HETATM    9  N   UNL     1      -9.643   9.479  68.235  1.00  0.00    -0.137 N  
HETATM   10  N   UNL     1      -9.207   9.658  69.525  1.00  0.00    -0.189 NA 
HETATM   11  C   UNL     1      -9.157   8.658  70.349  1.00  0.00    -0.159 C  
HETATM   12  O   UNL     1     -10.376   8.057  66.555  1.00  0.00    -0.260 OA 
HETATM   13  C   UNL     1      -9.526   7.282  69.957  1.00  0.00    -0.161 A  
HETATM   14  C   UNL     1      -9.502   6.198  70.842  1.00  0.00    -0.187 A  
HETATM   15  C   UNL     1     -10.000   8.238  67.713  1.00  0.00    -0.186 C  
HETATM   16  C   UNL     1      -9.905   4.931  70.406  1.00  0.00    -0.302 A  
HETATM   17  C   UNL     1      -9.940   7.091  68.641  1.00  0.00    -0.156 A  
HETATM   18  C   UNL     1     -10.315   4.741  69.088  1.00  0.00    -0.007 A  
HETATM   19  C   UNL     1     -10.330   5.817  68.203  1.00  0.00    -0.264 A  
BRANCH  11  20
HETATM   20  C   UNL     1      -8.747   8.974  71.782  1.00  0.00    -0.006 C  
BRANCH  20  21
HETATM   21  C   UNL     1      -8.002   7.887  72.525  1.00  0.00    -0.157 A  
HETATM   22 CL   UNL     1      -5.787   4.388  74.367  1.00  0.00    -0.020 Cl 
HETATM   23  C   UNL     1      -8.634   7.053  73.460  1.00  0.00    -0.159 A  
HETATM   24  C   UNL     1      -5.981   6.536  72.748  1.00  0.00    -0.042 A  
HETATM   25  C   UNL     1      -7.943   5.982  74.040  1.00  0.00    -0.103 A  
HETATM   26  C   UNL     1      -6.669   7.609  72.173  1.00  0.00    -0.056 A  
HETATM   27  C   UNL     1      -6.622   5.727  73.680  1.00  0.00    -0.074 A  
ENDBRANCH  20  21
ENDBRANCH  11  20
ENDBRANCH   6   9
TORSDOF 3
ENDMDL
MODEL      177
REMARK 921   NORMALIZED FREE ENERGY PREDICTED BY IDOCK:   -2.65 KCAL/MOL
REMARK 922        TOTAL FREE ENERGY PREDICTED BY IDOCK:   -3.89 KCAL/MOL
REMARK 923 INTER-LIGAND FREE ENERGY PREDICTED BY IDOCK:   -4.26 KCAL/MOL
REMARK 924 INTRA-LIGAND FREE ENERGY PREDICTED BY IDOCK:    0.37 KCAL/MOL
REMARK 927      BINDING AFFINITY PREDICTED BY RF-SCORE:    0.00 PKD
ROOT
HETATM    1  C   UNL     1      -5.555   5.413  68.827  1.00  0.00    -0.011 C  
HETATM    2  N   UNL     1      -6.551   6.492  68.851  1.00  0.00    -0.046 NA 
HETATM    3  C   UNL     1      -7.542   6.198  69.894  1.00  0.00    -0.088 C  
HETATM    4  C   UNL     1      -8.660   7.224  70.069  1.00  0.00    -0.140 C  
HETATM    5  C   UNL     1      -8.170   8.542  70.665  1.00  0.00    -0.129 C  
HETATM    6  C   UNL     1      -7.683   9.555  69.616  1.00  0.00    -0.112 C  
HETATM    7  C   UNL     1      -5.887   7.798  68.976  1.00  0.00    -0.031 C  
HETATM    8  C   UNL     1      -6.779   8.960  68.524  1.00  0.00    -0.060 C  
ENDROOT
BRANCH   6   9
HETATM    9  N   UNL     1      -8.797  10.337  69.022  1.00  0.00    -0.158 N  
HETATM   10  N   UNL     1      -9.963  10.402  69.744  1.00  0.00    -0.181 NA 
HETATM   11  C   UNL     1     -10.961  11.113  69.322  1.00  0.00    -0.247 C  
HETATM   12  O   UNL     1      -7.592  10.901  67.121  1.00  0.00    -0.100 OA 
HETATM   13  C   UNL     1     -10.927  11.859  68.047  1.00  0.00    -0.271 A  
HETATM   14  C   UNL     1     -11.987  12.651  67.590  1.00  0.00    -0.309 A  
HETATM   15  C   UNL     1      -8.624  10.964  67.791  1.00  0.00    -0.128 C  
HETATM   16  C   UNL     1     -11.864  13.360  66.391  1.00  0.00    -0.441 A  
HETATM   17  C   UNL     1      -9.757  11.770  67.296  1.00  0.00    -0.188 A  
HETATM   18  C   UNL     1     -10.694  13.267  65.639  1.00  0.00    -0.292 A  
HETATM   19  C   UNL     1      -9.642  12.471  66.087  1.00  0.00    -0.230 A  
BRANCH  11  20
HETATM   20  C   UNL     1     -12.176  11.196  70.238  1.00  0.00    -0.436 C  
BRANCH  20  21
HETATM   21  C   UNL     1     -12.551   9.929  70.976  1.00  0.00    -0.431 A  
HETATM   22 CL   UNL     1     -13.394   5.914  72.902  1.00  0.00     0.906 Cl 
HETATM   23  C   UNL     1     -13.784   9.289  70.785  1.00  0.00     0.194 A  
HETATM   24  C   UNL     1     -11.846   8.059  72.380  1.00  0.00    -0.429 A  
HETATM   25  C   UNL     1     -14.050   8.056  71.394  1.00  0.00    -0.413 A  
HETATM   26  C   UNL     1     -11.584   9.293  71.776  1.00  0.00    -0.458 A  
HETATM   27  C   UNL     1     -13.079   7.446  72.185  1.00  0.00    -0.028 A  
ENDBRANCH  20  21
ENDBRANCH  11  20
ENDBRANCH   6   9
TORSDOF 3
ENDMDL
MODEL      178
REMARK 921   NORMALIZED FREE ENERGY PREDICTED BY IDOCK:   -2.55 KCAL/MOL
REMARK 922        TOTAL FREE ENERGY PREDICTED BY IDOCK:   -3.77 KCAL/MOL
REMARK 923 INTER-LIGAND FREE ENERGY PREDICTED BY IDOCK:   -3.16 KCAL/MOL
REMARK 924 INTRA-LIGAND FREE ENERGY PREDICTED BY IDOCK:   -0.62 KCAL/MOL
REMARK 927      BINDING AFFINITY PREDICTED BY RF-SCORE:    0.00 PKD
ROOT
HETATM    1  C   UNL     1      -5.493   5.404  68.813  1.00  0.00    -0.007 C  
HETATM    2  N   UNL     1      -6.173   6.683  68.571  1.00  0.00    -0.025 NA 
HETATM    3  C   UNL     1      -7.393   6.731  69.387  1.00  0.00    -0.092 C  
HETATM    4  C   UNL     1      -8.232   8.002  69.270  1.00  0.00    -0.127 C  
HETATM    5  C   UNL     1      -7.558   9.220  69.897  1.00  0.00    -0.093 C  
HETATM    6  C   UNL     1      -6.636   9.985  68.933  1.00  0.00    -0.049 C  
HETATM    7  C   UNL     1      -5.243   7.803  68.778  1.00  0.00    -0.026 C  
HETATM    8  C   UNL     1      -5.710   9.093  68.091  1.00  0.00    -0.038 C  
ENDROOT
BRANCH   6   9
HETATM    9  N   UNL     1      -7.379  10.944  68.078  1.00  0.00    -0.086 N  
HETATM   10  N   UNL     1      -8.096  10.417  67.032  1.00  0.00    -0.115 NA 
HETATM   11  C   UNL     1      -8.818  11.182  66.275  1.00  0.00    -0.185 C  
HETATM   12  O   UNL     1      -6.680  12.799  69.284  1.00  0.00    -0.107 OA 
HETATM   13  C   UNL     1      -8.893  12.646  66.460  1.00  0.00    -0.067 A  
HETATM   14  C   UNL     1      -9.688  13.482  65.667  1.00  0.00    -0.109 A  
HETATM   15  C   UNL     1      -7.331  12.307  68.362  1.00  0.00    -0.109 C  
HETATM   16  C   UNL     1      -9.738  14.855  65.931  1.00  0.00    -0.366 A  
HETATM   17  C   UNL     1      -8.144  13.189  67.501  1.00  0.00    -0.181 A  
HETATM   18  C   UNL     1      -8.985  15.397  66.970  1.00  0.00    -0.253 A  
HETATM   19  C   UNL     1      -8.185  14.568  67.754  1.00  0.00    -0.171 A  
BRANCH  11  20
HETATM   20  C   UNL     1      -9.647  10.491  65.199  1.00  0.00    -0.316 C  
BRANCH  20  21
HETATM   21  C   UNL     1      -9.014   9.291  64.528  1.00  0.00    -0.183 A  
HETATM   22 CL   UNL     1      -7.531   5.606  62.347  1.00  0.00    -0.050 Cl 
HETATM   23  C   UNL     1      -8.688   8.125  65.235  1.00  0.00    -0.093 A  
HETATM   24  C   UNL     1      -8.405   8.155  62.455  1.00  0.00    -0.142 A  
HETATM   25  C   UNL     1      -8.214   6.993  64.562  1.00  0.00     0.001 A  
HETATM   26  C   UNL     1      -8.873   9.288  63.129  1.00  0.00    -0.163 A  
HETATM   27  C   UNL     1      -8.078   7.011  63.176  1.00  0.00    -0.007 A  
ENDBRANCH  20  21
ENDBRANCH  11  20
ENDBRANCH   6   9
TORSDOF 3
ENDMDL
MODEL      179
REMARK 921   NORMALIZED FREE ENERGY PREDICTED BY IDOCK:   -2.54 KCAL/MOL
REMARK 922        TOTAL FREE ENERGY PREDICTED BY IDOCK:   -3.75 KCAL/MOL
REMARK 923 INTER-LIGAND FREE ENERGY PREDICTED BY IDOCK:   -5.27 KCAL/MOL
REMARK 924 INTRA-LIGAND FREE ENERGY PREDICTED BY IDOCK:    1.52 KCAL/MOL
REMARK 927      BINDING AFFINITY PREDICTED BY RF-SCORE:    0.00 PKD
ROOT
HETATM    1  C   UNL     1      -6.278  21.239  66.104  1.00  0.00    -0.198 C  
HETATM    2  N   UNL     1      -6.526  19.909  66.674  1.00  0.00    -0.191 NA 
HETATM    3  C   UNL     1      -5.345  19.497  67.445  1.00  0.00    -0.162 C  
HETATM    4  C   UNL     1      -5.426  18.130  68.121  1.00  0.00    -0.161 C  
HETATM    5  C   UNL     1      -6.410  18.100  69.288  1.00  0.00    -0.257 C  
HETATM    6  C   UNL     1      -7.851  17.754  68.877  1.00  0.00    -0.184 C  
HETATM    7  C   UNL     1      -7.790  19.901  67.425  1.00  0.00    -0.285 C  
HETATM    8  C   UNL     1      -8.352  18.488  67.623  1.00  0.00    -0.268 C  
ENDROOT
BRANCH   6   9
HETATM    9  N   UNL     1      -8.072  16.290  68.765  1.00  0.00    -0.214 N  
HETATM   10  N   UNL     1      -9.267  15.882  68.225  1.00  0.00    -0.187 NA 
HETATM   11  C   UNL     1      -9.512  14.623  68.041  1.00  0.00    -0.207 C  
HETATM   12  O   UNL     1      -6.016  15.753  69.698  1.00  0.00    -0.132 OA 
HETATM   13  C   UNL     1      -8.558  13.561  68.420  1.00  0.00    -0.142 A  
HETATM   14  C   UNL     1      -8.797  12.198  68.203  1.00  0.00    -0.187 A  
HETATM   15  C   UNL     1      -7.086  15.406  69.195  1.00  0.00    -0.161 C  
HETATM   16  C   UNL     1      -7.826  11.254  68.554  1.00  0.00    -0.138 A  
HETATM   17  C   UNL     1      -7.357  13.968  68.996  1.00  0.00    -0.081 A  
HETATM   18  C   UNL     1      -6.627  11.663  69.134  1.00  0.00    -0.101 A  
HETATM   19  C   UNL     1      -6.391  13.018  69.359  1.00  0.00    -0.111 A  
BRANCH  11  20
HETATM   20  C   UNL     1     -10.827  14.277  67.352  1.00  0.00    -0.288 C  
BRANCH  20  21
HETATM   21  C   UNL     1     -10.741  13.330  66.174  1.00  0.00    -0.287 A  
HETATM   22 CL   UNL     1     -10.127  10.305  62.856  1.00  0.00     0.077 Cl 
HETATM   23  C   UNL     1     -10.222  13.727  64.933  1.00  0.00    -0.374 A  
HETATM   24  C   UNL     1     -10.883  11.041  65.338  1.00  0.00    -0.168 A  
HETATM   25  C   UNL     1     -10.049  12.794  63.903  1.00  0.00    -0.153 A  
HETATM   26  C   UNL     1     -11.061  11.974  66.364  1.00  0.00    -0.365 A  
HETATM   27  C   UNL     1     -10.376  11.456  64.111  1.00  0.00    -0.344 A  
ENDBRANCH  20  21
ENDBRANCH  11  20
ENDBRANCH   6   9
TORSDOF 3
ENDMDL
MODEL      180
REMARK 921   NORMALIZED FREE ENERGY PREDICTED BY IDOCK:   -2.40 KCAL/MOL
REMARK 922        TOTAL FREE ENERGY PREDICTED BY IDOCK:   -3.60 KCAL/MOL
REMARK 923 INTER-LIGAND FREE ENERGY PREDICTED BY IDOCK:   -2.86 KCAL/MOL
REMARK 924 INTRA-LIGAND FREE ENERGY PREDICTED BY IDOCK:   -0.73 KCAL/MOL
REMARK 927      BINDING AFFINITY PREDICTED BY RF-SCORE:    0.00 PKD
ROOT
HETATM    1  C   UNL     1      -6.880  10.706  62.332  1.00  0.00    -0.103 C  
HETATM    2  N   UNL     1      -7.084   9.494  63.135  1.00  0.00    -0.099 NA 
HETATM    3  C   UNL     1      -7.958   8.576  62.392  1.00  0.00    -0.148 C  
HETATM    4  C   UNL     1      -8.277   7.248  63.075  1.00  0.00     0.041 C  
HETATM    5  C   UNL     1      -7.072   6.313  63.151  1.00  0.00    -0.052 C  
HETATM    6  C   UNL     1      -6.205   6.516  64.405  1.00  0.00    -0.037 C  
HETATM    7  C   UNL     1      -5.790   8.925  63.540  1.00  0.00    -0.076 C  
HETATM    8  C   UNL     1      -5.909   7.985  64.746  1.00  0.00    -0.045 C  
ENDROOT
BRANCH   6   9
HETATM    9  N   UNL     1      -6.736   5.788  65.585  1.00  0.00    -0.047 N  
HETATM   10  N   UNL     1      -6.928   6.519  66.731  1.00  0.00    -0.066 NA 
HETATM   11  C   UNL     1      -7.441   5.968  67.786  1.00  0.00    -0.085 C  
HETATM   12  O   UNL     1      -6.835   3.752  64.475  1.00  0.00    -0.043 OA 
HETATM   13  C   UNL     1      -7.818   4.541  67.838  1.00  0.00    -0.081 A  
HETATM   14  C   UNL     1      -8.398   3.939  68.961  1.00  0.00    -0.088 A  
HETATM   15  C   UNL     1      -7.018   4.427  65.489  1.00  0.00    -0.059 C  
HETATM   16  C   UNL     1      -8.765   2.590  68.919  1.00  0.00    -0.131 A  
HETATM   17  C   UNL     1      -7.597   3.788  66.687  1.00  0.00    -0.081 A  
HETATM   18  C   UNL     1      -8.539   1.837  67.769  1.00  0.00    -0.104 A  
HETATM   19  C   UNL     1      -7.953   2.432  66.653  1.00  0.00    -0.080 A  
BRANCH  11  20
HETATM   20  C   UNL     1      -7.699   6.884  68.977  1.00  0.00    -0.110 C  
BRANCH  20  21
HETATM   21  C   UNL     1      -8.721   7.982  68.773  1.00  0.00    -0.131 A  
HETATM   22 CL   UNL     1     -11.934  11.173  68.582  1.00  0.00    -0.357 Cl 
HETATM   23  C   UNL     1      -9.856   7.806  67.967  1.00  0.00    -0.192 A  
HETATM   24  C   UNL     1      -9.592  10.158  69.454  1.00  0.00    -0.249 A  
HETATM   25  C   UNL     1     -10.840   8.800  67.896  1.00  0.00    -0.078 A  
HETATM   26  C   UNL     1      -8.607   9.168  69.521  1.00  0.00    -0.138 A  
HETATM   27  C   UNL     1     -10.706   9.969  68.642  1.00  0.00    -0.226 A  
ENDBRANCH  20  21
ENDBRANCH  11  20
ENDBRANCH   6   9
TORSDOF 3
ENDMDL
MODEL      181
REMARK 921   NORMALIZED FREE ENERGY PREDICTED BY IDOCK:   -2.33 KCAL/MOL
REMARK 922        TOTAL FREE ENERGY PREDICTED BY IDOCK:   -3.51 KCAL/MOL
REMARK 923 INTER-LIGAND FREE ENERGY PREDICTED BY IDOCK:   -2.37 KCAL/MOL
REMARK 924 INTRA-LIGAND FREE ENERGY PREDICTED BY IDOCK:   -1.14 KCAL/MOL
REMARK 927      BINDING AFFINITY PREDICTED BY RF-SCORE:    0.00 PKD
ROOT
HETATM    1  C   UNL     1      -5.580  11.504  65.902  1.00  0.00     0.348 C  
HETATM    2  N   UNL     1      -6.152  10.155  65.994  1.00  0.00    -0.076 NA 
HETATM    3  C   UNL     1      -7.600  10.237  65.762  1.00  0.00    -0.143 C  
HETATM    4  C   UNL     1      -8.366   8.918  65.813  1.00  0.00    -0.139 C  
HETATM    5  C   UNL     1      -8.056   8.002  64.631  1.00  0.00    -0.140 C  
HETATM    6  C   UNL     1      -6.851   7.076  64.862  1.00  0.00    -0.047 C  
HETATM    7  C   UNL     1      -5.433   9.232  65.102  1.00  0.00    -0.045 C  
HETATM    8  C   UNL     1      -5.628   7.762  65.491  1.00  0.00    -0.037 C  
ENDROOT
BRANCH   6   9
HETATM    9  N   UNL     1      -7.217   5.845  65.608  1.00  0.00    -0.073 N  
HETATM   10  N   UNL     1      -6.893   5.807  66.941  1.00  0.00    -0.062 NA 
HETATM   11  C   UNL     1      -7.230   4.792  67.674  1.00  0.00    -0.070 C  
HETATM   12  O   UNL     1      -8.147   4.811  63.749  1.00  0.00    -0.093 OA 
HETATM   13  C   UNL     1      -7.943   3.618  67.131  1.00  0.00    -0.087 A  
HETATM   14  C   UNL     1      -8.337   2.527  67.914  1.00  0.00    -0.091 A  
HETATM   15  C   UNL     1      -7.864   4.803  64.948  1.00  0.00    -0.091 C  
HETATM   16  C   UNL     1      -9.045   1.469  67.334  1.00  0.00    -0.147 A  
HETATM   17  C   UNL     1      -8.247   3.638  65.771  1.00  0.00    -0.104 A  
HETATM   18  C   UNL     1      -9.345   1.489  65.973  1.00  0.00     0.114 A  
HETATM   19  C   UNL     1      -8.945   2.570  65.189  1.00  0.00    -0.133 A  
BRANCH  11  20
HETATM   20  C   UNL     1      -6.906   4.886  69.160  1.00  0.00    -0.050 C  
BRANCH  20  21
HETATM   21  C   UNL     1      -7.821   5.754  69.996  1.00  0.00    -0.091 A  
HETATM   22 CL   UNL     1     -10.602   8.623  72.134  1.00  0.00    -0.412 Cl 
HETATM   23  C   UNL     1      -7.332   6.622  70.984  1.00  0.00    -0.079 A  
HETATM   24  C   UNL     1     -10.053   6.676  70.351  1.00  0.00    -0.205 A  
HETATM   25  C   UNL     1      -8.195   7.496  71.655  1.00  0.00    -0.108 A  
HETATM   26  C   UNL     1      -9.192   5.799  69.684  1.00  0.00    -0.159 A  
HETATM   27  C   UNL     1      -9.550   7.522  71.334  1.00  0.00    -0.155 A  
ENDBRANCH  20  21
ENDBRANCH  11  20
ENDBRANCH   6   9
TORSDOF 3
ENDMDL
MODEL      182
REMARK 921   NORMALIZED FREE ENERGY PREDICTED BY IDOCK:   -2.32 KCAL/MOL
REMARK 922        TOTAL FREE ENERGY PREDICTED BY IDOCK:   -3.50 KCAL/MOL
REMARK 923 INTER-LIGAND FREE ENERGY PREDICTED BY IDOCK:   -2.89 KCAL/MOL
REMARK 924 INTRA-LIGAND FREE ENERGY PREDICTED BY IDOCK:   -0.61 KCAL/MOL
REMARK 927      BINDING AFFINITY PREDICTED BY RF-SCORE:    0.00 PKD
ROOT
HETATM    1  C   UNL     1      -6.086  18.940  67.727  1.00  0.00    -0.201 C  
HETATM    2  N   UNL     1      -6.809  17.707  67.389  1.00  0.00    -0.162 NA 
HETATM    3  C   UNL     1      -6.254  16.602  68.182  1.00  0.00    -0.131 C  
HETATM    4  C   UNL     1      -6.893  15.232  67.966  1.00  0.00    -0.152 C  
HETATM    5  C   UNL     1      -8.314  15.143  68.519  1.00  0.00    -0.158 C  
HETATM    6  C   UNL     1      -9.398  15.579  67.520  1.00  0.00    -0.206 C  
HETATM    7  C   UNL     1      -8.258  17.908  67.534  1.00  0.00    -0.227 C  
HETATM    8  C   UNL     1      -9.079  16.873  66.754  1.00  0.00    -0.266 C  
ENDROOT
BRANCH   6   9
HETATM    9  N   UNL     1      -9.784  14.487  66.591  1.00  0.00    -0.261 N  
HETATM   10  N   UNL     1      -8.847  13.512  66.356  1.00  0.00     0.030 NA 
HETATM   11  C   UNL     1      -9.128  12.495  65.603  1.00  0.00     0.326 C  
HETATM   12  O   UNL     1     -11.896  15.363  66.195  1.00  0.00     0.083 OA 
HETATM   13  C   UNL     1     -10.436  12.335  64.934  1.00  0.00    -0.321 A  
HETATM   14  C   UNL     1     -10.763  11.230  64.139  1.00  0.00    -0.436 A  
HETATM   15  C   UNL     1     -11.050  14.488  66.010  1.00  0.00    -0.329 C  
HETATM   16  C   UNL     1     -12.038  11.130  63.571  1.00  0.00     0.726 A  
HETATM   17  C   UNL     1     -11.379  13.338  65.145  1.00  0.00    -0.318 A  
HETATM   18  C   UNL     1     -12.979  12.136  63.780  1.00  0.00    -0.343 A  
HETATM   19  C   UNL     1     -12.652  13.242  64.563  1.00  0.00    -0.316 A  
BRANCH  11  20
HETATM   20  C   UNL     1      -8.054  11.421  65.477  1.00  0.00     0.366 C  
BRANCH  20  21
HETATM   21  C   UNL     1      -7.556  10.813  66.770  1.00  0.00    -0.129 A  
HETATM   22 CL   UNL     1      -6.147   9.393  70.837  1.00  0.00    -0.062 Cl 
HETATM   23  C   UNL     1      -6.191  10.612  67.024  1.00  0.00    -0.069 A  
HETATM   24  C   UNL     1      -8.042  10.119  69.060  1.00  0.00    -0.125 A  
HETATM   25  C   UNL     1      -5.759  10.157  68.275  1.00  0.00    -0.041 A  
HETATM   26  C   UNL     1      -8.473  10.567  67.807  1.00  0.00    -0.114 A  
HETATM   27  C   UNL     1      -6.684   9.916  69.288  1.00  0.00    -0.055 A  
ENDBRANCH  20  21
ENDBRANCH  11  20
ENDBRANCH   6   9
TORSDOF 3
ENDMDL
MODEL      183
REMARK 921   NORMALIZED FREE ENERGY PREDICTED BY IDOCK:   -2.30 KCAL/MOL
REMARK 922        TOTAL FREE ENERGY PREDICTED BY IDOCK:   -3.47 KCAL/MOL
REMARK 923 INTER-LIGAND FREE ENERGY PREDICTED BY IDOCK:   -3.54 KCAL/MOL
REMARK 924 INTRA-LIGAND FREE ENERGY PREDICTED BY IDOCK:    0.07 KCAL/MOL
REMARK 927      BINDING AFFINITY PREDICTED BY RF-SCORE:    0.00 PKD
ROOT
HETATM    1  C   UNL     1      -7.912  19.589  67.804  1.00  0.00    -0.294 C  
HETATM    2  N   UNL     1      -8.083  18.131  67.772  1.00  0.00    -0.235 NA 
HETATM    3  C   UNL     1      -7.465  17.610  66.545  1.00  0.00    -0.264 C  
HETATM    4  C   UNL     1      -7.540  16.098  66.344  1.00  0.00    -0.050 C  
HETATM    5  C   UNL     1      -6.660  15.322  67.322  1.00  0.00    -0.010 C  
HETATM    6  C   UNL     1      -7.359  14.975  68.646  1.00  0.00    -0.118 C  
HETATM    7  C   UNL     1      -7.588  17.530  69.019  1.00  0.00    -0.161 C  
HETATM    8  C   UNL     1      -8.160  16.130  69.269  1.00  0.00    -0.186 C  
ENDROOT
BRANCH   6   9
HETATM    9  N   UNL     1      -8.184  13.744  68.547  1.00  0.00    -0.146 N  
HETATM   10  N   UNL     1      -7.515  12.566  68.325  1.00  0.00    -0.113 NA 
HETATM   11  C   UNL     1      -8.157  11.440  68.283  1.00  0.00    -0.143 C  
HETATM   12  O   UNL     1     -10.186  14.873  68.865  1.00  0.00    -0.226 OA 
HETATM   13  C   UNL     1      -9.623  11.352  68.436  1.00  0.00    -0.197 A  
HETATM   14  C   UNL     1     -10.327  10.142  68.419  1.00  0.00    -0.210 A  
HETATM   15  C   UNL     1      -9.567  13.824  68.683  1.00  0.00    -0.121 C  
HETATM   16  C   UNL     1     -11.713  10.138  68.611  1.00  0.00     0.117 A  
HETATM   17  C   UNL     1     -10.310  12.549  68.631  1.00  0.00    -0.193 A  
HETATM   18  C   UNL     1     -12.399  11.336  68.802  1.00  0.00     0.113 A  
HETATM   19  C   UNL     1     -11.701  12.542  68.808  1.00  0.00    -0.371 A  
BRANCH  11  20
HETATM   20  C   UNL     1      -7.315  10.180  68.124  1.00  0.00    -0.082 C  
BRANCH  20  21
HETATM   21  C   UNL     1      -7.041   9.728  66.706  1.00  0.00    -0.089 A  
HETATM   22 CL   UNL     1      -6.650   8.229  62.447  1.00  0.00    -0.088 Cl 
HETATM   23  C   UNL     1      -6.299   8.572  66.420  1.00  0.00    -0.058 A  
HETATM   24  C   UNL     1      -7.533   9.951  64.325  1.00  0.00    -0.136 A  
HETATM   25  C   UNL     1      -6.165   8.120  65.102  1.00  0.00    -0.045 A  
HETATM   26  C   UNL     1      -7.661  10.406  65.641  1.00  0.00    -0.150 A  
HETATM   27  C   UNL     1      -6.785   8.808  64.061  1.00  0.00    -0.083 A  
ENDBRANCH  20  21
ENDBRANCH  11  20
ENDBRANCH   6   9
TORSDOF 3
ENDMDL
MODEL      184
REMARK 921   NORMALIZED FREE ENERGY PREDICTED BY IDOCK:   -2.25 KCAL/MOL
REMARK 922        TOTAL FREE ENERGY PREDICTED BY IDOCK:   -3.41 KCAL/MOL
REMARK 923 INTER-LIGAND FREE ENERGY PREDICTED BY IDOCK:   -3.87 KCAL/MOL
REMARK 924 INTRA-LIGAND FREE ENERGY PREDICTED BY IDOCK:    0.46 KCAL/MOL
REMARK 927      BINDING AFFINITY PREDICTED BY RF-SCORE:    0.00 PKD
ROOT
HETATM    1  C   UNL     1      -9.327   7.681  65.929  1.00  0.00     0.069 C  
HETATM    2  N   UNL     1      -9.470   9.107  66.248  1.00  0.00    -0.216 NA 
HETATM    3  C   UNL     1      -8.159   9.635  66.651  1.00  0.00    -0.119 C  
HETATM    4  C   UNL     1      -8.113  11.117  67.016  1.00  0.00    -0.148 C  
HETATM    5  C   UNL     1      -8.302  12.033  65.809  1.00  0.00     0.598 C  
HETATM    6  C   UNL     1      -9.773  12.364  65.505  1.00  0.00    -0.136 C  
HETATM    7  C   UNL     1     -10.108   9.820  65.132  1.00  0.00     0.016 C  
HETATM    8  C   UNL     1     -10.724  11.158  65.560  1.00  0.00    -0.251 C  
ENDROOT
BRANCH   6   9
HETATM    9  N   UNL     1     -10.284  13.488  66.330  1.00  0.00    -0.292 N  
HETATM   10  N   UNL     1     -11.159  13.170  67.339  1.00  0.00    -0.267 NA 
HETATM   11  C   UNL     1     -11.604  14.087  68.139  1.00  0.00    -0.334 C  
HETATM   12  O   UNL     1      -9.095  15.095  65.151  1.00  0.00     0.607 OA 
HETATM   13  C   UNL     1     -11.235  15.511  68.005  1.00  0.00    -0.332 A  
HETATM   14  C   UNL     1     -11.687  16.509  68.877  1.00  0.00     0.079 A  
HETATM   15  C   UNL     1      -9.864  14.789  66.062  1.00  0.00    -0.324 C  
HETATM   16  C   UNL     1     -11.261  17.830  68.708  1.00  0.00     0.824 A  
HETATM   17  C   UNL     1     -10.371  15.843  66.964  1.00  0.00    -0.297 A  
HETATM   18  C   UNL     1     -10.399  18.161  67.664  1.00  0.00    -0.411 A  
HETATM   19  C   UNL     1      -9.957  17.172  66.789  1.00  0.00    -0.291 A  
BRANCH  11  20
HETATM   20  C   UNL     1     -12.498  13.620  69.282  1.00  0.00     0.029 C  
BRANCH  20  21
HETATM   21  C   UNL     1     -12.516  14.489  70.521  1.00  0.00    -0.408 A  
HETATM   22 CL   UNL     1     -12.507  16.712  74.470  1.00  0.00    -0.411 Cl 
HETATM   23  C   UNL     1     -13.706  15.009  71.051  1.00  0.00    -0.417 A  
HETATM   24  C   UNL     1     -11.318  15.367  72.458  1.00  0.00    -0.317 A  
HETATM   25  C   UNL     1     -13.699  15.710  72.263  1.00  0.00    -0.584 A  
HETATM   26  C   UNL     1     -11.324  14.672  71.245  1.00  0.00    -0.045 A  
HETATM   27  C   UNL     1     -12.507  15.883  72.963  1.00  0.00    -0.491 A  
ENDBRANCH  20  21
ENDBRANCH  11  20
ENDBRANCH   6   9
TORSDOF 3
ENDMDL
MODEL      185
REMARK 921   NORMALIZED FREE ENERGY PREDICTED BY IDOCK:   -2.18 KCAL/MOL
REMARK 922        TOTAL FREE ENERGY PREDICTED BY IDOCK:   -3.34 KCAL/MOL
REMARK 923 INTER-LIGAND FREE ENERGY PREDICTED BY IDOCK:   -3.69 KCAL/MOL
REMARK 924 INTRA-LIGAND FREE ENERGY PREDICTED BY IDOCK:    0.36 KCAL/MOL
REMARK 927      BINDING AFFINITY PREDICTED BY RF-SCORE:    0.00 PKD
ROOT
HETATM    1  C   UNL     1      -9.333   6.389  73.385  1.00  0.00    -0.132 C  
HETATM    2  N   UNL     1      -9.100   7.122  72.134  1.00  0.00    -0.130 NA 
HETATM    3  C   UNL     1      -8.232   8.273  72.416  1.00  0.00    -0.155 C  
HETATM    4  C   UNL     1      -7.874   9.155  71.222  1.00  0.00    -0.067 C  
HETATM    5  C   UNL     1      -6.931   8.468  70.236  1.00  0.00    -0.040 C  
HETATM    6  C   UNL     1      -7.654   7.649  69.154  1.00  0.00    -0.100 C  
HETATM    7  C   UNL     1      -8.603   6.212  71.092  1.00  0.00    -0.125 C  
HETATM    8  C   UNL     1      -8.800   6.769  69.677  1.00  0.00    -0.144 C  
ENDROOT
BRANCH   6   9
HETATM    9  N   UNL     1      -8.099   8.487  68.012  1.00  0.00    -0.115 N  
HETATM   10  N   UNL     1      -7.413   8.341  66.831  1.00  0.00    -0.087 NA 
HETATM   11  C   UNL     1      -7.777   8.994  65.772  1.00  0.00    -0.091 C  
HETATM   12  O   UNL     1      -9.787   9.518  69.226  1.00  0.00    -0.167 OA 
HETATM   13  C   UNL     1      -8.910   9.942  65.769  1.00  0.00    -0.171 A  
HETATM   14  C   UNL     1      -9.331  10.634  64.627  1.00  0.00    -0.280 A  
HETATM   15  C   UNL     1      -9.171   9.361  68.171  1.00  0.00    -0.130 C  
HETATM   16  C   UNL     1     -10.439  11.485  64.695  1.00  0.00    -0.356 A  
HETATM   17  C   UNL     1      -9.590  10.115  66.973  1.00  0.00    -0.209 A  
HETATM   18  C   UNL     1     -11.117  11.660  65.901  1.00  0.00    -0.320 A  
HETATM   19  C   UNL     1     -10.692  10.980  67.041  1.00  0.00    -0.319 A  
BRANCH  11  20
HETATM   20  C   UNL     1      -7.009   8.696  64.490  1.00  0.00    -0.081 C  
BRANCH  20  21
HETATM   21  C   UNL     1      -7.147   7.296  63.932  1.00  0.00    -0.068 A  
HETATM   22 CL   UNL     1      -7.988   3.109  62.416  1.00  0.00    -0.069 Cl 
HETATM   23  C   UNL     1      -6.587   6.179  64.570  1.00  0.00    -0.038 A  
HETATM   24  C   UNL     1      -8.229   5.794  62.340  1.00  0.00    -0.102 A  
HETATM   25  C   UNL     1      -6.834   4.887  64.090  1.00  0.00    -0.048 A  
HETATM   26  C   UNL     1      -7.977   7.084  62.816  1.00  0.00    -0.096 A  
HETATM   27  C   UNL     1      -7.656   4.700  62.981  1.00  0.00    -0.058 A  
ENDBRANCH  20  21
ENDBRANCH  11  20
ENDBRANCH   6   9
TORSDOF 3
ENDMDL
MODEL      186
REMARK 921   NORMALIZED FREE ENERGY PREDICTED BY IDOCK:   -2.07 KCAL/MOL
REMARK 922        TOTAL FREE ENERGY PREDICTED BY IDOCK:   -3.21 KCAL/MOL
REMARK 923 INTER-LIGAND FREE ENERGY PREDICTED BY IDOCK:   -3.60 KCAL/MOL
REMARK 924 INTRA-LIGAND FREE ENERGY PREDICTED BY IDOCK:    0.39 KCAL/MOL
REMARK 927      BINDING AFFINITY PREDICTED BY RF-SCORE:    0.00 PKD
ROOT
HETATM    1  C   UNL     1     -10.651  17.078  69.757  1.00  0.00    -0.000 C  
HETATM    2  N   UNL     1     -10.500  15.680  69.333  1.00  0.00    -0.233 NA 
HETATM    3  C   UNL     1     -11.563  15.361  68.371  1.00  0.00    -0.354 C  
HETATM    4  C   UNL     1     -11.560  13.940  67.811  1.00  0.00    -0.381 C  
HETATM    5  C   UNL     1     -10.390  13.674  66.867  1.00  0.00    -0.262 C  
HETATM    6  C   UNL     1      -9.119  13.178  67.577  1.00  0.00    -0.205 C  
HETATM    7  C   UNL     1      -9.133  15.437  68.850  1.00  0.00    -0.218 C  
HETATM    8  C   UNL     1      -8.759  13.949  68.857  1.00  0.00     0.106 C  
ENDROOT
BRANCH   6   9
HETATM    9  N   UNL     1      -9.142  11.713  67.823  1.00  0.00    -0.169 N  
HETATM   10  N   UNL     1      -8.717  11.284  69.056  1.00  0.00    -0.036 NA 
HETATM   11  C   UNL     1      -8.761  10.027  69.367  1.00  0.00    -0.186 C  
HETATM   12  O   UNL     1      -9.954  11.216  65.707  1.00  0.00    -0.224 OA 
HETATM   13  C   UNL     1      -9.231   8.988  68.428  1.00  0.00    -0.137 A  
HETATM   14  C   UNL     1      -9.309   7.630  68.759  1.00  0.00    -0.148 A  
HETATM   15  C   UNL     1      -9.587  10.851  66.824  1.00  0.00    -0.183 C  
HETATM   16  C   UNL     1      -9.803   6.711  67.828  1.00  0.00    -0.144 A  
HETATM   17  C   UNL     1      -9.635   9.415  67.165  1.00  0.00    -0.202 A  
HETATM   18  C   UNL     1     -10.203   7.139  66.563  1.00  0.00    -0.131 A  
HETATM   19  C   UNL     1     -10.116   8.489  66.229  1.00  0.00    -0.174 A  
BRANCH  11  20
HETATM   20  C   UNL     1      -8.354   9.662  70.790  1.00  0.00     0.062 C  
BRANCH  20  21
HETATM   21  C   UNL     1      -7.585   8.370  70.960  1.00  0.00    -0.084 A  
HETATM   22 CL   UNL     1      -5.372   4.415  71.032  1.00  0.00    -0.003 Cl 
HETATM   23  C   UNL     1      -8.128   7.259  71.624  1.00  0.00    -0.100 A  
HETATM   24  C   UNL     1      -5.654   7.008  70.347  1.00  0.00    -0.023 A  
HETATM   25  C   UNL     1      -7.435   6.043  71.659  1.00  0.00    -0.094 A  
HETATM   26  C   UNL     1      -6.343   8.225  70.317  1.00  0.00    -0.035 A  
HETATM   27  C   UNL     1      -6.204   5.921  71.018  1.00  0.00    -0.039 A  
ENDBRANCH  20  21
ENDBRANCH  11  20
ENDBRANCH   6   9
TORSDOF 3
ENDMDL
MODEL      187
REMARK 921   NORMALIZED FREE ENERGY PREDICTED BY IDOCK:   -1.96 KCAL/MOL
REMARK 922        TOTAL FREE ENERGY PREDICTED BY IDOCK:   -3.08 KCAL/MOL
REMARK 923 INTER-LIGAND FREE ENERGY PREDICTED BY IDOCK:   -2.47 KCAL/MOL
REMARK 924 INTRA-LIGAND FREE ENERGY PREDICTED BY IDOCK:   -0.61 KCAL/MOL
REMARK 927      BINDING AFFINITY PREDICTED BY RF-SCORE:    0.00 PKD
ROOT
HETATM    1  C   UNL     1      -5.680  12.144  69.769  1.00  0.00    -0.111 C  
HETATM    2  N   UNL     1      -6.463  10.996  69.296  1.00  0.00    -0.069 NA 
HETATM    3  C   UNL     1      -7.707  10.920  70.073  1.00  0.00     0.558 C  
HETATM    4  C   UNL     1      -8.659   9.782  69.711  1.00  0.00    -0.215 C  
HETATM    5  C   UNL     1      -9.320   9.969  68.348  1.00  0.00    -0.139 C  
HETATM    6  C   UNL     1      -8.508   9.388  67.178  1.00  0.00    -0.128 C  
HETATM    7  C   UNL     1      -6.646  11.067  67.839  1.00  0.00    -0.062 C  
HETATM    8  C   UNL     1      -7.006   9.710  67.221  1.00  0.00    -0.085 C  
ENDROOT
BRANCH   6   9
HETATM    9  N   UNL     1      -8.740   7.933  66.995  1.00  0.00    -0.126 N  
HETATM   10  N   UNL     1      -9.145   7.225  68.099  1.00  0.00    -0.134 NA 
HETATM   11  C   UNL     1      -9.423   5.962  68.007  1.00  0.00    -0.108 C  
HETATM   12  O   UNL     1      -8.169   7.970  64.746  1.00  0.00    -0.149 OA 
HETATM   13  C   UNL     1      -9.297   5.207  66.744  1.00  0.00    -0.134 A  
HETATM   14  C   UNL     1      -9.619   3.850  66.623  1.00  0.00    -0.215 A  
HETATM   15  C   UNL     1      -8.549   7.354  65.742  1.00  0.00    -0.136 C  
HETATM   16  C   UNL     1      -9.511   3.214  65.382  1.00  0.00    -0.091 A  
HETATM   17  C   UNL     1      -8.857   5.915  65.627  1.00  0.00    -0.126 A  
HETATM   18  C   UNL     1      -9.067   3.922  64.267  1.00  0.00    -0.137 A  
HETATM   19  C   UNL     1      -8.736   5.271  64.387  1.00  0.00    -0.046 A  
BRANCH  11  20
HETATM   20  C   UNL     1      -9.952   5.286  69.267  1.00  0.00    -0.285 C  
BRANCH  20  21
HETATM   21  C   UNL     1      -8.915   4.724  70.215  1.00  0.00    -0.147 A  
HETATM   22 CL   UNL     1      -5.722   2.726  72.736  1.00  0.00    -0.007 Cl 
HETATM   23  C   UNL     1      -9.265   3.959  71.337  1.00  0.00    -0.189 A  
HETATM   24  C   UNL     1      -6.565   4.246  70.674  1.00  0.00    -0.031 A  
HETATM   25  C   UNL     1      -8.277   3.356  72.125  1.00  0.00    -0.071 A  
HETATM   26  C   UNL     1      -7.552   4.852  69.891  1.00  0.00    -0.056 A  
HETATM   27  C   UNL     1      -6.933   3.499  71.788  1.00  0.00    -0.031 A  
ENDBRANCH  20  21
ENDBRANCH  11  20
ENDBRANCH   6   9
TORSDOF 3
ENDMDL
MODEL      188
REMARK 921   NORMALIZED FREE ENERGY PREDICTED BY IDOCK:   -1.91 KCAL/MOL
REMARK 922        TOTAL FREE ENERGY PREDICTED BY IDOCK:   -3.02 KCAL/MOL
REMARK 923 INTER-LIGAND FREE ENERGY PREDICTED BY IDOCK:   -2.36 KCAL/MOL
REMARK 924 INTRA-LIGAND FREE ENERGY PREDICTED BY IDOCK:   -0.66 KCAL/MOL
REMARK 927      BINDING AFFINITY PREDICTED BY RF-SCORE:    0.00 PKD
ROOT
HETATM    1  C   UNL     1      -6.924   6.026  72.493  1.00  0.00    -0.079 C  
HETATM    2  N   UNL     1      -7.467   6.940  71.480  1.00  0.00    -0.085 NA 
HETATM    3  C   UNL     1      -8.498   7.778  72.104  1.00  0.00    -0.125 C  
HETATM    4  C   UNL     1      -9.174   8.803  71.196  1.00  0.00    -0.299 C  
HETATM    5  C   UNL     1      -8.246   9.946  70.792  1.00  0.00     0.463 C  
HETATM    6  C   UNL     1      -7.427   9.662  69.522  1.00  0.00    -0.096 C  
HETATM    7  C   UNL     1      -6.379   7.680  70.823  1.00  0.00    -0.038 C  
HETATM    8  C   UNL     1      -6.796   8.262  69.467  1.00  0.00    -0.042 C  
ENDROOT
BRANCH   6   9
HETATM    9  N   UNL     1      -8.187   9.957  68.280  1.00  0.00    -0.108 N  
HETATM   10  N   UNL     1      -8.656   8.880  67.570  1.00  0.00    -0.120 NA 
HETATM   11  C   UNL     1      -9.378   9.055  66.507  1.00  0.00    -0.191 C  
HETATM   12  O   UNL     1      -7.970  12.256  68.509  1.00  0.00    -0.140 OA 
HETATM   13  C   UNL     1      -9.711  10.394  65.980  1.00  0.00    -0.265 A  
HETATM   14  C   UNL     1     -10.511  10.599  64.849  1.00  0.00    -0.282 A  
HETATM   15  C   UNL     1      -8.398  11.278  67.894  1.00  0.00    -0.131 C  
HETATM   16  C   UNL     1     -10.816  11.899  64.435  1.00  0.00    -0.384 A  
HETATM   17  C   UNL     1      -9.212  11.489  66.681  1.00  0.00    -0.194 A  
HETATM   18  C   UNL     1     -10.313  12.994  65.135  1.00  0.00    -0.321 A  
HETATM   19  C   UNL     1      -9.508  12.792  66.255  1.00  0.00    -0.198 A  
BRANCH  11  20
HETATM   20  C   UNL     1      -9.926   7.798  65.841  1.00  0.00     0.491 C  
BRANCH  20  21
HETATM   21  C   UNL     1      -8.946   6.665  65.629  1.00  0.00     0.010 A  
HETATM   22 CL   UNL     1      -5.690   3.546  65.165  1.00  0.00    -0.017 Cl 
HETATM   23  C   UNL     1      -8.452   6.331  64.360  1.00  0.00     0.111 A  
HETATM   24  C   UNL     1      -7.408   5.042  66.610  1.00  0.00    -0.086 A  
HETATM   25  C   UNL     1      -7.458   5.356  64.216  1.00  0.00    -0.064 A  
HETATM   26  C   UNL     1      -8.405   6.013  66.752  1.00  0.00    -0.106 A  
HETATM   27  C   UNL     1      -6.938   4.718  65.341  1.00  0.00    -0.062 A  
ENDBRANCH  20  21
ENDBRANCH  11  20
ENDBRANCH   6   9
TORSDOF 3
ENDMDL
MODEL      189
REMARK 921   NORMALIZED FREE ENERGY PREDICTED BY IDOCK:   -1.76 KCAL/MOL
REMARK 922        TOTAL FREE ENERGY PREDICTED BY IDOCK:   -2.85 KCAL/MOL
REMARK 923 INTER-LIGAND FREE ENERGY PREDICTED BY IDOCK:   -2.95 KCAL/MOL
REMARK 924 INTRA-LIGAND FREE ENERGY PREDICTED BY IDOCK:    0.10 KCAL/MOL
REMARK 927      BINDING AFFINITY PREDICTED BY RF-SCORE:    0.00 PKD
ROOT
HETATM    1  C   UNL     1      -6.414  11.053  63.399  1.00  0.00     0.635 C  
HETATM    2  N   UNL     1      -6.737   9.813  64.115  1.00  0.00    -0.114 NA 
HETATM    3  C   UNL     1      -5.749   9.613  65.184  1.00  0.00    -0.066 C  
HETATM    4  C   UNL     1      -5.932   8.366  66.045  1.00  0.00    -0.044 C  
HETATM    5  C   UNL     1      -7.156   8.445  66.956  1.00  0.00    -0.079 C  
HETATM    6  C   UNL     1      -8.450   7.934  66.302  1.00  0.00    -0.135 C  
HETATM    7  C   UNL     1      -8.138   9.829  64.561  1.00  0.00    -0.146 C  
HETATM    8  C   UNL     1      -8.678   8.426  64.864  1.00  0.00    -0.053 C  
ENDROOT
BRANCH   6   9
HETATM    9  N   UNL     1      -8.587   6.458  66.392  1.00  0.00    -0.129 N  
HETATM   10  N   UNL     1      -8.978   5.943  67.603  1.00  0.00    -0.109 NA 
HETATM   11  C   UNL     1      -9.175   4.670  67.746  1.00  0.00    -0.126 C  
HETATM   12  O   UNL     1      -7.959   6.112  64.185  1.00  0.00    -0.117 OA 
HETATM   13  C   UNL     1      -8.968   3.703  66.649  1.00  0.00    -0.149 A  
HETATM   14  C   UNL     1      -9.202   2.329  66.780  1.00  0.00    -0.048 A  
HETATM   15  C   UNL     1      -8.327   5.670  65.273  1.00  0.00    -0.146 C  
HETATM   16  C   UNL     1      -9.021   1.481  65.683  1.00  0.00    -0.112 A  
HETATM   17  C   UNL     1      -8.542   4.217  65.426  1.00  0.00    -0.120 A  
HETATM   18  C   UNL     1      -8.591   1.996  64.461  1.00  0.00    -0.095 A  
HETATM   19  C   UNL     1      -8.348   3.362  64.332  1.00  0.00    -0.093 A  
BRANCH  11  20
HETATM   20  C   UNL     1      -9.695   4.208  69.102  1.00  0.00    -0.205 C  
BRANCH  20  21
HETATM   21  C   UNL     1      -9.552   5.187  70.247  1.00  0.00    -0.249 A  
HETATM   22 CL   UNL     1      -9.019   7.760  73.940  1.00  0.00    -0.324 Cl 
HETATM   23  C   UNL     1     -10.663   5.752  70.891  1.00  0.00    -0.333 A  
HETATM   24  C   UNL     1      -8.105   6.237  71.910  1.00  0.00    -0.109 A  
HETATM   25  C   UNL     1     -10.495   6.561  72.022  1.00  0.00    -0.227 A  
HETATM   26  C   UNL     1      -8.273   5.435  70.777  1.00  0.00    -0.115 A  
HETATM   27  C   UNL     1      -9.219   6.797  72.528  1.00  0.00    -0.136 A  
ENDBRANCH  20  21
ENDBRANCH  11  20
ENDBRANCH   6   9
TORSDOF 3
ENDMDL
MODEL      190
REMARK 921   NORMALIZED FREE ENERGY PREDICTED BY IDOCK:   -1.48 KCAL/MOL
REMARK 922        TOTAL FREE ENERGY PREDICTED BY IDOCK:   -2.52 KCAL/MOL
REMARK 923 INTER-LIGAND FREE ENERGY PREDICTED BY IDOCK:   -2.78 KCAL/MOL
REMARK 924 INTRA-LIGAND FREE ENERGY PREDICTED BY IDOCK:    0.26 KCAL/MOL
REMARK 927      BINDING AFFINITY PREDICTED BY RF-SCORE:    0.00 PKD
ROOT
HETATM    1  C   UNL     1      -9.828  14.533  68.593  1.00  0.00    -0.232 C  
HETATM    2  N   UNL     1      -9.584  13.089  68.697  1.00  0.00    -0.094 NA 
HETATM    3  C   UNL     1     -10.789  12.374  68.258  1.00  0.00    -0.237 C  
HETATM    4  C   UNL     1     -10.717  10.849  68.292  1.00  0.00    -0.244 C  
HETATM    5  C   UNL     1      -9.781  10.274  67.231  1.00  0.00    -0.199 C  
HETATM    6  C   UNL     1      -8.320  10.149  67.694  1.00  0.00    -0.114 C  
HETATM    7  C   UNL     1      -8.352  12.725  67.981  1.00  0.00    -0.173 C  
HETATM    8  C   UNL     1      -7.778  11.379  68.439  1.00  0.00    -0.127 C  
ENDROOT
BRANCH   6   9
HETATM    9  N   UNL     1      -8.073   8.903  68.463  1.00  0.00    -0.107 N  
HETATM   10  N   UNL     1      -9.117   8.419  69.211  1.00  0.00    -0.150 NA 
HETATM   11  C   UNL     1      -9.000   7.306  69.865  1.00  0.00    -0.142 C  
HETATM   12  O   UNL     1      -5.874   8.713  67.746  1.00  0.00    -0.041 OA 
HETATM   13  C   UNL     1      -7.752   6.515  69.876  1.00  0.00    -0.109 A  
HETATM   14  C   UNL     1      -7.618   5.298  70.556  1.00  0.00    -0.072 A  
HETATM   15  C   UNL     1      -6.828   8.284  68.397  1.00  0.00    -0.065 C  
HETATM   16  C   UNL     1      -6.416   4.587  70.486  1.00  0.00    -0.034 A  
HETATM   17  C   UNL     1      -6.680   7.019  69.143  1.00  0.00    -0.049 A  
HETATM   18  C   UNL     1      -5.343   5.094  69.755  1.00  0.00    -0.004 A  
HETATM   19  C   UNL     1      -5.471   6.310  69.087  1.00  0.00    -0.012 A  
BRANCH  11  20
HETATM   20  C   UNL     1     -10.243   6.806  70.591  1.00  0.00    -0.216 C  
BRANCH  20  21
HETATM   21  C   UNL     1     -11.222   7.862  71.056  1.00  0.00    -0.288 A  
HETATM   22 CL   UNL     1     -13.858  11.335  72.294  1.00  0.00     0.115 Cl 
HETATM   23  C   UNL     1     -11.366   8.203  72.409  1.00  0.00    -0.456 A  
HETATM   24  C   UNL     1     -12.733   9.690  70.477  1.00  0.00     0.025 A  
HETATM   25  C   UNL     1     -12.194   9.265  72.791  1.00  0.00     0.411 A  
HETATM   26  C   UNL     1     -11.911   8.625  70.096  1.00  0.00     0.284 A  
HETATM   27  C   UNL     1     -12.871  10.006  71.825  1.00  0.00    -0.446 A  
ENDBRANCH  20  21
ENDBRANCH  11  20
ENDBRANCH   6   9
TORSDOF 3
ENDMDL
MODEL      191
REMARK 921   NORMALIZED FREE ENERGY PREDICTED BY IDOCK:   -0.97 KCAL/MOL
REMARK 922        TOTAL FREE ENERGY PREDICTED BY IDOCK:   -1.91 KCAL/MOL
REMARK 923 INTER-LIGAND FREE ENERGY PREDICTED BY IDOCK:   -1.32 KCAL/MOL
REMARK 924 INTRA-LIGAND FREE ENERGY PREDICTED BY IDOCK:   -0.59 KCAL/MOL
REMARK 927      BINDING AFFINITY PREDICTED BY RF-SCORE:    0.00 PKD
ROOT
HETATM    1  C   UNL     1      -7.245  10.165  63.690  1.00  0.00    -0.112 C  
HETATM    2  N   UNL     1      -7.242   8.946  64.508  1.00  0.00    -0.095 NA 
HETATM    3  C   UNL     1      -8.485   8.205  64.256  1.00  0.00     0.057 C  
HETATM    4  C   UNL     1      -8.654   6.894  65.021  1.00  0.00     0.094 C  
HETATM    5  C   UNL     1      -7.702   5.799  64.546  1.00  0.00    -0.095 C  
HETATM    6  C   UNL     1      -6.342   5.804  65.262  1.00  0.00    -0.041 C  
HETATM    7  C   UNL     1      -6.007   8.181  64.282  1.00  0.00    -0.057 C  
HETATM    8  C   UNL     1      -5.706   7.195  65.417  1.00  0.00    -0.036 C  
ENDROOT
BRANCH   6   9
HETATM    9  N   UNL     1      -6.382   5.085  66.561  1.00  0.00    -0.035 N  
HETATM   10  N   UNL     1      -5.749   5.684  67.622  1.00  0.00    -0.012 NA 
HETATM   11  C   UNL     1      -5.789   5.148  68.801  1.00  0.00    -0.020 C  
HETATM   12  O   UNL     1      -7.605   3.305  65.712  1.00  0.00    -0.075 OA 
HETATM   13  C   UNL     1      -6.475   3.869  69.074  1.00  0.00    -0.036 A  
HETATM   14  C   UNL     1      -6.549   3.291  70.347  1.00  0.00    -0.032 A  
HETATM   15  C   UNL     1      -7.047   3.865  66.657  1.00  0.00    -0.060 C  
HETATM   16  C   UNL     1      -7.252   2.097  70.533  1.00  0.00    -0.033 A  
HETATM   17  C   UNL     1      -7.093   3.242  67.994  1.00  0.00    -0.050 A  
HETATM   18  C   UNL     1      -7.866   1.469  69.451  1.00  0.00    -0.047 A  
HETATM   19  C   UNL     1      -7.785   2.037  68.181  1.00  0.00    -0.054 A  
BRANCH  11  20
HETATM   20  C   UNL     1      -5.134   5.935  69.931  1.00  0.00    -0.005 C  
BRANCH  20  21
HETATM   21  C   UNL     1      -6.068   6.613  70.909  1.00  0.00    -0.028 A  
HETATM   22 CL   UNL     1      -9.027   8.230  73.938  1.00  0.00    -0.169 Cl 
HETATM   23  C   UNL     1      -7.211   7.311  70.490  1.00  0.00    -0.066 A  
HETATM   24  C   UNL     1      -6.772   6.934  73.224  1.00  0.00    -0.066 A  
HETATM   25  C   UNL     1      -8.116   7.824  71.427  1.00  0.00    -0.103 A  
HETATM   26  C   UNL     1      -5.866   6.426  72.288  1.00  0.00    -0.038 A  
HETATM   27  C   UNL     1      -7.894   7.631  72.789  1.00  0.00    -0.103 A  
ENDBRANCH  20  21
ENDBRANCH  11  20
ENDBRANCH   6   9
TORSDOF 3
ENDMDL
MODEL      192
REMARK 921   NORMALIZED FREE ENERGY PREDICTED BY IDOCK:   -0.88 KCAL/MOL
REMARK 922        TOTAL FREE ENERGY PREDICTED BY IDOCK:   -1.80 KCAL/MOL
REMARK 923 INTER-LIGAND FREE ENERGY PREDICTED BY IDOCK:   -3.37 KCAL/MOL
REMARK 924 INTRA-LIGAND FREE ENERGY PREDICTED BY IDOCK:    1.57 KCAL/MOL
REMARK 927      BINDING AFFINITY PREDICTED BY RF-SCORE:    0.00 PKD
ROOT
HETATM    1  C   UNL     1      -9.846  14.536  68.571  1.00  0.00    -0.231 C  
HETATM    2  N   UNL     1      -9.618  13.091  68.693  1.00  0.00    -0.094 NA 
HETATM    3  C   UNL     1     -10.842  12.384  68.296  1.00  0.00    -0.237 C  
HETATM    4  C   UNL     1     -10.788  10.859  68.353  1.00  0.00    -0.266 C  
HETATM    5  C   UNL     1      -9.886  10.254  67.279  1.00  0.00    -0.222 C  
HETATM    6  C   UNL     1      -8.416  10.119  67.707  1.00  0.00    -0.114 C  
HETATM    7  C   UNL     1      -8.408  12.699  67.953  1.00  0.00    -0.172 C  
HETATM    8  C   UNL     1      -7.840  11.353  68.418  1.00  0.00    -0.135 C  
ENDROOT
BRANCH   6   9
HETATM    9  N   UNL     1      -8.165   8.882  68.490  1.00  0.00    -0.115 N  
HETATM   10  N   UNL     1      -9.188   8.437  69.290  1.00  0.00    -0.154 NA 
HETATM   11  C   UNL     1      -9.068   7.334  69.961  1.00  0.00    -0.148 C  
HETATM   12  O   UNL     1      -6.003   8.628  67.687  1.00  0.00    -0.046 OA 
HETATM   13  C   UNL     1      -7.839   6.515  69.937  1.00  0.00    -0.115 A  
HETATM   14  C   UNL     1      -7.705   5.308  70.634  1.00  0.00    -0.084 A  
HETATM   15  C   UNL     1      -6.938   8.233  68.385  1.00  0.00    -0.073 C  
HETATM   16  C   UNL     1      -6.522   4.568  70.529  1.00  0.00    -0.034 A  
HETATM   17  C   UNL     1      -6.788   6.979  69.150  1.00  0.00    -0.061 A  
HETATM   18  C   UNL     1      -5.469   5.036  69.745  1.00  0.00    -0.011 A  
HETATM   19  C   UNL     1      -5.598   6.242  69.058  1.00  0.00    -0.015 A  
BRANCH  11  20
HETATM   20  C   UNL     1     -10.292   6.877  70.747  1.00  0.00    -0.223 C  
BRANCH  20  21
HETATM   21  C   UNL     1     -10.079   5.741  71.723  1.00  0.00    -0.233 A  
HETATM   22 CL   UNL     1      -9.005   2.339  74.520  1.00  0.00    -0.077 Cl 
HETATM   23  C   UNL     1     -10.492   4.429  71.445  1.00  0.00     0.024 A  
HETATM   24  C   UNL     1      -9.000   4.926  73.756  1.00  0.00    -0.113 A  
HETATM   25  C   UNL     1     -10.173   3.382  72.319  1.00  0.00    -0.177 A  
HETATM   26  C   UNL     1      -9.323   5.972  72.886  1.00  0.00    -0.147 A  
HETATM   27  C   UNL     1      -9.427   3.634  73.467  1.00  0.00    -0.103 A  
ENDBRANCH  20  21
ENDBRANCH  11  20
ENDBRANCH   6   9
TORSDOF 3
ENDMDL
MODEL      193
REMARK 921   NORMALIZED FREE ENERGY PREDICTED BY IDOCK:   -0.84 KCAL/MOL
REMARK 922        TOTAL FREE ENERGY PREDICTED BY IDOCK:   -1.76 KCAL/MOL
REMARK 923 INTER-LIGAND FREE ENERGY PREDICTED BY IDOCK:   -2.90 KCAL/MOL
REMARK 924 INTRA-LIGAND FREE ENERGY PREDICTED BY IDOCK:    1.14 KCAL/MOL
REMARK 927      BINDING AFFINITY PREDICTED BY RF-SCORE:    0.00 PKD
ROOT
HETATM    1  C   UNL     1     -11.309  17.167  69.010  1.00  0.00     0.487 C  
HETATM    2  N   UNL     1     -10.830  15.875  68.501  1.00  0.00    -0.282 NA 
HETATM    3  C   UNL     1     -11.863  15.298  67.631  1.00  0.00    -0.059 C  
HETATM    4  C   UNL     1     -11.534  13.947  67.000  1.00  0.00    -0.367 C  
HETATM    5  C   UNL     1     -10.443  14.036  65.935  1.00  0.00    -0.314 C  
HETATM    6  C   UNL     1      -9.017  13.893  66.493  1.00  0.00    -0.073 C  
HETATM    7  C   UNL     1      -9.508  16.030  67.876  1.00  0.00    -0.210 C  
HETATM    8  C   UNL     1      -8.746  14.704  67.770  1.00  0.00    -0.172 C  
ENDROOT
BRANCH   6   9
HETATM    9  N   UNL     1      -8.614  12.474  66.663  1.00  0.00    -0.115 N  
HETATM   10  N   UNL     1      -9.564  11.522  66.385  1.00  0.00    -0.203 NA 
HETATM   11  C   UNL     1      -9.273  10.261  66.454  1.00  0.00    -0.158 C  
HETATM   12  O   UNL     1      -6.463  13.007  67.350  1.00  0.00    -0.166 OA 
HETATM   13  C   UNL     1      -7.939   9.770  66.856  1.00  0.00    -0.105 A  
HETATM   14  C   UNL     1      -7.602   8.413  66.909  1.00  0.00    -0.091 A  
HETATM   15  C   UNL     1      -7.322  12.167  67.079  1.00  0.00    -0.072 C  
HETATM   16  C   UNL     1      -6.304   8.028  67.261  1.00  0.00    -0.056 A  
HETATM   17  C   UNL     1      -6.981  10.733  67.167  1.00  0.00    -0.091 A  
HETATM   18  C   UNL     1      -5.348   8.992  67.576  1.00  0.00    -0.034 A  
HETATM   19  C   UNL     1      -5.684  10.343  67.534  1.00  0.00    -0.044 A  
BRANCH  11  20
HETATM   20  C   UNL     1     -10.367   9.285  66.039  1.00  0.00    -0.009 C  
BRANCH  20  21
HETATM   21  C   UNL     1     -10.282   7.890  66.621  1.00  0.00    -0.303 A  
HETATM   22 CL   UNL     1      -9.633   3.842  68.553  1.00  0.00    -0.208 Cl 
HETATM   23  C   UNL     1      -9.914   6.779  65.847  1.00  0.00     0.503 A  
HETATM   24  C   UNL     1     -10.250   6.467  68.604  1.00  0.00    -0.192 A  
HETATM   25  C   UNL     1      -9.730   5.526  66.443  1.00  0.00    -0.182 A  
HETATM   26  C   UNL     1     -10.439   7.718  68.007  1.00  0.00    -0.244 A  
HETATM   27  C   UNL     1      -9.896   5.376  67.818  1.00  0.00    -0.143 A  
ENDBRANCH  20  21
ENDBRANCH  11  20
ENDBRANCH   6   9
TORSDOF 3
ENDMDL
MODEL      194
REMARK 921   NORMALIZED FREE ENERGY PREDICTED BY IDOCK:   -0.28 KCAL/MOL
REMARK 922        TOTAL FREE ENERGY PREDICTED BY IDOCK:   -1.11 KCAL/MOL
REMARK 923 INTER-LIGAND FREE ENERGY PREDICTED BY IDOCK:   -0.88 KCAL/MOL
REMARK 924 INTRA-LIGAND FREE ENERGY PREDICTED BY IDOCK:   -0.23 KCAL/MOL
REMARK 927      BINDING AFFINITY PREDICTED BY RF-SCORE:    0.00 PKD
ROOT
HETATM    1  C   UNL     1      -6.429  11.167  63.414  1.00  0.00     0.909 C  
HETATM    2  N   UNL     1      -6.794   9.875  64.007  1.00  0.00    -0.122 NA 
HETATM    3  C   UNL     1      -5.723   9.456  64.921  1.00  0.00    -0.063 C  
HETATM    4  C   UNL     1      -5.935   8.126  65.641  1.00  0.00    -0.041 C  
HETATM    5  C   UNL     1      -7.042   8.186  66.691  1.00  0.00    -0.077 C  
HETATM    6  C   UNL     1      -8.442   7.875  66.136  1.00  0.00    -0.133 C  
HETATM    7  C   UNL     1      -8.132   9.949  64.612  1.00  0.00    -0.152 C  
HETATM    8  C   UNL     1      -8.771   8.568  64.805  1.00  0.00    -0.055 C  
ENDROOT
BRANCH   6   9
HETATM    9  N   UNL     1      -8.711   6.417  66.062  1.00  0.00    -0.149 N  
HETATM   10  N   UNL     1      -9.152   5.808  67.211  1.00  0.00    -0.111 NA 
HETATM   11  C   UNL     1      -9.464   4.550  67.213  1.00  0.00    -0.162 C  
HETATM   12  O   UNL     1      -8.105   6.262  63.828  1.00  0.00    -0.114 OA 
HETATM   13  C   UNL     1      -9.340   3.695  66.015  1.00  0.00    -0.171 A  
HETATM   14  C   UNL     1      -9.697   2.342  65.994  1.00  0.00     0.493 A  
HETATM   15  C   UNL     1      -8.517   5.737  64.862  1.00  0.00    -0.103 C  
HETATM   16  C   UNL     1      -9.588   1.608  64.808  1.00  0.00     0.010 A  
HETATM   17  C   UNL     1      -8.863   4.302  64.854  1.00  0.00    -0.138 A  
HETATM   18  C   UNL     1      -9.107   2.215  63.649  1.00  0.00    -0.096 A  
HETATM   19  C   UNL     1      -8.741   3.559  63.671  1.00  0.00    -0.094 A  
BRANCH  11  20
HETATM   20  C   UNL     1     -10.030   3.989  68.512  1.00  0.00     0.080 C  
BRANCH  20  21
HETATM   21  C   UNL     1      -9.023   3.564  69.558  1.00  0.00    -0.178 A  
HETATM   22 CL   UNL     1      -5.956   2.733  72.790  1.00  0.00    -0.008 Cl 
HETATM   23  C   UNL     1      -7.720   3.166  69.222  1.00  0.00    -0.048 A  
HETATM   24  C   UNL     1      -8.410   3.435  71.917  1.00  0.00    -0.073 A  
HETATM   25  C   UNL     1      -6.779   2.894  70.222  1.00  0.00    -0.033 A  
HETATM   26  C   UNL     1      -9.351   3.702  70.918  1.00  0.00    -0.218 A  
HETATM   27  C   UNL     1      -7.126   3.032  71.564  1.00  0.00    -0.032 A  
ENDBRANCH  20  21
ENDBRANCH  11  20
ENDBRANCH   6   9
TORSDOF 3
ENDMDL
MODEL      195
REMARK 921   NORMALIZED FREE ENERGY PREDICTED BY IDOCK:    1.15 KCAL/MOL
REMARK 922        TOTAL FREE ENERGY PREDICTED BY IDOCK:    0.58 KCAL/MOL
REMARK 923 INTER-LIGAND FREE ENERGY PREDICTED BY IDOCK:    1.40 KCAL/MOL
REMARK 924 INTRA-LIGAND FREE ENERGY PREDICTED BY IDOCK:   -0.82 KCAL/MOL
REMARK 927      BINDING AFFINITY PREDICTED BY RF-SCORE:    0.00 PKD
ROOT
HETATM    1  C   UNL     1     -10.603   1.467  67.770  1.00  0.00     3.114 C  
HETATM    2  N   UNL     1      -9.666   2.517  67.349  1.00  0.00     0.142 NA 
HETATM    3  C   UNL     1      -8.393   2.325  68.055  1.00  0.00    -0.064 C  
HETATM    4  C   UNL     1      -7.287   3.328  67.735  1.00  0.00    -0.054 C  
HETATM    5  C   UNL     1      -6.726   3.166  66.324  1.00  0.00    -0.048 C  
HETATM    6  C   UNL     1      -7.486   3.972  65.257  1.00  0.00    -0.080 C  
HETATM    7  C   UNL     1      -9.563   2.552  65.882  1.00  0.00     0.256 C  
HETATM    8  C   UNL     1      -9.017   3.887  65.360  1.00  0.00    -0.132 C  
ENDROOT
BRANCH   6   9
HETATM    9  N   UNL     1      -7.031   5.383  65.182  1.00  0.00    -0.056 N  
HETATM   10  N   UNL     1      -6.713   5.997  66.368  1.00  0.00    -0.058 NA 
HETATM   11  C   UNL     1      -6.254   7.209  66.382  1.00  0.00    -0.040 C  
HETATM   12  O   UNL     1      -7.236   5.488  62.873  1.00  0.00    -0.040 OA 
HETATM   13  C   UNL     1      -6.073   8.007  65.152  1.00  0.00    -0.045 A  
HETATM   14  C   UNL     1      -5.553   9.307  65.149  1.00  0.00    -0.053 A  
HETATM   15  C   UNL     1      -6.939   6.016  63.945  1.00  0.00    -0.050 C  
HETATM   16  C   UNL     1      -5.375   9.985  63.938  1.00  0.00    -0.101 A  
HETATM   17  C   UNL     1      -6.422   7.399  63.949  1.00  0.00    -0.048 A  
HETATM   18  C   UNL     1      -5.728   9.377  62.735  1.00  0.00    -0.085 A  
HETATM   19  C   UNL     1      -6.255   8.087  62.738  1.00  0.00    -0.081 A  
BRANCH  11  20
HETATM   20  C   UNL     1      -5.845   7.768  67.739  1.00  0.00    -0.040 C  
BRANCH  20  21
HETATM   21  C   UNL     1      -6.948   7.926  68.763  1.00  0.00    -0.066 A  
HETATM   22 CL   UNL     1     -10.032   8.767  71.976  1.00  0.00    -0.399 Cl 
HETATM   23  C   UNL     1      -7.029   7.117  69.906  1.00  0.00    -0.057 A  
HETATM   24  C   UNL     1      -8.803   9.259  69.626  1.00  0.00    -0.159 A  
HETATM   25  C   UNL     1      -7.993   7.368  70.889  1.00  0.00    -0.097 A  
HETATM   26  C   UNL     1      -7.843   9.004  68.641  1.00  0.00    -0.101 A  
HETATM   27  C   UNL     1      -8.873   8.439  70.747  1.00  0.00    -0.151 A  
ENDBRANCH  20  21
ENDBRANCH  11  20
ENDBRANCH   6   9
TORSDOF 3
ENDMDL
MODEL      196
REMARK 921   NORMALIZED FREE ENERGY PREDICTED BY IDOCK:    3.38 KCAL/MOL
REMARK 922        TOTAL FREE ENERGY PREDICTED BY IDOCK:    3.20 KCAL/MOL
REMARK 923 INTER-LIGAND FREE ENERGY PREDICTED BY IDOCK:    2.44 KCAL/MOL
REMARK 924 INTRA-LIGAND FREE ENERGY PREDICTED BY IDOCK:    0.77 KCAL/MOL
REMARK 927      BINDING AFFINITY PREDICTED BY RF-SCORE:    0.00 PKD
ROOT
HETATM    1  C   UNL     1      -7.788  18.046  70.375  1.00  0.00     3.116 C  
HETATM    2  N   UNL     1      -7.864  16.690  69.816  1.00  0.00     0.473 NA 
HETATM    3  C   UNL     1      -9.277  16.315  69.677  1.00  0.00     0.159 C  
HETATM    4  C   UNL     1      -9.552  14.928  69.100  1.00  0.00    -0.172 C  
HETATM    5  C   UNL     1      -9.199  14.819  67.618  1.00  0.00    -0.191 C  
HETATM    6  C   UNL     1      -7.739  14.414  67.356  1.00  0.00    -0.185 C  
HETATM    7  C   UNL     1      -7.074  16.601  68.579  1.00  0.00    -0.172 C  
HETATM    8  C   UNL     1      -6.705  15.157  68.216  1.00  0.00    -0.122 C  
ENDROOT
BRANCH   6   9
HETATM    9  N   UNL     1      -7.536  12.945  67.423  1.00  0.00    -0.162 N  
HETATM   10  N   UNL     1      -6.933  12.453  68.554  1.00  0.00    -0.086 NA 
HETATM   11  C   UNL     1      -6.773  11.177  68.715  1.00  0.00    -0.067 C  
HETATM   12  O   UNL     1      -8.485  12.563  65.340  1.00  0.00     1.080 OA 
HETATM   13  C   UNL     1      -7.191  10.187  67.701  1.00  0.00    -0.088 A  
HETATM   14  C   UNL     1      -7.048   8.804  67.872  1.00  0.00    -0.079 A  
HETATM   15  C   UNL     1      -7.959  12.138  66.370  1.00  0.00     0.272 C  
HETATM   16  C   UNL     1      -7.505   7.928  66.882  1.00  0.00    -0.091 A  
HETATM   17  C   UNL     1      -7.776  10.683  66.539  1.00  0.00    -0.137 A  
HETATM   18  C   UNL     1      -8.087   8.426  65.718  1.00  0.00    -0.117 A  
HETATM   19  C   UNL     1      -8.220   9.802  65.542  1.00  0.00    -0.129 A  
BRANCH  11  20
HETATM   20  C   UNL     1      -6.177  10.725  70.043  1.00  0.00    -0.119 C  
BRANCH  20  21
HETATM   21  C   UNL     1      -6.896   9.601  70.757  1.00  0.00    -0.091 A  
HETATM   22 CL   UNL     1      -8.755   5.951  72.697  1.00  0.00    -0.123 Cl 
HETATM   23  C   UNL     1      -8.143   9.121  70.329  1.00  0.00    -0.156 A  
HETATM   24  C   UNL     1      -6.814   7.802  72.404  1.00  0.00    -0.067 A  
HETATM   25  C   UNL     1      -8.723   8.004  70.940  1.00  0.00    -0.143 A  
HETATM   26  C   UNL     1      -6.238   8.922  71.797  1.00  0.00    -0.072 A  
HETATM   27  C   UNL     1      -8.056   7.347  71.972  1.00  0.00    -0.094 A  
ENDBRANCH  20  21
ENDBRANCH  11  20
ENDBRANCH   6   9
TORSDOF 3
ENDMDL
MODEL      197
REMARK 921   NORMALIZED FREE ENERGY PREDICTED BY IDOCK:    4.05 KCAL/MOL
REMARK 922        TOTAL FREE ENERGY PREDICTED BY IDOCK:    3.99 KCAL/MOL
REMARK 923 INTER-LIGAND FREE ENERGY PREDICTED BY IDOCK:    3.02 KCAL/MOL
REMARK 924 INTRA-LIGAND FREE ENERGY PREDICTED BY IDOCK:    0.97 KCAL/MOL
REMARK 927      BINDING AFFINITY PREDICTED BY RF-SCORE:    0.00 PKD
ROOT
HETATM    1  C   UNL     1     -14.160  16.022  73.922  1.00  0.00     2.051 C  
HETATM    2  N   UNL     1     -13.359  15.565  72.780  1.00  0.00    -0.478 NA 
HETATM    3  C   UNL     1     -11.937  15.638  73.141  1.00  0.00    -0.472 C  
HETATM    4  C   UNL     1     -10.946  15.191  72.068  1.00  0.00     0.156 C  
HETATM    5  C   UNL     1     -10.981  13.686  71.815  1.00  0.00     4.010 C  
HETATM    6  C   UNL     1     -12.009  13.257  70.755  1.00  0.00    -0.103 C  
HETATM    7  C   UNL     1     -13.817  14.242  72.330  1.00  0.00    -0.524 C  
HETATM    8  C   UNL     1     -13.386  13.925  70.893  1.00  0.00    -0.131 C  
ENDROOT
BRANCH   6   9
HETATM    9  N   UNL     1     -11.485  13.390  69.371  1.00  0.00    -0.280 N  
HETATM   10  N   UNL     1     -10.386  12.633  69.049  1.00  0.00    -0.023 NA 
HETATM   11  C   UNL     1      -9.905  12.649  67.845  1.00  0.00    -0.218 C  
HETATM   12  O   UNL     1     -13.087  14.950  68.750  1.00  0.00     1.004 OA 
HETATM   13  C   UNL     1     -10.472  13.488  66.770  1.00  0.00    -0.273 A  
HETATM   14  C   UNL     1      -9.979  13.496  65.460  1.00  0.00    -0.238 A  
HETATM   15  C   UNL     1     -12.112  14.250  68.473  1.00  0.00    -0.260 C  
HETATM   16  C   UNL     1     -10.595  14.289  64.486  1.00  0.00    -0.232 A  
HETATM   17  C   UNL     1     -11.568  14.281  67.101  1.00  0.00    -0.402 A  
HETATM   18  C   UNL     1     -11.690  15.085  64.820  1.00  0.00    -0.370 A  
HETATM   19  C   UNL     1     -12.175  15.086  66.126  1.00  0.00     0.241 A  
BRANCH  11  20
HETATM   20  C   UNL     1      -8.741  11.705  67.563  1.00  0.00    -0.156 C  
BRANCH  20  21
HETATM   21  C   UNL     1      -8.733  11.033  66.208  1.00  0.00    -0.178 A  
HETATM   22 CL   UNL     1      -8.648   8.626  62.368  1.00  0.00    -0.196 Cl 
HETATM   23  C   UNL     1      -7.625  11.095  65.349  1.00  0.00     0.369 A  
HETATM   24  C   UNL     1      -9.792   9.470  64.660  1.00  0.00     0.268 A  
HETATM   25  C   UNL     1      -7.607  10.364  64.155  1.00  0.00    -0.017 A  
HETATM   26  C   UNL     1      -9.812  10.205  65.850  1.00  0.00    -0.308 A  
HETATM   27  C   UNL     1      -8.688   9.553  63.817  1.00  0.00    -0.217 A  
ENDBRANCH  20  21
ENDBRANCH  11  20
ENDBRANCH   6   9
TORSDOF 3
ENDMDL
MODEL      198
REMARK 921   NORMALIZED FREE ENERGY PREDICTED BY IDOCK:    5.90 KCAL/MOL
REMARK 922        TOTAL FREE ENERGY PREDICTED BY IDOCK:    6.17 KCAL/MOL
REMARK 923 INTER-LIGAND FREE ENERGY PREDICTED BY IDOCK:    6.75 KCAL/MOL
REMARK 924 INTRA-LIGAND FREE ENERGY PREDICTED BY IDOCK:   -0.59 KCAL/MOL
REMARK 927      BINDING AFFINITY PREDICTED BY RF-SCORE:    0.00 PKD
ROOT
HETATM    1  C   UNL     1      -5.188  21.207  68.180  1.00  0.00    -0.273 C  
HETATM    2  N   UNL     1      -6.093  20.107  68.533  1.00  0.00    -0.267 NA 
HETATM    3  C   UNL     1      -5.408  19.215  69.478  1.00  0.00    -0.193 C  
HETATM    4  C   UNL     1      -6.207  18.008  69.964  1.00  0.00    -0.037 C  
HETATM    5  C   UNL     1      -7.358  18.390  70.892  1.00  0.00     3.601 C  
HETATM    6  C   UNL     1      -8.671  18.704  70.156  1.00  0.00     2.061 C  
HETATM    7  C   UNL     1      -7.383  20.635  69.001  1.00  0.00     0.580 C  
HETATM    8  C   UNL     1      -8.511  19.600  68.917  1.00  0.00    -0.230 C  
ENDROOT
BRANCH   6   9
HETATM    9  N   UNL     1      -9.449  17.481  69.837  1.00  0.00     0.942 N  
HETATM   10  N   UNL     1      -8.983  16.701  68.807  1.00  0.00    -0.248 NA 
HETATM   11  C   UNL     1      -9.573  15.587  68.505  1.00  0.00    -0.203 C  
HETATM   12  O   UNL     1     -11.031  17.869  71.489  1.00  0.00     1.517 OA 
HETATM   13  C   UNL     1     -10.779  15.105  69.209  1.00  0.00    -0.250 A  
HETATM   14  C   UNL     1     -11.412  13.892  68.912  1.00  0.00    -0.340 A  
HETATM   15  C   UNL     1     -10.589  17.172  70.575  1.00  0.00     0.910 C  
HETATM   16  C   UNL     1     -12.527  13.486  69.652  1.00  0.00    -0.107 A  
HETATM   17  C   UNL     1     -11.273  15.909  70.235  1.00  0.00    -0.388 A  
HETATM   18  C   UNL     1     -13.022  14.293  70.674  1.00  0.00    -0.318 A  
HETATM   19  C   UNL     1     -12.400  15.505  70.965  1.00  0.00    -0.471 A  
BRANCH  11  20
HETATM   20  C   UNL     1      -8.927  14.748  67.408  1.00  0.00    -0.200 C  
BRANCH  20  21
HETATM   21  C   UNL     1      -8.222  13.486  67.853  1.00  0.00    -0.168 A  
HETATM   22 CL   UNL     1      -6.466   9.475  69.026  1.00  0.00    -0.046 Cl 
HETATM   23  C   UNL     1      -8.167  13.095  69.200  1.00  0.00     0.520 A  
HETATM   24  C   UNL     1      -7.170  11.370  67.240  1.00  0.00    -0.119 A  
HETATM   25  C   UNL     1      -7.610  11.863  69.562  1.00  0.00     0.480 A  
HETATM   26  C   UNL     1      -7.722  12.603  66.879  1.00  0.00     0.080 A  
HETATM   27  C   UNL     1      -7.117  11.005  68.581  1.00  0.00    -0.080 A  
ENDBRANCH  20  21
ENDBRANCH  11  20
ENDBRANCH   6   9
TORSDOF 3
ENDMDL
MODEL      199
REMARK 921   NORMALIZED FREE ENERGY PREDICTED BY IDOCK:   10.05 KCAL/MOL
REMARK 922        TOTAL FREE ENERGY PREDICTED BY IDOCK:   11.03 KCAL/MOL
REMARK 923 INTER-LIGAND FREE ENERGY PREDICTED BY IDOCK:   11.20 KCAL/MOL
REMARK 924 INTRA-LIGAND FREE ENERGY PREDICTED BY IDOCK:   -0.16 KCAL/MOL
REMARK 927      BINDING AFFINITY PREDICTED BY RF-SCORE:    0.00 PKD
ROOT
HETATM    1  C   UNL     1      -6.761  18.868  71.259  1.00  0.00     1.969 C  
HETATM    2  N   UNL     1      -6.762  17.525  70.665  1.00  0.00     1.513 NA 
HETATM    3  C   UNL     1      -8.152  17.121  70.415  1.00  0.00     3.311 C  
HETATM    4  C   UNL     1      -8.349  15.743  69.787  1.00  0.00     0.139 C  
HETATM    5  C   UNL     1      -7.888  15.679  68.332  1.00  0.00    -0.127 C  
HETATM    6  C   UNL     1      -6.403  15.316  68.167  1.00  0.00    -0.128 C  
HETATM    7  C   UNL     1      -5.883  17.486  69.487  1.00  0.00    -0.235 C  
HETATM    8  C   UNL     1      -5.453  16.061  69.118  1.00  0.00    -0.111 C  
ENDROOT
BRANCH   6   9
HETATM    9  N   UNL     1      -6.169  13.851  68.215  1.00  0.00    -0.099 N  
HETATM   10  N   UNL     1      -6.362  13.231  69.424  1.00  0.00    -0.109 NA 
HETATM   11  C   UNL     1      -6.234  11.945  69.534  1.00  0.00    -0.117 C  
HETATM   12  O   UNL     1      -5.584  13.716  65.973  1.00  0.00     3.972 OA 
HETATM   13  C   UNL     1      -5.850  11.081  68.399  1.00  0.00    -0.042 A  
HETATM   14  C   UNL     1      -5.733   9.690  68.496  1.00  0.00    -0.039 A  
HETATM   15  C   UNL     1      -5.779  13.174  67.062  1.00  0.00     0.689 C  
HETATM   16  C   UNL     1      -5.404   8.935  67.366  1.00  0.00    -0.034 A  
HETATM   17  C   UNL     1      -5.624  11.710  67.177  1.00  0.00    -0.111 A  
HETATM   18  C   UNL     1      -5.174   9.566  66.144  1.00  0.00    -0.039 A  
HETATM   19  C   UNL     1      -5.280  10.952  66.048  1.00  0.00    -0.129 A  
BRANCH  11  20
HETATM   20  C   UNL     1      -6.557  11.342  70.896  1.00  0.00     1.138 C  
BRANCH  20  21
HETATM   21  C   UNL     1      -7.344  10.049  70.890  1.00  0.00     0.417 A  
HETATM   22 CL   UNL     1      -9.993   6.381  71.149  1.00  0.00    -0.199 Cl 
HETATM   23  C   UNL     1      -6.936   8.923  71.621  1.00  0.00    -0.058 A  
HETATM   24  C   UNL     1      -9.407   8.877  70.314  1.00  0.00    -0.208 A  
HETATM   25  C   UNL     1      -7.748   7.784  71.686  1.00  0.00    -0.091 A  
HETATM   26  C   UNL     1      -8.592  10.012  70.244  1.00  0.00     0.068 A  
HETATM   27  C   UNL     1      -8.980   7.767  71.036  1.00  0.00    -0.142 A  
ENDBRANCH  20  21
ENDBRANCH  11  20
ENDBRANCH   6   9
TORSDOF 3
ENDMDL
MODEL      200
REMARK 921   NORMALIZED FREE ENERGY PREDICTED BY IDOCK:   10.52 KCAL/MOL
REMARK 922        TOTAL FREE ENERGY PREDICTED BY IDOCK:   11.59 KCAL/MOL
REMARK 923 INTER-LIGAND FREE ENERGY PREDICTED BY IDOCK:    8.16 KCAL/MOL
REMARK 924 INTRA-LIGAND FREE ENERGY PREDICTED BY IDOCK:    3.43 KCAL/MOL
REMARK 927      BINDING AFFINITY PREDICTED BY RF-SCORE:    0.00 PKD
ROOT
HETATM    1  C   UNL     1     -13.231  10.733  64.539  1.00  0.00     5.962 C  
HETATM    2  N   UNL     1     -12.110  11.156  65.388  1.00  0.00     0.767 NA 
HETATM    3  C   UNL     1     -12.307  10.611  66.737  1.00  0.00     4.104 C  
HETATM    4  C   UNL     1     -11.226  10.945  67.763  1.00  0.00    -0.384 C  
HETATM    5  C   UNL     1      -9.901  10.239  67.484  1.00  0.00    -0.204 C  
HETATM    6  C   UNL     1      -8.966  11.020  66.546  1.00  0.00    -0.173 C  
HETATM    7  C   UNL     1     -10.829  10.804  64.757  1.00  0.00     0.025 C  
HETATM    8  C   UNL     1      -9.654  11.620  65.310  1.00  0.00    -0.220 C  
ENDROOT
BRANCH   6   9
HETATM    9  N   UNL     1      -8.168  12.045  67.266  1.00  0.00    -0.166 N  
HETATM   10  N   UNL     1      -8.276  13.340  66.822  1.00  0.00     0.054 NA 
HETATM   11  C   UNL     1      -7.657  14.301  67.433  1.00  0.00    -0.163 C  
HETATM   12  O   UNL     1      -7.243  10.511  68.741  1.00  0.00    -0.074 OA 
HETATM   13  C   UNL     1      -6.786  14.071  68.605  1.00  0.00    -0.103 A  
HETATM   14  C   UNL     1      -6.132  15.101  69.291  1.00  0.00    -0.109 A  
HETATM   15  C   UNL     1      -7.365  11.669  68.340  1.00  0.00    -0.096 C  
HETATM   16  C   UNL     1      -5.356  14.807  70.417  1.00  0.00    -0.120 A  
HETATM   17  C   UNL     1      -6.650  12.755  69.040  1.00  0.00    -0.099 A  
HETATM   18  C   UNL     1      -5.218  13.490  70.850  1.00  0.00    -0.141 A  
HETATM   19  C   UNL     1      -5.860  12.462  70.161  1.00  0.00    -0.163 A  
BRANCH  11  20
HETATM   20  C   UNL     1      -7.912  15.713  66.920  1.00  0.00    -0.278 C  
BRANCH  20  21
HETATM   21  C   UNL     1      -7.407  16.846  67.786  1.00  0.00    -0.169 A  
HETATM   22 CL   UNL     1      -6.331  20.348  70.454  1.00  0.00    -0.269 Cl 
HETATM   23  C   UNL     1      -6.869  18.021  67.241  1.00  0.00    -0.203 A  
HETATM   24  C   UNL     1      -7.266  17.859  70.003  1.00  0.00     1.071 A  
HETATM   25  C   UNL     1      -6.521  19.096  68.068  1.00  0.00    -0.248 A  
HETATM   26  C   UNL     1      -7.608  16.784  69.177  1.00  0.00    -0.181 A  
HETATM   27  C   UNL     1      -6.724  19.012  69.444  1.00  0.00    -0.266 A  
ENDBRANCH  20  21
ENDBRANCH  11  20
ENDBRANCH   6   9
TORSDOF 3
ENDMDL
MODEL      201
REMARK 921   NORMALIZED FREE ENERGY PREDICTED BY IDOCK:   11.29 KCAL/MOL
REMARK 922        TOTAL FREE ENERGY PREDICTED BY IDOCK:   12.50 KCAL/MOL
REMARK 923 INTER-LIGAND FREE ENERGY PREDICTED BY IDOCK:   12.26 KCAL/MOL
REMARK 924 INTRA-LIGAND FREE ENERGY PREDICTED BY IDOCK:    0.23 KCAL/MOL
REMARK 927      BINDING AFFINITY PREDICTED BY RF-SCORE:    0.00 PKD
ROOT
HETATM    1  C   UNL     1      -7.396  20.234  63.569  1.00  0.00     2.225 C  
HETATM    2  N   UNL     1      -7.531  19.543  64.857  1.00  0.00     0.099 NA 
HETATM    3  C   UNL     1      -7.407  20.529  65.938  1.00  0.00    -0.063 C  
HETATM    4  C   UNL     1      -7.530  19.988  67.361  1.00  0.00    -0.314 C  
HETATM    5  C   UNL     1      -8.946  19.535  67.705  1.00  0.00    -0.375 C  
HETATM    6  C   UNL     1      -9.235  18.069  67.342  1.00  0.00    -0.253 C  
HETATM    7  C   UNL     1      -8.767  18.746  64.884  1.00  0.00     3.615 C  
HETATM    8  C   UNL     1      -8.738  17.645  65.951  1.00  0.00     0.083 C  
ENDROOT
BRANCH   6   9
HETATM    9  N   UNL     1      -8.771  17.123  68.388  1.00  0.00    -0.239 N  
HETATM   10  N   UNL     1      -9.739  16.506  69.141  1.00  0.00    -0.259 NA 
HETATM   11  C   UNL     1      -9.418  15.624  70.035  1.00  0.00     0.138 C  
HETATM   12  O   UNL     1      -6.525  17.454  67.908  1.00  0.00    -0.152 OA 
HETATM   13  C   UNL     1      -8.017  15.253  70.322  1.00  0.00     0.696 A  
HETATM   14  C   UNL     1      -7.656  14.284  71.265  1.00  0.00     3.239 A  
HETATM   15  C   UNL     1      -7.408  16.897  68.561  1.00  0.00    -0.206 C  
HETATM   16  C   UNL     1      -6.308  13.958  71.452  1.00  0.00     0.541 A  
HETATM   17  C   UNL     1      -7.029  15.899  69.581  1.00  0.00    -0.147 A  
HETATM   18  C   UNL     1      -5.321  14.608  70.713  1.00  0.00    -0.136 A  
HETATM   19  C   UNL     1      -5.678  15.581  69.781  1.00  0.00    -0.129 A  
BRANCH  11  20
HETATM   20  C   UNL     1     -10.569  14.929  70.753  1.00  0.00     0.191 C  
BRANCH  20  21
HETATM   21  C   UNL     1     -11.058  13.634  70.144  1.00  0.00     0.289 A  
HETATM   22 CL   UNL     1     -12.786  10.006  68.046  1.00  0.00     4.507 Cl 
HETATM   23  C   UNL     1     -11.986  12.806  70.794  1.00  0.00    -0.085 A  
HETATM   24  C   UNL     1     -11.205  12.188  68.183  1.00  0.00    -0.320 A  
HETATM   25  C   UNL     1     -12.506  11.676  70.151  1.00  0.00    -0.209 A  
HETATM   26  C   UNL     1     -10.682  13.313  68.828  1.00  0.00    -0.253 A  
HETATM   27  C   UNL     1     -12.117  11.374  68.848  1.00  0.00    -0.219 A  
ENDBRANCH  20  21
ENDBRANCH  11  20
ENDBRANCH   6   9
TORSDOF 3
ENDMDL
MODEL      202
REMARK 921   NORMALIZED FREE ENERGY PREDICTED BY IDOCK:   17.09 KCAL/MOL
REMARK 922        TOTAL FREE ENERGY PREDICTED BY IDOCK:   19.31 KCAL/MOL
REMARK 923 INTER-LIGAND FREE ENERGY PREDICTED BY IDOCK:   19.76 KCAL/MOL
REMARK 924 INTRA-LIGAND FREE ENERGY PREDICTED BY IDOCK:   -0.45 KCAL/MOL
REMARK 927      BINDING AFFINITY PREDICTED BY RF-SCORE:    0.00 PKD
ROOT
HETATM    1  C   UNL     1     -13.374  10.512  64.556  1.00  0.00     8.232 C  
HETATM    2  N   UNL     1     -12.229  10.926  65.377  1.00  0.00     1.754 NA 
HETATM    3  C   UNL     1     -12.304  10.239  66.673  1.00  0.00     5.656 C  
HETATM    4  C   UNL     1     -11.182  10.544  67.662  1.00  0.00    -0.338 C  
HETATM    5  C   UNL     1      -9.837   9.959  67.237  1.00  0.00    -0.228 C  
HETATM    6  C   UNL     1      -9.014  10.889  66.331  1.00  0.00    -0.175 C  
HETATM    7  C   UNL     1     -10.972  10.724  64.640  1.00  0.00     0.203 C  
HETATM    8  C   UNL     1      -9.816  11.559  65.204  1.00  0.00    -0.294 C  
ENDROOT
BRANCH   6   9
HETATM    9  N   UNL     1      -8.236  11.890  67.104  1.00  0.00    -0.165 N  
HETATM   10  N   UNL     1      -8.444  13.211  66.794  1.00  0.00    -0.062 NA 
HETATM   11  C   UNL     1      -7.847  14.147  67.463  1.00  0.00    -0.192 C  
HETATM   12  O   UNL     1      -7.137  10.286  68.370  1.00  0.00    -0.075 OA 
HETATM   13  C   UNL     1      -6.897  13.864  68.558  1.00  0.00    -0.098 A  
HETATM   14  C   UNL     1      -6.264  14.864  69.306  1.00  0.00    -0.110 A  
HETATM   15  C   UNL     1      -7.351  11.466  68.092  1.00  0.00    -0.092 C  
HETATM   16  C   UNL     1      -5.407  14.516  70.355  1.00  0.00    -0.113 A  
HETATM   17  C   UNL     1      -6.659  12.524  68.855  1.00  0.00    -0.095 A  
HETATM   18  C   UNL     1      -5.167  13.174  70.649  1.00  0.00    -0.135 A  
HETATM   19  C   UNL     1      -5.788  12.178  69.899  1.00  0.00    -0.140 A  
BRANCH  11  20
HETATM   20  C   UNL     1      -8.214  15.583  67.104  1.00  0.00    -0.246 C  
BRANCH  20  21
HETATM   21  C   UNL     1      -9.544  15.785  66.411  1.00  0.00    -0.311 A  
HETATM   22 CL   UNL     1     -13.319  16.702  64.076  1.00  0.00     4.552 Cl 
HETATM   23  C   UNL     1     -10.595  16.499  67.004  1.00  0.00    -0.255 A  
HETATM   24  C   UNL     1     -10.857  15.637  64.358  1.00  0.00     0.086 A  
HETATM   25  C   UNL     1     -11.767  16.767  66.287  1.00  0.00     1.637 A  
HETATM   26  C   UNL     1      -9.688  15.364  65.076  1.00  0.00     0.165 A  
HETATM   27  C   UNL     1     -11.892  16.339  64.967  1.00  0.00     0.606 A  
ENDBRANCH  20  21
ENDBRANCH  11  20
ENDBRANCH   6   9
TORSDOF 3
ENDMDL
MODEL      203
REMARK 921   NORMALIZED FREE ENERGY PREDICTED BY IDOCK:   18.06 KCAL/MOL
REMARK 922        TOTAL FREE ENERGY PREDICTED BY IDOCK:   20.46 KCAL/MOL
REMARK 923 INTER-LIGAND FREE ENERGY PREDICTED BY IDOCK:   20.76 KCAL/MOL
REMARK 924 INTRA-LIGAND FREE ENERGY PREDICTED BY IDOCK:   -0.31 KCAL/MOL
REMARK 927      BINDING AFFINITY PREDICTED BY RF-SCORE:    0.00 PKD
ROOT
HETATM    1  C   UNL     1     -12.358  18.953  65.868  1.00  0.00     6.575 C  
HETATM    2  N   UNL     1     -11.723  17.693  66.275  1.00  0.00     2.029 NA 
HETATM    3  C   UNL     1     -12.662  16.941  67.118  1.00  0.00     4.739 C  
HETATM    4  C   UNL     1     -12.172  15.590  67.633  1.00  0.00     0.662 C  
HETATM    5  C   UNL     1     -12.054  14.540  66.530  1.00  0.00    -0.330 C  
HETATM    6  C   UNL     1     -10.690  14.534  65.821  1.00  0.00    -0.315 C  
HETATM    7  C   UNL     1     -11.228  16.965  65.097  1.00  0.00     0.157 C  
HETATM    8  C   UNL     1     -10.156  15.927  65.451  1.00  0.00    -0.296 C  
ENDROOT
BRANCH   6   9
HETATM    9  N   UNL     1      -9.670  13.748  66.559  1.00  0.00    -0.286 N  
HETATM   10  N   UNL     1     -10.027  13.276  67.798  1.00  0.00    -0.218 NA 
HETATM   11  C   UNL     1      -9.214  12.533  68.481  1.00  0.00    -0.070 C  
HETATM   12  O   UNL     1      -8.079  13.947  64.882  1.00  0.00     5.295 OA 
HETATM   13  C   UNL     1      -7.864  12.176  67.999  1.00  0.00    -0.145 A  
HETATM   14  C   UNL     1      -6.985  11.353  68.712  1.00  0.00    -0.097 A  
HETATM   15  C   UNL     1      -8.423  13.517  65.983  1.00  0.00     1.225 C  
HETATM   16  C   UNL     1      -5.737  11.027  68.170  1.00  0.00    -0.046 A  
HETATM   17  C   UNL     1      -7.486  12.677  66.755  1.00  0.00     0.302 A  
HETATM   18  C   UNL     1      -5.358  11.533  66.928  1.00  0.00    -0.118 A  
HETATM   19  C   UNL     1      -6.228  12.360  66.221  1.00  0.00     1.645 A  
BRANCH  11  20
HETATM   20  C   UNL     1      -9.737  11.984  69.803  1.00  0.00     1.721 C  
BRANCH  20  21
HETATM   21  C   UNL     1     -10.297  10.578  69.774  1.00  0.00    -0.211 A  
HETATM   22 CL   UNL     1     -11.615   6.245  69.941  1.00  0.00    -0.472 Cl 
HETATM   23  C   UNL     1     -10.190   9.755  68.643  1.00  0.00    -0.210 A  
HETATM   24  C   UNL     1     -11.236   8.693  71.008  1.00  0.00    -0.321 A  
HETATM   25  C   UNL     1     -10.613   8.421  68.692  1.00  0.00    -0.149 A  
HETATM   26  C   UNL     1     -10.818  10.027  70.958  1.00  0.00    -0.186 A  
HETATM   27  C   UNL     1     -11.131   7.895  69.874  1.00  0.00    -0.120 A  
ENDBRANCH  20  21
ENDBRANCH  11  20
ENDBRANCH   6   9
TORSDOF 3
ENDMDL
MODEL      204
REMARK 921   NORMALIZED FREE ENERGY PREDICTED BY IDOCK:   25.57 KCAL/MOL
REMARK 922        TOTAL FREE ENERGY PREDICTED BY IDOCK:   29.28 KCAL/MOL
REMARK 923 INTER-LIGAND FREE ENERGY PREDICTED BY IDOCK:   27.58 KCAL/MOL
REMARK 924 INTRA-LIGAND FREE ENERGY PREDICTED BY IDOCK:    1.70 KCAL/MOL
REMARK 927      BINDING AFFINITY PREDICTED BY RF-SCORE:    0.00 PKD
ROOT
HETATM    1  C   UNL     1      -8.067  16.350  64.433  1.00  0.00     9.689 C  
HETATM    2  N   UNL     1      -8.782  15.424  65.319  1.00  0.00     1.461 NA 
HETATM    3  C   UNL     1      -9.994  16.087  65.817  1.00  0.00    -0.351 C  
HETATM    4  C   UNL     1     -10.874  15.265  66.756  1.00  0.00    -0.312 C  
HETATM    5  C   UNL     1     -11.586  14.113  66.049  1.00  0.00    -0.364 C  
HETATM    6  C   UNL     1     -10.770  12.811  66.005  1.00  0.00    -0.272 C  
HETATM    7  C   UNL     1      -9.011  14.140  64.641  1.00  0.00     3.672 C  
HETATM    8  C   UNL     1      -9.293  12.995  65.621  1.00  0.00     0.198 C  
ENDROOT
BRANCH   6   9
HETATM    9  N   UNL     1     -10.904  12.015  67.252  1.00  0.00    -0.235 N  
HETATM   10  N   UNL     1     -10.877  12.708  68.437  1.00  0.00    -0.235 NA 
HETATM   11  C   UNL     1     -11.046  12.093  69.565  1.00  0.00    -0.050 C  
HETATM   12  O   UNL     1     -11.065   9.993  66.125  1.00  0.00     0.266 OA 
HETATM   13  C   UNL     1     -11.245  10.632  69.655  1.00  0.00    -0.351 A  
HETATM   14  C   UNL     1     -11.455   9.957  70.863  1.00  0.00    -0.456 A  
HETATM   15  C   UNL     1     -11.056  10.633  67.177  1.00  0.00    -0.196 C  
HETATM   16  C   UNL     1     -11.675   8.576  70.863  1.00  0.00    -0.274 A  
HETATM   17  C   UNL     1     -11.243   9.921  68.457  1.00  0.00    -0.129 A  
HETATM   18  C   UNL     1     -11.670   7.865  69.664  1.00  0.00     0.596 A  
HETATM   19  C   UNL     1     -11.450   8.533  68.461  1.00  0.00     1.036 A  
BRANCH  11  20
HETATM   20  C   UNL     1     -11.090  12.962  70.816  1.00  0.00     2.050 C  
BRANCH  20  21
HETATM   21  C   UNL     1     -10.562  14.373  70.675  1.00  0.00     0.818 A  
HETATM   22 CL   UNL     1      -8.569  18.415  70.189  1.00  0.00     1.939 Cl 
HETATM   23  C   UNL     1     -10.369  15.213  71.782  1.00  0.00     1.435 A  
HETATM   24  C   UNL     1      -9.514  16.065  69.261  1.00  0.00    -0.245 A  
HETATM   25  C   UNL     1      -9.769  16.468  71.628  1.00  0.00     5.505 A  
HETATM   26  C   UNL     1     -10.119  14.814  69.415  1.00  0.00    -0.120 A  
HETATM   27  C   UNL     1      -9.341  16.887  70.370  1.00  0.00     2.503 A  
ENDBRANCH  20  21
ENDBRANCH  11  20
ENDBRANCH   6   9
TORSDOF 3
ENDMDL
MODEL      205
REMARK 921   NORMALIZED FREE ENERGY PREDICTED BY IDOCK:   27.87 KCAL/MOL
REMARK 922        TOTAL FREE ENERGY PREDICTED BY IDOCK:   31.98 KCAL/MOL
REMARK 923 INTER-LIGAND FREE ENERGY PREDICTED BY IDOCK:   31.88 KCAL/MOL
REMARK 924 INTRA-LIGAND FREE ENERGY PREDICTED BY IDOCK:    0.10 KCAL/MOL
REMARK 927      BINDING AFFINITY PREDICTED BY RF-SCORE:    0.00 PKD
ROOT
HETATM    1  C   UNL     1      -6.938  12.857  73.062  1.00  0.00     7.386 C  
HETATM    2  N   UNL     1      -7.226  11.887  71.998  1.00  0.00     7.333 NA 
HETATM    3  C   UNL     1      -7.518  10.585  72.612  1.00  0.00     6.493 C  
HETATM    4  C   UNL     1      -7.850   9.447  71.650  1.00  0.00     0.525 C  
HETATM    5  C   UNL     1      -9.204   9.621  70.966  1.00  0.00     0.181 C  
HETATM    6  C   UNL     1      -9.141  10.432  69.661  1.00  0.00    -0.047 C  
HETATM    7  C   UNL     1      -8.276  12.402  71.107  1.00  0.00    10.386 C  
HETATM    8  C   UNL     1      -8.285  11.706  69.740  1.00  0.00     1.356 C  
ENDROOT
BRANCH   6   9
HETATM    9  N   UNL     1      -8.756   9.599  68.494  1.00  0.00    -0.119 N  
HETATM   10  N   UNL     1      -8.996   8.250  68.587  1.00  0.00    -0.137 NA 
HETATM   11  C   UNL     1      -8.741   7.464  67.589  1.00  0.00    -0.125 C  
HETATM   12  O   UNL     1      -7.946  11.403  67.279  1.00  0.00    -0.134 OA 
HETATM   13  C   UNL     1      -8.158   7.948  66.320  1.00  0.00    -0.110 A  
HETATM   14  C   UNL     1      -7.902   7.116  65.224  1.00  0.00    -0.121 A  
HETATM   15  C   UNL     1      -8.186  10.198  67.373  1.00  0.00    -0.114 C  
HETATM   16  C   UNL     1      -7.386   7.656  64.042  1.00  0.00    -0.092 A  
HETATM   17  C   UNL     1      -7.885   9.311  66.232  1.00  0.00    -0.103 A  
HETATM   18  C   UNL     1      -7.109   9.020  63.956  1.00  0.00    -0.095 A  
HETATM   19  C   UNL     1      -7.354   9.848  65.050  1.00  0.00    -0.135 A  
BRANCH  11  20
HETATM   20  C   UNL     1      -9.128   5.999  67.757  1.00  0.00    -0.109 C  
BRANCH  20  21
HETATM   21  C   UNL     1      -8.211   5.156  68.616  1.00  0.00    -0.085 A  
HETATM   22 CL   UNL     1      -5.151   2.677  70.861  1.00  0.00    -0.003 Cl 
HETATM   23  C   UNL     1      -8.356   3.764  68.721  1.00  0.00    -0.088 A  
HETATM   24  C   UNL     1      -6.154   4.998  69.922  1.00  0.00    -0.022 A  
HETATM   25  C   UNL     1      -7.419   3.002  69.429  1.00  0.00    -0.044 A  
HETATM   26  C   UNL     1      -7.093   5.760  69.220  1.00  0.00    -0.065 A  
HETATM   27  C   UNL     1      -6.321   3.621  70.023  1.00  0.00    -0.028 A  
ENDBRANCH  20  21
ENDBRANCH  11  20
ENDBRANCH   6   9
TORSDOF 3
ENDMDL
MODEL      206
REMARK 921   NORMALIZED FREE ENERGY PREDICTED BY IDOCK:   32.45 KCAL/MOL
REMARK 922        TOTAL FREE ENERGY PREDICTED BY IDOCK:   37.37 KCAL/MOL
REMARK 923 INTER-LIGAND FREE ENERGY PREDICTED BY IDOCK:   36.99 KCAL/MOL
REMARK 924 INTRA-LIGAND FREE ENERGY PREDICTED BY IDOCK:    0.38 KCAL/MOL
REMARK 927      BINDING AFFINITY PREDICTED BY RF-SCORE:    0.00 PKD
ROOT
HETATM    1  C   UNL     1      -7.671  19.453  68.047  1.00  0.00    -0.296 C  
HETATM    2  N   UNL     1      -7.834  18.055  68.464  1.00  0.00    -0.297 NA 
HETATM    3  C   UNL     1      -6.942  17.214  67.656  1.00  0.00    -0.142 C  
HETATM    4  C   UNL     1      -6.971  15.717  67.958  1.00  0.00    -0.137 C  
HETATM    5  C   UNL     1      -6.354  15.370  69.311  1.00  0.00    -0.128 C  
HETATM    6  C   UNL     1      -7.353  15.418  70.479  1.00  0.00     0.824 C  
HETATM    7  C   UNL     1      -7.655  17.931  69.918  1.00  0.00     1.176 C  
HETATM    8  C   UNL     1      -8.276  16.646  70.482  1.00  0.00     3.327 C  
ENDROOT
BRANCH   6   9
HETATM    9  N   UNL     1      -8.133  14.161  70.610  1.00  0.00     2.349 N  
HETATM   10  N   UNL     1      -7.438  12.983  70.485  1.00  0.00     2.263 NA 
HETATM   11  C   UNL     1      -8.037  11.844  70.643  1.00  0.00     5.511 C  
HETATM   12  O   UNL     1     -10.145  15.265  70.952  1.00  0.00     0.214 OA 
HETATM   13  C   UNL     1      -9.481  11.735  70.932  1.00  0.00     7.599 A  
HETATM   14  C   UNL     1     -10.136  10.514  71.131  1.00  0.00     2.226 A  
HETATM   15  C   UNL     1      -9.503  14.219  70.854  1.00  0.00     3.654 C  
HETATM   16  C   UNL     1     -11.500  10.495  71.441  1.00  0.00     0.200 A  
HETATM   17  C   UNL     1     -10.196  12.927  71.030  1.00  0.00     6.702 A  
HETATM   18  C   UNL     1     -12.215  11.688  71.535  1.00  0.00     0.101 A  
HETATM   19  C   UNL     1     -11.567  12.904  71.326  1.00  0.00     1.603 A  
BRANCH  11  20
HETATM   20  C   UNL     1      -7.162  10.598  70.575  1.00  0.00     0.624 C  
BRANCH  20  21
HETATM   21  C   UNL     1      -6.602  10.242  69.214  1.00  0.00    -0.055 A  
HETATM   22 CL   UNL     1      -5.346   9.038  65.030  1.00  0.00    -0.038 Cl 
HETATM   23  C   UNL     1      -5.820   9.096  69.005  1.00  0.00    -0.039 A  
HETATM   24  C   UNL     1      -6.593  10.639  66.806  1.00  0.00    -0.091 A  
HETATM   25  C   UNL     1      -5.419   8.735  67.713  1.00  0.00    -0.035 A  
HETATM   26  C   UNL     1      -6.988  11.003  68.097  1.00  0.00    -0.069 A  
HETATM   27  C   UNL     1      -5.809   9.505  66.620  1.00  0.00    -0.055 A  
ENDBRANCH  20  21
ENDBRANCH  11  20
ENDBRANCH   6   9
TORSDOF 3
ENDMDL
