MODEL        1
REMARK 921   NORMALIZED FREE ENERGY PREDICTED BY IDOCK:   -7.73 KCAL/MOL
REMARK 922        TOTAL FREE ENERGY PREDICTED BY IDOCK:  -15.16 KCAL/MOL
REMARK 923 INTER-LIGAND FREE ENERGY PREDICTED BY IDOCK:  -12.24 KCAL/MOL
REMARK 924 INTRA-LIGAND FREE ENERGY PREDICTED BY IDOCK:   -2.92 KCAL/MOL
REMARK 927      BINDING AFFINITY PREDICTED BY RF-SCORE:    0.00 PKD
ROOT
HETATM    1  C   UNL     1      -9.123   8.340  66.378  1.00  0.00    -0.226 C  
HETATM    2  C   UNL     1      -8.137   8.939  65.392  1.00  0.00    -0.119 C  
ENDROOT
BRANCH   2   3
HETATM    3  O   UNL     1      -7.937  10.320  65.699  1.00  0.00    -0.138 OA 
BRANCH   3   4
HETATM    4  C   UNL     1      -9.009  11.085  65.485  1.00  0.00    -0.194 A  
HETATM    5  N   UNL     1      -9.801  10.997  64.448  1.00  0.00    -0.272 NA 
HETATM    6  C   UNL     1     -10.761  11.948  64.651  1.00  0.00    -0.307 A  
HETATM    7  C   UNL     1     -10.555  12.658  65.842  1.00  0.00    -0.273 A  
HETATM    8  N   UNL     1      -9.436  12.041  66.378  1.00  0.00    -0.227 NA 
HETATM    9  C   UNL     1     -11.420  13.720  66.211  1.00  0.00    -0.349 A  
HETATM   10  C   UNL     1     -12.523  13.980  65.369  1.00  0.00    -0.520 A  
HETATM   11  C   UNL     1     -11.870  12.231  63.839  1.00  0.00    -0.553 A  
HETATM   12  C   UNL     1     -12.754  13.240  64.213  1.00  0.00    -0.146 A  
BRANCH   9  13
HETATM   13  C   UNL     1     -11.298  14.505  67.461  1.00  0.00    -0.340 C  
HETATM   14  O   UNL     1     -10.621  15.514  67.561  1.00  0.00    -0.283 OA 
BRANCH  13  15
HETATM   15  O   UNL     1     -11.979  13.899  68.471  1.00  0.00    -0.352 OA 
BRANCH  15  16
HETATM   16  C   UNL     1     -11.976  14.597  69.727  1.00  0.00    -0.329 C  
BRANCH  16  17
HETATM   17  C   UNL     1     -12.638  13.763  70.767  1.00  0.00    -0.340 C  
HETATM   18  O   UNL     1     -13.846  13.052  72.508  1.00  0.00    -0.625 OA 
HETATM   19  C   UNL     1     -13.412  14.127  71.767  1.00  0.00    -0.390 C  
HETATM   20  O   UNL     1     -12.450  12.391  70.766  1.00  0.00    -0.349 OA 
HETATM   21  C   UNL     1     -13.944  15.448  72.119  1.00  0.00    -0.649 C  
HETATM   22  C   UNL     1     -13.242  12.001  71.841  1.00  0.00    -0.364 C  
HETATM   23  O   UNL     1     -13.387  10.833  72.181  1.00  0.00    -0.442 OA 
ENDBRANCH  16  17
ENDBRANCH  15  16
ENDBRANCH  13  15
ENDBRANCH   9  13
BRANCH   8  24
HETATM   24  C   UNL     1      -8.893  12.156  67.722  1.00  0.00    -0.172 C  
BRANCH  24  25
HETATM   25  C   UNL     1      -9.216  11.015  68.660  1.00  0.00    -0.186 A  
HETATM   26  C   UNL     1      -8.260  10.270  69.349  1.00  0.00    -0.171 A  
HETATM   27  C   UNL     1     -10.947   9.630  69.690  1.00  0.00    -0.253 A  
HETATM   28  C   UNL     1      -9.997   8.860  70.379  1.00  0.00    -0.230 A  
HETATM   29  C   UNL     1     -10.566  10.692  68.859  1.00  0.00    -0.241 A  
HETATM   30  C   UNL     1      -8.653   9.260  70.235  1.00  0.00    -0.234 A  
BRANCH  28  31
HETATM   31  C   UNL     1     -10.393   7.732  71.282  1.00  0.00    -0.222 A  
HETATM   32  C   UNL     1     -10.708   6.971  73.612  1.00  0.00    -0.310 A  
HETATM   33  C   UNL     1     -10.618   7.992  72.659  1.00  0.00    -0.419 A  
HETATM   34  C   UNL     1     -10.653   5.647  73.212  1.00  0.00    -0.280 A  
HETATM   35  C   UNL     1     -10.546   5.350  71.857  1.00  0.00    -0.288 A  
HETATM   36  C   UNL     1     -10.437   6.373  70.893  1.00  0.00    -0.275 A  
BRANCH  36  37
HETATM   37  C   UNL     1     -10.408   5.904  69.495  1.00  0.00    -0.248 C  
HETATM   38  N   UNL     1     -11.267   6.227  68.585  1.00  0.00    -0.334 NA 
HETATM   39  O   UNL     1     -10.825   5.555  67.402  1.00  0.00    -0.205 OA 
HETATM   40  C   UNL     1      -9.685   4.877  67.748  1.00  0.00    -0.157 C  
HETATM   41  N   UNL     1      -9.427   5.113  69.043  1.00  0.00    -0.124 NA 
HETATM   42  O   UNL     1      -9.030   4.159  67.006  1.00  0.00    -0.115 OA 
ENDBRANCH  36  37
ENDBRANCH  28  31
ENDBRANCH  24  25
ENDBRANCH   8  24
ENDBRANCH   3   4
ENDBRANCH   2   3
TORSDOF 10
ENDMDL
MODEL        2
REMARK 921   NORMALIZED FREE ENERGY PREDICTED BY IDOCK:   -7.72 KCAL/MOL
REMARK 922        TOTAL FREE ENERGY PREDICTED BY IDOCK:  -15.16 KCAL/MOL
REMARK 923 INTER-LIGAND FREE ENERGY PREDICTED BY IDOCK:  -12.59 KCAL/MOL
REMARK 924 INTRA-LIGAND FREE ENERGY PREDICTED BY IDOCK:   -2.57 KCAL/MOL
REMARK 927      BINDING AFFINITY PREDICTED BY RF-SCORE:    0.00 PKD
ROOT
HETATM    1  C   UNL     1     -11.334  15.105  64.643  1.00  0.00    -0.362 C  
HETATM    2  C   UNL     1     -12.404  14.156  64.133  1.00  0.00    -0.335 C  
ENDROOT
BRANCH   2   3
HETATM    3  O   UNL     1     -12.704  13.191  65.144  1.00  0.00    -0.591 OA 
BRANCH   3   4
HETATM    4  C   UNL     1     -11.784  12.234  65.271  1.00  0.00    -0.361 A  
HETATM    5  N   UNL     1     -11.275  11.543  64.284  1.00  0.00    -0.319 NA 
HETATM    6  C   UNL     1     -10.372  10.699  64.868  1.00  0.00    -0.277 A  
HETATM    7  C   UNL     1     -10.326  10.859  66.260  1.00  0.00    -0.250 A  
HETATM    8  N   UNL     1     -11.221  11.893  66.481  1.00  0.00    -0.314 NA 
HETATM    9  C   UNL     1      -9.481  10.041  67.054  1.00  0.00    -0.197 A  
HETATM   10  C   UNL     1      -8.651   9.120  66.381  1.00  0.00    -0.135 A  
HETATM   11  C   UNL     1      -9.529   9.775  64.231  1.00  0.00    -0.196 A  
HETATM   12  C   UNL     1      -8.661   8.999  64.995  1.00  0.00    -0.217 A  
BRANCH   9  13
HETATM   13  C   UNL     1      -9.345  10.157  68.525  1.00  0.00    -0.151 C  
HETATM   14  O   UNL     1      -8.539  10.888  69.073  1.00  0.00    -0.156 OA 
BRANCH  13  15
HETATM   15  O   UNL     1     -10.186   9.289  69.149  1.00  0.00    -0.193 OA 
BRANCH  15  16
HETATM   16  C   UNL     1     -10.264   9.420  70.578  1.00  0.00    -0.271 C  
BRANCH  16  17
HETATM   17  C   UNL     1     -11.667   9.206  71.028  1.00  0.00    -0.301 C  
HETATM   18  O   UNL     1     -13.774   9.494  71.715  1.00  0.00    -0.363 OA 
HETATM   19  C   UNL     1     -12.582  10.087  71.369  1.00  0.00    -0.415 C  
HETATM   20  O   UNL     1     -12.157   7.916  71.149  1.00  0.00    -0.304 OA 
HETATM   21  C   UNL     1     -12.546  11.553  71.325  1.00  0.00    -0.452 C  
HETATM   22  C   UNL     1     -13.469   8.154  71.546  1.00  0.00    -0.286 C  
HETATM   23  O   UNL     1     -14.285   7.262  71.742  1.00  0.00    -0.413 OA 
ENDBRANCH  16  17
ENDBRANCH  15  16
ENDBRANCH  13  15
ENDBRANCH   9  13
BRANCH   8  24
HETATM   24  C   UNL     1     -11.415  12.683  67.686  1.00  0.00    -0.334 C  
BRANCH  24  25
HETATM   25  C   UNL     1     -10.433  13.813  67.894  1.00  0.00    -0.247 A  
HETATM   26  C   UNL     1      -9.225  13.941  67.207  1.00  0.00    -0.235 A  
HETATM   27  C   UNL     1      -9.892  15.869  69.101  1.00  0.00    -0.247 A  
HETATM   28  C   UNL     1      -8.666  16.004  68.431  1.00  0.00    -0.186 A  
HETATM   29  C   UNL     1     -10.762  14.804  68.830  1.00  0.00    -0.253 A  
HETATM   30  C   UNL     1      -8.397  15.047  67.431  1.00  0.00    -0.210 A  
BRANCH  28  31
HETATM   31  C   UNL     1      -7.734  17.146  68.702  1.00  0.00    -0.260 A  
HETATM   32  C   UNL     1      -5.714  17.918  69.896  1.00  0.00    -0.247 A  
HETATM   33  C   UNL     1      -6.501  16.895  69.356  1.00  0.00    -0.234 A  
HETATM   34  C   UNL     1      -6.094  19.239  69.735  1.00  0.00    -0.299 A  
HETATM   35  C   UNL     1      -7.240  19.532  69.002  1.00  0.00    -0.397 A  
HETATM   36  C   UNL     1      -8.047  18.506  68.469  1.00  0.00    -0.354 A  
BRANCH  36  37
HETATM   37  C   UNL     1      -9.182  18.974  67.653  1.00  0.00    -0.294 C  
HETATM   38  N   UNL     1     -10.017  19.896  68.002  1.00  0.00    -0.409 NA 
HETATM   39  O   UNL     1     -10.919  20.018  66.898  1.00  0.00    -0.295 OA 
HETATM   40  C   UNL     1     -10.497  19.116  65.956  1.00  0.00    -0.467 C  
HETATM   41  N   UNL     1      -9.411  18.487  66.427  1.00  0.00    -0.370 NA 
HETATM   42  O   UNL     1     -11.036  18.907  64.878  1.00  0.00    -0.389 OA 
ENDBRANCH  36  37
ENDBRANCH  28  31
ENDBRANCH  24  25
ENDBRANCH   8  24
ENDBRANCH   3   4
ENDBRANCH   2   3
TORSDOF 10
ENDMDL
MODEL        3
REMARK 921   NORMALIZED FREE ENERGY PREDICTED BY IDOCK:   -7.66 KCAL/MOL
REMARK 922        TOTAL FREE ENERGY PREDICTED BY IDOCK:  -15.06 KCAL/MOL
REMARK 923 INTER-LIGAND FREE ENERGY PREDICTED BY IDOCK:  -12.19 KCAL/MOL
REMARK 924 INTRA-LIGAND FREE ENERGY PREDICTED BY IDOCK:   -2.87 KCAL/MOL
REMARK 927      BINDING AFFINITY PREDICTED BY RF-SCORE:    0.00 PKD
ROOT
HETATM    1  C   UNL     1     -11.616  11.931  63.909  1.00  0.00    -0.515 C  
HETATM    2  C   UNL     1     -10.982  13.310  63.946  1.00  0.00    -0.195 C  
ENDROOT
BRANCH   2   3
HETATM    3  O   UNL     1     -11.936  14.259  64.427  1.00  0.00    -0.438 OA 
BRANCH   3   4
HETATM    4  C   UNL     1     -11.417  15.197  65.220  1.00  0.00    -0.266 A  
HETATM    5  N   UNL     1     -11.017  16.378  64.827  1.00  0.00    -0.684 NA 
HETATM    6  C   UNL     1     -10.580  17.002  65.962  1.00  0.00    -0.206 A  
HETATM    7  C   UNL     1     -10.700  16.183  67.093  1.00  0.00    -0.262 A  
HETATM    8  N   UNL     1     -11.288  15.037  66.582  1.00  0.00    -0.326 NA 
HETATM    9  C   UNL     1     -10.258  16.634  68.363  1.00  0.00    -0.284 A  
HETATM   10  C   UNL     1      -9.762  17.952  68.447  1.00  0.00    -0.340 A  
HETATM   11  C   UNL     1     -10.086  18.311  66.082  1.00  0.00    -0.354 A  
HETATM   12  C   UNL     1      -9.692  18.782  67.332  1.00  0.00    -0.340 A  
BRANCH   9  13
HETATM   13  C   UNL     1     -10.371  15.850  69.616  1.00  0.00    -0.299 C  
HETATM   14  O   UNL     1      -9.708  14.855  69.851  1.00  0.00     0.001 OA 
BRANCH  13  15
HETATM   15  O   UNL     1     -11.354  16.358  70.407  1.00  0.00    -0.349 OA 
BRANCH  15  16
HETATM   16  C   UNL     1     -12.656  15.778  70.227  1.00  0.00    -0.187 C  
BRANCH  16  17
HETATM   17  C   UNL     1     -12.874  14.708  71.238  1.00  0.00    -0.335 C  
HETATM   18  O   UNL     1     -13.221  13.577  73.135  1.00  0.00    -0.442 OA 
HETATM   19  C   UNL     1     -13.025  14.803  72.542  1.00  0.00    -0.392 C  
HETATM   20  O   UNL     1     -12.920  13.384  70.834  1.00  0.00    -0.230 OA 
HETATM   21  C   UNL     1     -13.123  15.990  73.398  1.00  0.00    -0.677 C  
HETATM   22  C   UNL     1     -13.167  12.734  72.039  1.00  0.00    -0.436 C  
HETATM   23  O   UNL     1     -13.313  11.521  72.131  1.00  0.00    -0.477 OA 
ENDBRANCH  16  17
ENDBRANCH  15  16
ENDBRANCH  13  15
ENDBRANCH   9  13
BRANCH   8  24
HETATM   24  C   UNL     1     -11.898  13.931  67.302  1.00  0.00    -0.407 C  
BRANCH  24  25
HETATM   25  C   UNL     1     -11.069  12.670  67.392  1.00  0.00    -0.315 A  
HETATM   26  C   UNL     1      -9.688  12.624  67.207  1.00  0.00    -0.207 A  
HETATM   27  C   UNL     1     -11.038  10.255  67.767  1.00  0.00    -0.335 A  
HETATM   28  C   UNL     1      -9.650  10.187  67.568  1.00  0.00    -0.180 A  
HETATM   29  C   UNL     1     -11.730  11.472  67.694  1.00  0.00    -0.283 A  
HETATM   30  C   UNL     1      -8.993  11.417  67.355  1.00  0.00    -0.154 A  
BRANCH  28  31
HETATM   31  C   UNL     1      -8.897   8.895  67.659  1.00  0.00    -0.137 A  
HETATM   32  C   UNL     1      -7.742   7.092  66.425  1.00  0.00    -0.100 A  
HETATM   33  C   UNL     1      -8.221   8.404  66.512  1.00  0.00    -0.105 A  
HETATM   34  C   UNL     1      -7.855   6.244  67.513  1.00  0.00    -0.105 A  
HETATM   35  C   UNL     1      -8.411   6.723  68.694  1.00  0.00    -0.120 A  
HETATM   36  C   UNL     1      -8.910   8.039  68.784  1.00  0.00    -0.138 A  
BRANCH  36  37
HETATM   37  C   UNL     1      -9.398   8.425  70.121  1.00  0.00    -0.163 C  
HETATM   38  N   UNL     1      -8.701   9.045  71.015  1.00  0.00    -0.214 NA 
HETATM   39  O   UNL     1      -9.588   9.216  72.124  1.00  0.00    -0.276 OA 
HETATM   40  C   UNL     1     -10.783   8.660  71.751  1.00  0.00    -0.321 C  
HETATM   41  N   UNL     1     -10.659   8.187  70.501  1.00  0.00    -0.216 NA 
HETATM   42  O   UNL     1     -11.785   8.587  72.449  1.00  0.00    -0.375 OA 
ENDBRANCH  36  37
ENDBRANCH  28  31
ENDBRANCH  24  25
ENDBRANCH   8  24
ENDBRANCH   3   4
ENDBRANCH   2   3
TORSDOF 10
ENDMDL
MODEL        4
REMARK 921   NORMALIZED FREE ENERGY PREDICTED BY IDOCK:   -7.56 KCAL/MOL
REMARK 922        TOTAL FREE ENERGY PREDICTED BY IDOCK:  -14.90 KCAL/MOL
REMARK 923 INTER-LIGAND FREE ENERGY PREDICTED BY IDOCK:  -12.28 KCAL/MOL
REMARK 924 INTRA-LIGAND FREE ENERGY PREDICTED BY IDOCK:   -2.62 KCAL/MOL
REMARK 927      BINDING AFFINITY PREDICTED BY RF-SCORE:    0.00 PKD
ROOT
HETATM    1  C   UNL     1     -12.607  11.850  63.469  1.00  0.00    -0.579 C  
HETATM    2  C   UNL     1     -11.963  13.218  63.331  1.00  0.00    -0.427 C  
ENDROOT
BRANCH   2   3
HETATM    3  O   UNL     1     -12.640  14.149  64.179  1.00  0.00    -0.684 OA 
BRANCH   3   4
HETATM    4  C   UNL     1     -11.825  14.913  64.907  1.00  0.00    -0.337 A  
HETATM    5  N   UNL     1     -11.360  16.079  64.540  1.00  0.00    -0.462 NA 
HETATM    6  C   UNL     1     -10.591  16.501  65.588  1.00  0.00    -0.304 A  
HETATM    7  C   UNL     1     -10.565  15.566  66.632  1.00  0.00    -0.307 A  
HETATM    8  N   UNL     1     -11.411  14.570  66.175  1.00  0.00    -0.353 NA 
HETATM    9  C   UNL     1      -9.784  15.800  67.794  1.00  0.00    -0.216 A  
HETATM   10  C   UNL     1      -9.098  17.031  67.878  1.00  0.00    -0.232 A  
HETATM   11  C   UNL     1      -9.900  17.718  65.707  1.00  0.00     0.061 A  
HETATM   12  C   UNL     1      -9.167  17.980  66.862  1.00  0.00    -0.271 A  
BRANCH   9  13
HETATM   13  C   UNL     1      -9.718  14.885  68.957  1.00  0.00    -0.212 C  
HETATM   14  O   UNL     1      -9.222  13.773  68.913  1.00  0.00    -0.042 OA 
BRANCH  13  15
HETATM   15  O   UNL     1     -10.346  15.435  70.031  1.00  0.00    -0.294 OA 
BRANCH  15  16
HETATM   16  C   UNL     1     -11.778  15.315  70.040  1.00  0.00    -0.315 C  
BRANCH  16  17
HETATM   17  C   UNL     1     -12.265  15.208  71.442  1.00  0.00    -0.339 C  
HETATM   18  O   UNL     1     -13.124  14.478  73.372  1.00  0.00    -0.587 OA 
HETATM   19  C   UNL     1     -12.823  14.189  72.061  1.00  0.00    -0.338 C  
HETATM   20  O   UNL     1     -12.172  16.303  72.285  1.00  0.00    -0.482 OA 
HETATM   21  C   UNL     1     -13.054  12.815  71.602  1.00  0.00    -0.428 C  
HETATM   22  C   UNL     1     -12.687  15.787  73.469  1.00  0.00    -0.575 C  
HETATM   23  O   UNL     1     -12.761  16.432  74.508  1.00  0.00    -0.732 OA 
ENDBRANCH  16  17
ENDBRANCH  15  16
ENDBRANCH  13  15
ENDBRANCH   9  13
BRANCH   8  24
HETATM   24  C   UNL     1     -11.992  13.462  66.915  1.00  0.00    -0.385 C  
BRANCH  24  25
HETATM   25  C   UNL     1     -11.195  12.177  66.906  1.00  0.00    -0.375 A  
HETATM   26  C   UNL     1     -10.092  11.944  66.085  1.00  0.00    -0.257 A  
HETATM   27  C   UNL     1     -10.912   9.929  67.822  1.00  0.00    -0.278 A  
HETATM   28  C   UNL     1      -9.810   9.670  66.991  1.00  0.00    -0.249 A  
HETATM   29  C   UNL     1     -11.582  11.160  67.789  1.00  0.00    -0.303 A  
HETATM   30  C   UNL     1      -9.383  10.739  66.177  1.00  0.00    -0.209 A  
BRANCH  28  31
HETATM   31  C   UNL     1      -9.077   8.364  67.028  1.00  0.00    -0.171 A  
HETATM   32  C   UNL     1      -8.833   6.110  66.045  1.00  0.00    -0.160 A  
HETATM   33  C   UNL     1      -9.243   7.445  65.960  1.00  0.00    -0.092 A  
HETATM   34  C   UNL     1      -8.171   5.663  67.176  1.00  0.00    -0.101 A  
HETATM   35  C   UNL     1      -7.890   6.562  68.199  1.00  0.00    -0.106 A  
HETATM   36  C   UNL     1      -8.315   7.905  68.127  1.00  0.00    -0.124 A  
BRANCH  36  37
HETATM   37  C   UNL     1      -7.876   8.753  69.251  1.00  0.00    -0.100 C  
HETATM   38  N   UNL     1      -8.190   8.565  70.490  1.00  0.00    -0.106 NA 
HETATM   39  O   UNL     1      -7.526   9.611  71.205  1.00  0.00    -0.328 OA 
HETATM   40  C   UNL     1      -6.843  10.343  70.268  1.00  0.00    -0.126 C  
HETATM   41  N   UNL     1      -7.053   9.792  69.063  1.00  0.00    -0.065 NA 
HETATM   42  O   UNL     1      -6.174  11.342  70.493  1.00  0.00    -0.290 OA 
ENDBRANCH  36  37
ENDBRANCH  28  31
ENDBRANCH  24  25
ENDBRANCH   8  24
ENDBRANCH   3   4
ENDBRANCH   2   3
TORSDOF 10
ENDMDL
MODEL        5
REMARK 921   NORMALIZED FREE ENERGY PREDICTED BY IDOCK:   -7.30 KCAL/MOL
REMARK 922        TOTAL FREE ENERGY PREDICTED BY IDOCK:  -14.48 KCAL/MOL
REMARK 923 INTER-LIGAND FREE ENERGY PREDICTED BY IDOCK:  -12.05 KCAL/MOL
REMARK 924 INTRA-LIGAND FREE ENERGY PREDICTED BY IDOCK:   -2.43 KCAL/MOL
REMARK 927      BINDING AFFINITY PREDICTED BY RF-SCORE:    0.00 PKD
ROOT
HETATM    1  C   UNL     1     -11.100  11.505  63.675  1.00  0.00    -0.469 C  
HETATM    2  C   UNL     1     -12.512  12.043  63.525  1.00  0.00    -0.540 C  
ENDROOT
BRANCH   2   3
HETATM    3  O   UNL     1     -12.954  12.573  64.777  1.00  0.00    -0.827 OA 
BRANCH   3   4
HETATM    4  C   UNL     1     -12.302  13.671  65.163  1.00  0.00    -0.452 A  
HETATM    5  N   UNL     1     -12.028  14.693  64.394  1.00  0.00    -0.458 NA 
HETATM    6  C   UNL     1     -11.374  15.580  65.201  1.00  0.00    -0.241 A  
HETATM    7  C   UNL     1     -11.224  15.093  66.507  1.00  0.00    -0.283 A  
HETATM    8  N   UNL     1     -11.876  13.872  66.456  1.00  0.00    -0.392 NA 
HETATM    9  C   UNL     1     -10.530  15.849  67.486  1.00  0.00    -0.298 A  
HETATM   10  C   UNL     1     -10.064  17.127  67.109  1.00  0.00    -0.295 A  
HETATM   11  C   UNL     1     -10.901  16.858  64.861  1.00  0.00    -0.012 A  
HETATM   12  C   UNL     1     -10.259  17.630  65.826  1.00  0.00    -0.160 A  
BRANCH   9  13
HETATM   13  C   UNL     1     -10.347  15.429  68.895  1.00  0.00    -0.233 C  
HETATM   14  O   UNL     1      -9.522  14.608  69.253  1.00  0.00    -0.122 OA 
BRANCH  13  15
HETATM   15  O   UNL     1     -11.270  16.031  69.693  1.00  0.00    -0.294 OA 
BRANCH  15  16
HETATM   16  C   UNL     1     -12.357  15.196  70.124  1.00  0.00    -0.341 C  
BRANCH  16  17
HETATM   17  C   UNL     1     -12.518  15.300  71.600  1.00  0.00    -0.363 C  
HETATM   18  O   UNL     1     -13.030  14.918  73.742  1.00  0.00    -0.506 OA 
HETATM   19  C   UNL     1     -13.101  14.474  72.442  1.00  0.00    -0.402 C  
HETATM   20  O   UNL     1     -12.024  16.411  72.265  1.00  0.00    -0.524 OA 
HETATM   21  C   UNL     1     -13.690  13.150  72.211  1.00  0.00    -0.647 C  
HETATM   22  C   UNL     1     -12.340  16.107  73.585  1.00  0.00    -0.562 C  
HETATM   23  O   UNL     1     -12.048  16.830  74.531  1.00  0.00    -0.552 OA 
ENDBRANCH  16  17
ENDBRANCH  15  16
ENDBRANCH  13  15
ENDBRANCH   9  13
BRANCH   8  24
HETATM   24  C   UNL     1     -12.286  13.016  67.558  1.00  0.00    -0.071 C  
BRANCH  24  25
HETATM   25  C   UNL     1     -11.239  12.047  68.060  1.00  0.00    -0.316 A  
HETATM   26  C   UNL     1     -11.300  11.393  69.290  1.00  0.00    -0.355 A  
HETATM   27  C   UNL     1      -9.114  10.917  67.634  1.00  0.00    -0.148 A  
HETATM   28  C   UNL     1      -9.152  10.262  68.875  1.00  0.00    -0.168 A  
HETATM   29  C   UNL     1     -10.141  11.781  67.230  1.00  0.00    -0.211 A  
HETATM   30  C   UNL     1     -10.308  10.475  69.654  1.00  0.00    -0.231 A  
BRANCH  28  31
HETATM   31  C   UNL     1      -8.067   9.325  69.312  1.00  0.00    -0.106 A  
HETATM   32  C   UNL     1      -5.698   9.080  69.971  1.00  0.00    -0.031 A  
HETATM   33  C   UNL     1      -6.851   9.857  69.813  1.00  0.00    -0.084 A  
HETATM   34  C   UNL     1      -5.741   7.721  69.706  1.00  0.00    -0.023 A  
HETATM   35  C   UNL     1      -6.945   7.142  69.320  1.00  0.00    -0.070 A  
HETATM   36  C   UNL     1      -8.106   7.922  69.142  1.00  0.00    -0.124 A  
BRANCH  36  37
HETATM   37  C   UNL     1      -9.320   7.154  68.807  1.00  0.00    -0.135 C  
HETATM   38  N   UNL     1     -10.276   6.879  69.632  1.00  0.00    -0.188 NA 
HETATM   39  O   UNL     1     -11.232   6.145  68.862  1.00  0.00    -0.372 OA 
HETATM   40  C   UNL     1     -10.723   6.066  67.592  1.00  0.00    -0.296 C  
HETATM   41  N   UNL     1      -9.546   6.709  67.565  1.00  0.00    -0.124 NA 
HETATM   42  O   UNL     1     -11.244   5.486  66.649  1.00  0.00    -0.029 OA 
ENDBRANCH  36  37
ENDBRANCH  28  31
ENDBRANCH  24  25
ENDBRANCH   8  24
ENDBRANCH   3   4
ENDBRANCH   2   3
TORSDOF 10
ENDMDL
MODEL        6
REMARK 921   NORMALIZED FREE ENERGY PREDICTED BY IDOCK:   -7.19 KCAL/MOL
REMARK 922        TOTAL FREE ENERGY PREDICTED BY IDOCK:  -14.31 KCAL/MOL
REMARK 923 INTER-LIGAND FREE ENERGY PREDICTED BY IDOCK:  -11.22 KCAL/MOL
REMARK 924 INTRA-LIGAND FREE ENERGY PREDICTED BY IDOCK:   -3.09 KCAL/MOL
REMARK 927      BINDING AFFINITY PREDICTED BY RF-SCORE:    0.00 PKD
ROOT
HETATM    1  C   UNL     1     -12.549  15.829  73.156  1.00  0.00    -0.607 C  
HETATM    2  C   UNL     1     -12.505  15.790  71.639  1.00  0.00    -0.463 C  
ENDROOT
BRANCH   2   3
HETATM    3  O   UNL     1     -11.511  14.853  71.216  1.00  0.00    -0.325 OA 
BRANCH   3   4
HETATM    4  C   UNL     1     -11.090  15.036  69.964  1.00  0.00    -0.263 A  
HETATM    5  N   UNL     1     -10.062  15.767  69.615  1.00  0.00    -0.281 NA 
HETATM    6  C   UNL     1      -9.992  15.654  68.255  1.00  0.00    -0.213 A  
HETATM    7  C   UNL     1     -11.011  14.842  67.740  1.00  0.00    -0.291 A  
HETATM    8  N   UNL     1     -11.676  14.422  68.880  1.00  0.00    -0.303 NA 
HETATM    9  C   UNL     1     -11.136  14.637  66.342  1.00  0.00    -0.334 A  
HETATM   10  C   UNL     1     -10.159  15.225  65.510  1.00  0.00    -0.408 A  
HETATM   11  C   UNL     1      -9.034  16.221  67.399  1.00  0.00    -0.197 A  
HETATM   12  C   UNL     1      -9.118  15.989  66.028  1.00  0.00    -0.361 A  
BRANCH   9  13
HETATM   13  C   UNL     1     -12.161  13.773  65.710  1.00  0.00    -0.462 C  
HETATM   14  O   UNL     1     -13.263  14.170  65.373  1.00  0.00    -0.741 OA 
BRANCH  13  15
HETATM   15  O   UNL     1     -11.720  12.489  65.635  1.00  0.00    -0.381 OA 
BRANCH  15  16
HETATM   16  C   UNL     1     -10.697  12.241  64.656  1.00  0.00    -0.308 C  
BRANCH  16  17
HETATM   17  C   UNL     1      -9.782  11.173  65.143  1.00  0.00    -0.250 C  
HETATM   18  O   UNL     1      -8.209  10.018  66.233  1.00  0.00    -0.120 OA 
HETATM   19  C   UNL     1      -8.827  11.233  66.047  1.00  0.00    -0.184 C  
HETATM   20  O   UNL     1      -9.870   9.899  64.606  1.00  0.00    -0.285 OA 
HETATM   21  C   UNL     1      -8.425  12.337  66.924  1.00  0.00    -0.159 C  
HETATM   22  C   UNL     1      -8.899   9.222  65.336  1.00  0.00    -0.192 C  
HETATM   23  O   UNL     1      -8.661   8.028  65.195  1.00  0.00    -0.139 OA 
ENDBRANCH  16  17
ENDBRANCH  15  16
ENDBRANCH  13  15
ENDBRANCH   9  13
BRANCH   8  24
HETATM   24  C   UNL     1     -12.659  13.360  69.019  1.00  0.00     0.509 C  
BRANCH  24  25
HETATM   25  C   UNL     1     -12.105  11.994  69.354  1.00  0.00    -0.261 A  
HETATM   26  C   UNL     1     -11.524  11.132  68.424  1.00  0.00    -0.377 A  
HETATM   27  C   UNL     1     -11.704  10.306  71.076  1.00  0.00    -0.461 A  
HETATM   28  C   UNL     1     -11.131   9.420  70.151  1.00  0.00    -0.277 A  
HETATM   29  C   UNL     1     -12.170  11.570  70.689  1.00  0.00    -0.473 A  
HETATM   30  C   UNL     1     -10.995   9.902  68.833  1.00  0.00    -0.214 A  
BRANCH  28  31
HETATM   31  C   UNL     1     -10.616   8.072  70.555  1.00  0.00    -0.222 A  
HETATM   32  C   UNL     1     -11.159   5.865  71.526  1.00  0.00    -0.314 A  
HETATM   33  C   UNL     1     -11.540   7.044  70.875  1.00  0.00    -0.370 A  
HETATM   34  C   UNL     1      -9.825   5.638  71.815  1.00  0.00    -0.208 A  
HETATM   35  C   UNL     1      -8.874   6.572  71.417  1.00  0.00    -0.137 A  
HETATM   36  C   UNL     1      -9.253   7.770  70.775  1.00  0.00    -0.157 A  
BRANCH  36  37
HETATM   37  C   UNL     1      -8.128   8.622  70.346  1.00  0.00    -0.107 C  
HETATM   38  N   UNL     1      -7.558   8.572  69.188  1.00  0.00    -0.088 NA 
HETATM   39  O   UNL     1      -6.548   9.584  69.227  1.00  0.00    -0.047 OA 
HETATM   40  C   UNL     1      -6.635  10.167  70.465  1.00  0.00    -0.110 C  
HETATM   41  N   UNL     1      -7.629   9.575  71.144  1.00  0.00    -0.315 NA 
HETATM   42  O   UNL     1      -5.913  11.060  70.885  1.00  0.00    -0.327 OA 
ENDBRANCH  36  37
ENDBRANCH  28  31
ENDBRANCH  24  25
ENDBRANCH   8  24
ENDBRANCH   3   4
ENDBRANCH   2   3
TORSDOF 10
ENDMDL
MODEL        7
REMARK 921   NORMALIZED FREE ENERGY PREDICTED BY IDOCK:   -7.16 KCAL/MOL
REMARK 922        TOTAL FREE ENERGY PREDICTED BY IDOCK:  -14.27 KCAL/MOL
REMARK 923 INTER-LIGAND FREE ENERGY PREDICTED BY IDOCK:  -11.50 KCAL/MOL
REMARK 924 INTRA-LIGAND FREE ENERGY PREDICTED BY IDOCK:   -2.77 KCAL/MOL
REMARK 927      BINDING AFFINITY PREDICTED BY RF-SCORE:    0.00 PKD
ROOT
HETATM    1  C   UNL     1      -8.804   8.206  66.322  1.00  0.00    -0.193 C  
HETATM    2  C   UNL     1      -8.175   9.059  65.234  1.00  0.00    -0.137 C  
ENDROOT
BRANCH   2   3
HETATM    3  O   UNL     1      -8.027  10.400  65.708  1.00  0.00    -0.142 OA 
BRANCH   3   4
HETATM    4  C   UNL     1      -9.104  11.164  65.520  1.00  0.00    -0.195 A  
HETATM    5  N   UNL     1      -9.916  11.082  64.499  1.00  0.00    -0.282 NA 
HETATM    6  C   UNL     1     -10.873  12.031  64.728  1.00  0.00    -0.306 A  
HETATM    7  C   UNL     1     -10.643  12.733  65.919  1.00  0.00    -0.274 A  
HETATM    8  N   UNL     1      -9.514  12.114  66.428  1.00  0.00    -0.230 NA 
HETATM    9  C   UNL     1     -11.502  13.792  66.311  1.00  0.00    -0.349 A  
HETATM   10  C   UNL     1     -12.622  14.057  65.493  1.00  0.00    -0.543 A  
HETATM   11  C   UNL     1     -11.999  12.317  63.940  1.00  0.00    -0.582 A  
HETATM   12  C   UNL     1     -12.876  13.324  64.338  1.00  0.00    -0.069 A  
BRANCH   9  13
HETATM   13  C   UNL     1     -11.355  14.570  67.564  1.00  0.00    -0.340 C  
HETATM   14  O   UNL     1     -12.039  14.387  68.556  1.00  0.00    -0.318 OA 
BRANCH  13  15
HETATM   15  O   UNL     1     -10.415  15.541  67.412  1.00  0.00    -0.269 OA 
BRANCH  15  16
HETATM   16  C   UNL     1     -10.876  16.888  67.614  1.00  0.00    -0.244 C  
BRANCH  16  17
HETATM   17  C   UNL     1      -9.835  17.849  67.159  1.00  0.00    -0.308 C  
HETATM   18  O   UNL     1      -8.544  19.653  66.885  1.00  0.00    -0.289 OA 
HETATM   19  C   UNL     1      -9.624  19.095  67.528  1.00  0.00    -0.310 C  
HETATM   20  O   UNL     1      -8.921  17.463  66.192  1.00  0.00    -0.437 OA 
HETATM   21  C   UNL     1     -10.282  19.897  68.565  1.00  0.00    -0.529 C  
HETATM   22  C   UNL     1      -8.132  18.603  66.085  1.00  0.00    -0.182 C  
HETATM   23  O   UNL     1      -7.161  18.681  65.341  1.00  0.00    -0.520 OA 
ENDBRANCH  16  17
ENDBRANCH  15  16
ENDBRANCH  13  15
ENDBRANCH   9  13
BRANCH   8  24
HETATM   24  C   UNL     1      -8.943  12.222  67.761  1.00  0.00    -0.177 C  
BRANCH  24  25
HETATM   25  C   UNL     1      -9.262  11.084  68.704  1.00  0.00    -0.186 A  
HETATM   26  C   UNL     1      -8.300  10.307  69.350  1.00  0.00    -0.169 A  
HETATM   27  C   UNL     1     -10.989   9.741  69.794  1.00  0.00    -0.287 A  
HETATM   28  C   UNL     1     -10.035   8.939  70.440  1.00  0.00    -0.230 A  
HETATM   29  C   UNL     1     -10.611  10.798  68.955  1.00  0.00    -0.250 A  
HETATM   30  C   UNL     1      -8.686   9.301  70.245  1.00  0.00    -0.246 A  
BRANCH  28  31
HETATM   31  C   UNL     1     -10.427   7.816  71.351  1.00  0.00    -0.237 A  
HETATM   32  C   UNL     1     -10.748   7.073  73.686  1.00  0.00    -0.310 A  
HETATM   33  C   UNL     1     -10.660   8.086  72.725  1.00  0.00    -0.420 A  
HETATM   34  C   UNL     1     -10.680   5.746  73.298  1.00  0.00    -0.297 A  
HETATM   35  C   UNL     1     -10.564   5.438  71.947  1.00  0.00    -0.288 A  
HETATM   36  C   UNL     1     -10.458   6.454  70.974  1.00  0.00    -0.268 A  
BRANCH  36  37
HETATM   37  C   UNL     1     -10.418   5.972  69.580  1.00  0.00    -0.261 C  
HETATM   38  N   UNL     1     -11.295   6.251  68.673  1.00  0.00    -0.248 NA 
HETATM   39  O   UNL     1     -10.833   5.586  67.494  1.00  0.00    -0.192 OA 
HETATM   40  C   UNL     1      -9.665   4.958  67.839  1.00  0.00    -0.155 C  
HETATM   41  N   UNL     1      -9.409   5.217  69.130  1.00  0.00    -0.117 NA 
HETATM   42  O   UNL     1      -8.985   4.260  67.099  1.00  0.00    -0.113 OA 
ENDBRANCH  36  37
ENDBRANCH  28  31
ENDBRANCH  24  25
ENDBRANCH   8  24
ENDBRANCH   3   4
ENDBRANCH   2   3
TORSDOF 10
ENDMDL
MODEL        8
REMARK 921   NORMALIZED FREE ENERGY PREDICTED BY IDOCK:   -7.14 KCAL/MOL
REMARK 922        TOTAL FREE ENERGY PREDICTED BY IDOCK:  -14.24 KCAL/MOL
REMARK 923 INTER-LIGAND FREE ENERGY PREDICTED BY IDOCK:  -11.58 KCAL/MOL
REMARK 924 INTRA-LIGAND FREE ENERGY PREDICTED BY IDOCK:   -2.66 KCAL/MOL
REMARK 927      BINDING AFFINITY PREDICTED BY RF-SCORE:    0.00 PKD
ROOT
HETATM    1  C   UNL     1      -6.136  12.557  67.340  1.00  0.00    -0.155 C  
HETATM    2  C   UNL     1      -7.552  12.046  67.538  1.00  0.00    -0.147 C  
ENDROOT
BRANCH   2   3
HETATM    3  O   UNL     1      -7.825  11.019  66.581  1.00  0.00    -0.141 OA 
BRANCH   3   4
HETATM    4  C   UNL     1      -7.783   9.784  67.083  1.00  0.00    -0.095 A  
HETATM    5  N   UNL     1      -6.741   9.239  67.654  1.00  0.00    -0.068 NA 
HETATM    6  C   UNL     1      -7.152   7.990  68.026  1.00  0.00    -0.086 A  
HETATM    7  C   UNL     1      -8.484   7.745  67.667  1.00  0.00    -0.121 A  
HETATM    8  N   UNL     1      -8.875   8.946  67.098  1.00  0.00    -0.123 NA 
HETATM    9  C   UNL     1      -9.084   6.486  67.927  1.00  0.00    -0.113 A  
HETATM   10  C   UNL     1      -8.310   5.529  68.617  1.00  0.00    -0.101 A  
HETATM   11  C   UNL     1      -6.412   7.016  68.715  1.00  0.00    -0.032 A  
HETATM   12  C   UNL     1      -7.004   5.793  69.019  1.00  0.00    -0.067 A  
BRANCH   9  13
HETATM   13  C   UNL     1     -10.491   6.146  67.610  1.00  0.00    -0.234 C  
HETATM   14  O   UNL     1     -10.830   5.547  66.604  1.00  0.00    -0.288 OA 
BRANCH  13  15
HETATM   15  O   UNL     1     -11.328   6.659  68.552  1.00  0.00    -0.196 OA 
BRANCH  15  16
HETATM   16  C   UNL     1     -11.283   6.016  69.836  1.00  0.00    -0.368 C  
BRANCH  16  17
HETATM   17  C   UNL     1     -11.531   7.017  70.909  1.00  0.00    -0.308 C  
HETATM   18  O   UNL     1     -11.297   8.499  72.566  1.00  0.00    -0.368 OA 
HETATM   19  C   UNL     1     -10.677   7.620  71.709  1.00  0.00    -0.216 C  
HETATM   20  O   UNL     1     -12.828   7.417  71.185  1.00  0.00    -0.326 OA 
HETATM   21  C   UNL     1      -9.211   7.571  71.735  1.00  0.00    -0.162 C  
HETATM   22  C   UNL     1     -12.622   8.353  72.193  1.00  0.00    -0.364 C  
HETATM   23  O   UNL     1     -13.529   8.989  72.717  1.00  0.00    -0.428 OA 
ENDBRANCH  16  17
ENDBRANCH  15  16
ENDBRANCH  13  15
ENDBRANCH   9  13
BRANCH   8  24
HETATM   24  C   UNL     1     -10.217   9.400  66.770  1.00  0.00    -0.250 C  
BRANCH  24  25
HETATM   25  C   UNL     1     -10.808  10.429  67.706  1.00  0.00    -0.351 A  
HETATM   26  C   UNL     1     -11.330  11.656  67.297  1.00  0.00    -0.372 A  
HETATM   27  C   UNL     1     -11.350  11.038  70.010  1.00  0.00    -0.358 A  
HETATM   28  C   UNL     1     -11.865  12.284  69.618  1.00  0.00    -0.393 A  
HETATM   29  C   UNL     1     -10.844  10.126  69.074  1.00  0.00    -0.257 A  
HETATM   30  C   UNL     1     -11.901  12.530  68.230  1.00  0.00    -0.361 A  
BRANCH  28  31
HETATM   31  C   UNL     1     -12.422  13.261  70.608  1.00  0.00    -0.373 A  
HETATM   32  C   UNL     1     -14.026  13.641  72.449  1.00  0.00    -0.651 A  
HETATM   33  C   UNL     1     -13.244  12.787  71.663  1.00  0.00    -0.410 A  
HETATM   34  C   UNL     1     -13.957  15.010  72.257  1.00  0.00    -0.611 A  
HETATM   35  C   UNL     1     -13.079  15.521  71.307  1.00  0.00    -0.581 A  
HETATM   36  C   UNL     1     -12.300  14.665  70.500  1.00  0.00    -0.400 A  
BRANCH  36  37
HETATM   37  C   UNL     1     -11.362  15.355  69.595  1.00  0.00    -0.307 C  
HETATM   38  N   UNL     1     -11.682  15.896  68.466  1.00  0.00    -0.361 NA 
HETATM   39  O   UNL     1     -10.464  16.452  67.962  1.00  0.00    -0.280 OA 
HETATM   40  C   UNL     1      -9.500  16.178  68.898  1.00  0.00    -0.244 C  
HETATM   41  N   UNL     1     -10.071  15.513  69.913  1.00  0.00    -0.293 NA 
HETATM   42  O   UNL     1      -8.316  16.472  68.809  1.00  0.00    -0.227 OA 
ENDBRANCH  36  37
ENDBRANCH  28  31
ENDBRANCH  24  25
ENDBRANCH   8  24
ENDBRANCH   3   4
ENDBRANCH   2   3
TORSDOF 10
ENDMDL
MODEL        9
REMARK 921   NORMALIZED FREE ENERGY PREDICTED BY IDOCK:   -7.10 KCAL/MOL
REMARK 922        TOTAL FREE ENERGY PREDICTED BY IDOCK:  -14.17 KCAL/MOL
REMARK 923 INTER-LIGAND FREE ENERGY PREDICTED BY IDOCK:  -11.66 KCAL/MOL
REMARK 924 INTRA-LIGAND FREE ENERGY PREDICTED BY IDOCK:   -2.50 KCAL/MOL
REMARK 927      BINDING AFFINITY PREDICTED BY RF-SCORE:    0.00 PKD
ROOT
HETATM    1  C   UNL     1      -6.705   8.086  67.220  1.00  0.00    -0.065 C  
HETATM    2  C   UNL     1      -6.506   6.779  67.967  1.00  0.00    -0.053 C  
ENDROOT
BRANCH   2   3
HETATM    3  O   UNL     1      -7.781   6.206  68.270  1.00  0.00    -0.099 OA 
BRANCH   3   4
HETATM    4  C   UNL     1      -8.225   6.485  69.496  1.00  0.00    -0.126 A  
HETATM    5  N   UNL     1      -7.555   6.286  70.602  1.00  0.00    -0.094 NA 
HETATM    6  C   UNL     1      -8.378   6.726  71.600  1.00  0.00    -0.111 A  
HETATM    7  C   UNL     1      -9.600   7.202  71.104  1.00  0.00    -0.164 A  
HETATM    8  N   UNL     1      -9.447   7.072  69.734  1.00  0.00    -0.146 NA 
HETATM    9  C   UNL     1     -10.610   7.663  71.988  1.00  0.00    -0.264 A  
HETATM   10  C   UNL     1     -10.306   7.684  73.366  1.00  0.00    -0.374 A  
HETATM   11  C   UNL     1      -8.108   6.766  72.977  1.00  0.00    -0.113 A  
HETATM   12  C   UNL     1      -9.073   7.259  73.852  1.00  0.00    -0.276 A  
BRANCH   9  13
HETATM   13  C   UNL     1     -11.917   8.209  71.554  1.00  0.00    -0.298 C  
HETATM   14  O   UNL     1     -12.864   7.514  71.228  1.00  0.00    -0.334 OA 
BRANCH  13  15
HETATM   15  O   UNL     1     -11.873   9.567  71.508  1.00  0.00    -0.354 OA 
BRANCH  15  16
HETATM   16  C   UNL     1     -13.137  10.223  71.314  1.00  0.00    -0.398 C  
BRANCH  16  17
HETATM   17  C   UNL     1     -12.979  11.689  71.517  1.00  0.00    -0.358 C  
HETATM   18  O   UNL     1     -12.495  13.857  71.267  1.00  0.00    -0.344 OA 
HETATM   19  C   UNL     1     -12.436  12.593  70.729  1.00  0.00    -0.270 C  
HETATM   20  O   UNL     1     -13.429  12.270  72.692  1.00  0.00    -0.271 OA 
HETATM   21  C   UNL     1     -11.903  12.462  69.369  1.00  0.00    -0.365 C  
HETATM   22  C   UNL     1     -13.133  13.610  72.470  1.00  0.00    -0.388 C  
HETATM   23  O   UNL     1     -13.400  14.499  73.270  1.00  0.00    -0.611 OA 
ENDBRANCH  16  17
ENDBRANCH  15  16
ENDBRANCH  13  15
ENDBRANCH   9  13
BRANCH   8  24
HETATM   24  C   UNL     1     -10.265   7.635  68.672  1.00  0.00    -0.199 C  
BRANCH  24  25
HETATM   25  C   UNL     1      -9.918   9.046  68.254  1.00  0.00    -0.198 A  
HETATM   26  C   UNL     1      -9.228   9.955  69.056  1.00  0.00    -0.168 A  
HETATM   27  C   UNL     1     -10.046  10.767  66.523  1.00  0.00    -0.277 A  
HETATM   28  C   UNL     1      -9.366  11.699  67.322  1.00  0.00    -0.170 A  
HETATM   29  C   UNL     1     -10.305   9.465  66.974  1.00  0.00    -0.322 A  
HETATM   30  C   UNL     1      -8.908  11.228  68.570  1.00  0.00    -0.159 A  
BRANCH  28  31
HETATM   31  C   UNL     1      -9.070  13.088  66.845  1.00  0.00    -0.227 A  
HETATM   32  C   UNL     1      -7.629  15.083  67.076  1.00  0.00    -0.077 A  
HETATM   33  C   UNL     1      -7.855  13.711  67.233  1.00  0.00    -0.109 A  
HETATM   34  C   UNL     1      -8.582  15.872  66.455  1.00  0.00    -0.364 A  
HETATM   35  C   UNL     1      -9.739  15.278  65.960  1.00  0.00    -0.367 A  
HETATM   36  C   UNL     1      -9.981  13.899  66.130  1.00  0.00    -0.322 A  
BRANCH  36  37
HETATM   37  C   UNL     1     -11.212  13.405  65.485  1.00  0.00    -0.288 C  
HETATM   38  N   UNL     1     -12.407  13.555  65.951  1.00  0.00    -0.455 NA 
HETATM   39  O   UNL     1     -13.263  12.936  64.987  1.00  0.00    -0.765 OA 
HETATM   40  C   UNL     1     -12.445  12.467  63.992  1.00  0.00    -0.459 C  
HETATM   41  N   UNL     1     -11.178  12.777  64.303  1.00  0.00    -0.341 NA 
HETATM   42  O   UNL     1     -12.810  11.849  63.001  1.00  0.00    -0.520 OA 
ENDBRANCH  36  37
ENDBRANCH  28  31
ENDBRANCH  24  25
ENDBRANCH   8  24
ENDBRANCH   3   4
ENDBRANCH   2   3
TORSDOF 10
ENDMDL
MODEL       10
REMARK 921   NORMALIZED FREE ENERGY PREDICTED BY IDOCK:   -7.03 KCAL/MOL
REMARK 922        TOTAL FREE ENERGY PREDICTED BY IDOCK:  -14.07 KCAL/MOL
REMARK 923 INTER-LIGAND FREE ENERGY PREDICTED BY IDOCK:  -11.39 KCAL/MOL
REMARK 924 INTRA-LIGAND FREE ENERGY PREDICTED BY IDOCK:   -2.68 KCAL/MOL
REMARK 927      BINDING AFFINITY PREDICTED BY RF-SCORE:    0.00 PKD
ROOT
HETATM    1  C   UNL     1     -10.497   7.332  73.239  1.00  0.00    -0.416 C  
HETATM    2  C   UNL     1      -9.130   7.994  73.224  1.00  0.00    -0.282 C  
ENDROOT
BRANCH   2   3
HETATM    3  O   UNL     1      -9.063   8.919  72.136  1.00  0.00    -0.375 OA 
BRANCH   3   4
HETATM    4  C   UNL     1      -8.604   8.391  71.001  1.00  0.00    -0.155 A  
HETATM    5  N   UNL     1      -7.516   7.672  70.892  1.00  0.00    -0.070 NA 
HETATM    6  C   UNL     1      -7.445   7.333  69.570  1.00  0.00    -0.091 A  
HETATM    7  C   UNL     1      -8.512   7.865  68.831  1.00  0.00    -0.128 A  
HETATM    8  N   UNL     1      -9.266   8.507  69.800  1.00  0.00    -0.155 NA 
HETATM    9  C   UNL     1      -8.594   7.663  67.430  1.00  0.00    -0.125 A  
HETATM   10  C   UNL     1      -7.603   6.854  66.832  1.00  0.00    -0.094 A  
HETATM   11  C   UNL     1      -6.479   6.530  68.943  1.00  0.00    -0.043 A  
HETATM   12  C   UNL     1      -6.574   6.285  67.575  1.00  0.00    -0.052 A  
BRANCH   9  13
HETATM   13  C   UNL     1      -9.696   8.161  66.574  1.00  0.00    -0.239 C  
HETATM   14  O   UNL     1     -10.874   7.949  66.800  1.00  0.00    -0.234 OA 
BRANCH  13  15
HETATM   15  O   UNL     1      -9.198   8.811  65.488  1.00  0.00    -0.203 OA 
BRANCH  15  16
HETATM   16  C   UNL     1      -8.992  10.224  65.650  1.00  0.00    -0.172 C  
BRANCH  16  17
HETATM   17  C   UNL     1     -10.014  10.974  64.871  1.00  0.00    -0.288 C  
HETATM   18  O   UNL     1     -11.158  11.995  63.245  1.00  0.00    -0.384 OA 
HETATM   19  C   UNL     1     -10.018  11.312  63.599  1.00  0.00    -0.359 C  
HETATM   20  O   UNL     1     -11.154  11.438  65.505  1.00  0.00    -0.239 OA 
HETATM   21  C   UNL     1      -9.071  10.978  62.529  1.00  0.00    -0.362 C  
HETATM   22  C   UNL     1     -11.837  12.033  64.449  1.00  0.00    -0.313 C  
HETATM   23  O   UNL     1     -12.939  12.555  64.570  1.00  0.00    -0.752 OA 
ENDBRANCH  16  17
ENDBRANCH  15  16
ENDBRANCH  13  15
ENDBRANCH   9  13
BRANCH   8  24
HETATM   24  C   UNL     1     -10.622   9.023  69.700  1.00  0.00    -0.224 C  
BRANCH  24  25
HETATM   25  C   UNL     1     -10.744  10.462  69.250  1.00  0.00    -0.270 A  
HETATM   26  C   UNL     1     -11.956  11.131  69.083  1.00  0.00    -0.413 A  
HETATM   27  C   UNL     1      -9.591  12.500  68.550  1.00  0.00    -0.114 A  
HETATM   28  C   UNL     1     -10.802  13.185  68.360  1.00  0.00    -0.283 A  
HETATM   29  C   UNL     1      -9.562  11.172  68.997  1.00  0.00    -0.099 A  
HETATM   30  C   UNL     1     -11.973  12.480  68.707  1.00  0.00    -0.283 A  
BRANCH  28  31
HETATM   31  C   UNL     1     -10.845  14.609  67.897  1.00  0.00    -0.261 A  
HETATM   32  C   UNL     1     -10.190  16.228  66.149  1.00  0.00    -0.361 A  
HETATM   33  C   UNL     1     -10.451  14.919  66.570  1.00  0.00    -0.297 A  
HETATM   34  C   UNL     1     -10.388  17.285  67.020  1.00  0.00    -0.318 A  
HETATM   35  C   UNL     1     -10.881  17.031  68.296  1.00  0.00    -0.341 A  
HETATM   36  C   UNL     1     -11.130  15.714  68.733  1.00  0.00    -0.307 A  
BRANCH  36  37
HETATM   37  C   UNL     1     -11.723  15.611  70.079  1.00  0.00    -0.357 C  
HETATM   38  N   UNL     1     -11.061  15.398  71.168  1.00  0.00    -0.351 NA 
HETATM   39  O   UNL     1     -12.044  15.399  72.207  1.00  0.00    -0.341 OA 
HETATM   40  C   UNL     1     -13.248  15.635  71.597  1.00  0.00    -0.472 C  
HETATM   41  N   UNL     1     -13.035  15.782  70.281  1.00  0.00    -0.254 NA 
HETATM   42  O   UNL     1     -14.334  15.681  72.157  1.00  0.00    -0.514 OA 
ENDBRANCH  36  37
ENDBRANCH  28  31
ENDBRANCH  24  25
ENDBRANCH   8  24
ENDBRANCH   3   4
ENDBRANCH   2   3
TORSDOF 10
ENDMDL
MODEL       11
REMARK 921   NORMALIZED FREE ENERGY PREDICTED BY IDOCK:   -6.98 KCAL/MOL
REMARK 922        TOTAL FREE ENERGY PREDICTED BY IDOCK:  -13.97 KCAL/MOL
REMARK 923 INTER-LIGAND FREE ENERGY PREDICTED BY IDOCK:  -11.61 KCAL/MOL
REMARK 924 INTRA-LIGAND FREE ENERGY PREDICTED BY IDOCK:   -2.37 KCAL/MOL
REMARK 927      BINDING AFFINITY PREDICTED BY RF-SCORE:    0.00 PKD
ROOT
HETATM    1  C   UNL     1     -11.921  11.802  63.477  1.00  0.00    -0.484 C  
HETATM    2  C   UNL     1     -12.543  12.703  64.529  1.00  0.00    -0.412 C  
ENDROOT
BRANCH   2   3
HETATM    3  O   UNL     1     -12.213  12.214  65.830  1.00  0.00    -0.604 OA 
BRANCH   3   4
HETATM    4  C   UNL     1     -11.684  13.133  66.639  1.00  0.00    -0.375 A  
HETATM    5  N   UNL     1     -12.353  14.091  67.228  1.00  0.00    -0.274 NA 
HETATM    6  C   UNL     1     -11.424  14.774  67.962  1.00  0.00    -0.331 A  
HETATM    7  C   UNL     1     -10.138  14.235  67.816  1.00  0.00    -0.231 A  
HETATM    8  N   UNL     1     -10.352  13.146  66.988  1.00  0.00    -0.247 NA 
HETATM    9  C   UNL     1      -9.026  14.832  68.464  1.00  0.00    -0.182 A  
HETATM   10  C   UNL     1      -9.281  15.937  69.305  1.00  0.00    -0.254 A  
HETATM   11  C   UNL     1     -11.642  15.871  68.809  1.00  0.00    -0.389 A  
HETATM   12  C   UNL     1     -10.566  16.438  69.488  1.00  0.00    -0.320 A  
BRANCH   9  13
HETATM   13  C   UNL     1      -7.639  14.317  68.392  1.00  0.00    -0.124 C  
HETATM   14  O   UNL     1      -7.123  13.642  69.266  1.00  0.00    -0.080 OA 
BRANCH  13  15
HETATM   15  O   UNL     1      -7.023  14.766  67.265  1.00  0.00    -0.218 OA 
BRANCH  15  16
HETATM   16  C   UNL     1      -6.046  15.801  67.463  1.00  0.00    -0.133 C  
BRANCH  16  17
HETATM   17  C   UNL     1      -6.698  17.135  67.360  1.00  0.00    -0.148 C  
HETATM   18  O   UNL     1      -7.364  19.239  67.718  1.00  0.00    -0.245 OA 
HETATM   19  C   UNL     1      -6.619  18.172  68.167  1.00  0.00    -0.201 C  
HETATM   20  O   UNL     1      -7.543  17.404  66.296  1.00  0.00    -0.271 OA 
HETATM   21  C   UNL     1      -5.797  18.378  69.364  1.00  0.00    -0.236 C  
HETATM   22  C   UNL     1      -7.901  18.723  66.551  1.00  0.00    -0.269 C  
HETATM   23  O   UNL     1      -8.634  19.376  65.818  1.00  0.00    -0.405 OA 
ENDBRANCH  16  17
ENDBRANCH  15  16
ENDBRANCH  13  15
ENDBRANCH   9  13
BRANCH   8  24
HETATM   24  C   UNL     1      -9.453  12.044  66.686  1.00  0.00    -0.217 C  
BRANCH  24  25
HETATM   25  C   UNL     1      -9.608  10.815  67.551  1.00  0.00    -0.176 A  
HETATM   26  C   UNL     1     -10.391   9.711  67.214  1.00  0.00    -0.310 A  
HETATM   27  C   UNL     1      -9.025   9.685  69.639  1.00  0.00    -0.215 A  
HETATM   28  C   UNL     1      -9.820   8.572  69.323  1.00  0.00    -0.185 A  
HETATM   29  C   UNL     1      -8.911  10.776  68.767  1.00  0.00    -0.171 A  
HETATM   30  C   UNL     1     -10.440   8.593  68.056  1.00  0.00    -0.254 A  
BRANCH  28  31
HETATM   31  C   UNL     1      -9.938   7.393  70.240  1.00  0.00    -0.188 A  
HETATM   32  C   UNL     1      -9.087   5.150  70.831  1.00  0.00    -0.175 A  
HETATM   33  C   UNL     1      -8.922   6.403  70.230  1.00  0.00    -0.154 A  
HETATM   34  C   UNL     1     -10.247   4.868  71.531  1.00  0.00    -0.264 A  
HETATM   35  C   UNL     1     -11.220   5.854  71.659  1.00  0.00    -0.300 A  
HETATM   36  C   UNL     1     -11.068   7.113  71.041  1.00  0.00    -0.287 A  
BRANCH  36  37
HETATM   37  C   UNL     1     -12.146   8.077  71.331  1.00  0.00    -0.305 C  
HETATM   38  N   UNL     1     -13.408   7.798  71.346  1.00  0.00    -0.299 NA 
HETATM   39  O   UNL     1     -14.056   9.026  71.690  1.00  0.00    -0.360 OA 
HETATM   40  C   UNL     1     -13.059   9.951  71.862  1.00  0.00    -0.459 C  
HETATM   41  N   UNL     1     -11.880   9.349  71.654  1.00  0.00    -0.374 NA 
HETATM   42  O   UNL     1     -13.223  11.132  72.136  1.00  0.00    -0.481 OA 
ENDBRANCH  36  37
ENDBRANCH  28  31
ENDBRANCH  24  25
ENDBRANCH   8  24
ENDBRANCH   3   4
ENDBRANCH   2   3
TORSDOF 10
ENDMDL
MODEL       12
REMARK 921   NORMALIZED FREE ENERGY PREDICTED BY IDOCK:   -6.97 KCAL/MOL
REMARK 922        TOTAL FREE ENERGY PREDICTED BY IDOCK:  -13.96 KCAL/MOL
REMARK 923 INTER-LIGAND FREE ENERGY PREDICTED BY IDOCK:  -11.02 KCAL/MOL
REMARK 924 INTRA-LIGAND FREE ENERGY PREDICTED BY IDOCK:   -2.94 KCAL/MOL
REMARK 927      BINDING AFFINITY PREDICTED BY RF-SCORE:    0.00 PKD
ROOT
HETATM    1  C   UNL     1      -6.855   7.427  65.161  1.00  0.00    -0.047 C  
HETATM    2  C   UNL     1      -8.029   8.181  64.563  1.00  0.00    -0.142 C  
ENDROOT
BRANCH   2   3
HETATM    3  O   UNL     1      -7.803   9.587  64.686  1.00  0.00    -0.112 OA 
BRANCH   3   4
HETATM    4  C   UNL     1      -8.913  10.323  64.629  1.00  0.00    -0.211 A  
HETATM    5  N   UNL     1      -9.686  10.440  63.580  1.00  0.00    -0.304 NA 
HETATM    6  C   UNL     1     -10.701  11.265  63.976  1.00  0.00    -0.377 A  
HETATM    7  C   UNL     1     -10.550  11.686  65.305  1.00  0.00    -0.281 A  
HETATM    8  N   UNL     1      -9.406  11.020  65.710  1.00  0.00    -0.204 NA 
HETATM    9  C   UNL     1     -11.479  12.585  65.888  1.00  0.00    -0.417 A  
HETATM   10  C   UNL     1     -12.584  12.977  65.103  1.00  0.00    -0.530 A  
HETATM   11  C   UNL     1     -11.814  11.672  63.224  1.00  0.00    -0.232 A  
HETATM   12  C   UNL     1     -12.758  12.518  63.801  1.00  0.00    -0.414 A  
BRANCH   9  13
HETATM   13  C   UNL     1     -11.418  13.060  67.290  1.00  0.00    -0.332 C  
HETATM   14  O   UNL     1     -10.860  14.089  67.630  1.00  0.00    -0.257 OA 
BRANCH  13  15
HETATM   15  O   UNL     1     -12.000  12.157  68.124  1.00  0.00    -0.430 OA 
BRANCH  15  16
HETATM   16  C   UNL     1     -11.257  11.843  69.314  1.00  0.00    -0.242 C  
BRANCH  16  17
HETATM   17  C   UNL     1     -12.154  11.914  70.500  1.00  0.00    -0.331 C  
HETATM   18  O   UNL     1     -13.392  11.423  72.296  1.00  0.00    -0.410 OA 
HETATM   19  C   UNL     1     -12.579  10.952  71.290  1.00  0.00    -0.421 C  
HETATM   20  O   UNL     1     -12.679  13.136  70.889  1.00  0.00    -0.307 OA 
HETATM   21  C   UNL     1     -12.233   9.527  71.314  1.00  0.00    -0.433 C  
HETATM   22  C   UNL     1     -13.409  12.779  72.018  1.00  0.00    -0.466 C  
HETATM   23  O   UNL     1     -14.024  13.585  72.705  1.00  0.00    -0.752 OA 
ENDBRANCH  16  17
ENDBRANCH  15  16
ENDBRANCH  13  15
ENDBRANCH   9  13
BRANCH   8  24
HETATM   24  C   UNL     1      -8.887  10.845  67.057  1.00  0.00    -0.140 C  
BRANCH  24  25
HETATM   25  C   UNL     1      -9.183   9.512  67.706  1.00  0.00    -0.136 A  
HETATM   26  C   UNL     1     -10.394   8.831  67.583  1.00  0.00    -0.317 A  
HETATM   27  C   UNL     1      -8.378   7.696  69.130  1.00  0.00    -0.131 A  
HETATM   28  C   UNL     1      -9.595   7.004  69.030  1.00  0.00    -0.141 A  
HETATM   29  C   UNL     1      -8.172   8.917  68.473  1.00  0.00    -0.116 A  
HETATM   30  C   UNL     1     -10.565   7.577  68.182  1.00  0.00    -0.201 A  
BRANCH  28  31
HETATM   31  C   UNL     1      -9.822   5.691  69.716  1.00  0.00    -0.245 A  
HETATM   32  C   UNL     1     -10.375   4.540  71.831  1.00  0.00    -0.198 A  
HETATM   33  C   UNL     1     -10.392   5.677  71.015  1.00  0.00    -0.297 A  
HETATM   34  C   UNL     1      -9.853   3.352  71.348  1.00  0.00    -0.204 A  
HETATM   35  C   UNL     1      -9.387   3.297  70.039  1.00  0.00    -0.238 A  
HETATM   36  C   UNL     1      -9.385   4.442  69.217  1.00  0.00    -0.223 A  
BRANCH  36  37
HETATM   37  C   UNL     1      -8.932   4.208  67.833  1.00  0.00    -0.121 C  
HETATM   38  N   UNL     1      -7.763   3.772  67.498  1.00  0.00    -0.078 NA 
HETATM   39  O   UNL     1      -7.793   3.688  66.070  1.00  0.00    -0.088 OA 
HETATM   40  C   UNL     1      -9.045   4.093  65.687  1.00  0.00    -0.137 C  
HETATM   41  N   UNL     1      -9.748   4.397  66.788  1.00  0.00    -0.202 NA 
HETATM   42  O   UNL     1      -9.444   4.183  64.534  1.00  0.00    -0.154 OA 
ENDBRANCH  36  37
ENDBRANCH  28  31
ENDBRANCH  24  25
ENDBRANCH   8  24
ENDBRANCH   3   4
ENDBRANCH   2   3
TORSDOF 10
ENDMDL
MODEL       13
REMARK 921   NORMALIZED FREE ENERGY PREDICTED BY IDOCK:   -6.78 KCAL/MOL
REMARK 922        TOTAL FREE ENERGY PREDICTED BY IDOCK:  -13.67 KCAL/MOL
REMARK 923 INTER-LIGAND FREE ENERGY PREDICTED BY IDOCK:  -11.69 KCAL/MOL
REMARK 924 INTRA-LIGAND FREE ENERGY PREDICTED BY IDOCK:   -1.97 KCAL/MOL
REMARK 927      BINDING AFFINITY PREDICTED BY RF-SCORE:    0.00 PKD
ROOT
HETATM    1  C   UNL     1      -7.038   7.909  63.806  1.00  0.00    -0.077 C  
HETATM    2  C   UNL     1      -8.033   8.572  64.742  1.00  0.00    -0.143 C  
ENDROOT
BRANCH   2   3
HETATM    3  O   UNL     1      -7.858   9.990  64.693  1.00  0.00    -0.137 OA 
BRANCH   3   4
HETATM    4  C   UNL     1      -9.001  10.679  64.701  1.00  0.00    -0.197 A  
HETATM    5  N   UNL     1      -9.912  10.634  63.765  1.00  0.00    -0.333 NA 
HETATM    6  C   UNL     1     -10.903  11.473  64.193  1.00  0.00    -0.372 A  
HETATM    7  C   UNL     1     -10.594  12.067  65.425  1.00  0.00    -0.278 A  
HETATM    8  N   UNL     1      -9.375  11.494  65.745  1.00  0.00    -0.229 NA 
HETATM    9  C   UNL     1     -11.478  13.006  66.017  1.00  0.00    -0.374 A  
HETATM   10  C   UNL     1     -12.696  13.260  65.351  1.00  0.00    -0.460 A  
HETATM   11  C   UNL     1     -12.126  11.745  63.560  1.00  0.00    -0.485 A  
HETATM   12  C   UNL     1     -13.023  12.630  64.154  1.00  0.00    -0.166 A  
BRANCH   9  13
HETATM   13  C   UNL     1     -11.249  13.661  67.326  1.00  0.00    -0.309 C  
HETATM   14  O   UNL     1     -11.549  13.158  68.394  1.00  0.00    -0.292 OA 
BRANCH  13  15
HETATM   15  O   UNL     1     -10.736  14.909  67.149  1.00  0.00    -0.284 OA 
BRANCH  15  16
HETATM   16  C   UNL     1     -11.234  15.917  68.045  1.00  0.00    -0.319 C  
BRANCH  16  17
HETATM   17  C   UNL     1     -10.283  17.060  68.094  1.00  0.00    -0.322 C  
HETATM   18  O   UNL     1      -8.489  18.356  68.408  1.00  0.00    -0.310 OA 
HETATM   19  C   UNL     1      -9.051  17.109  68.554  1.00  0.00    -0.265 C  
HETATM   20  O   UNL     1     -10.679  18.301  67.621  1.00  0.00    -0.419 OA 
HETATM   21  C   UNL     1      -8.194  16.038  69.074  1.00  0.00    -0.235 C  
HETATM   22  C   UNL     1      -9.524  19.053  67.811  1.00  0.00    -0.304 C  
HETATM   23  O   UNL     1      -9.428  20.231  67.491  1.00  0.00    -0.375 OA 
ENDBRANCH  16  17
ENDBRANCH  15  16
ENDBRANCH  13  15
ENDBRANCH   9  13
BRANCH   8  24
HETATM   24  C   UNL     1      -8.670  11.512  67.017  1.00  0.00    -0.169 C  
BRANCH  24  25
HETATM   25  C   UNL     1      -9.028  10.403  67.980  1.00  0.00    -0.129 A  
HETATM   26  C   UNL     1     -10.040   9.469  67.761  1.00  0.00    -0.244 A  
HETATM   27  C   UNL     1      -8.575   9.317  70.123  1.00  0.00    -0.215 A  
HETATM   28  C   UNL     1      -9.600   8.379  69.926  1.00  0.00    -0.171 A  
HETATM   29  C   UNL     1      -8.287  10.300  69.166  1.00  0.00    -0.154 A  
HETATM   30  C   UNL     1     -10.272   8.445  68.688  1.00  0.00    -0.220 A  
BRANCH  28  31
HETATM   31  C   UNL     1      -9.908   7.315  70.935  1.00  0.00    -0.184 A  
HETATM   32  C   UNL     1      -9.301   5.097  71.842  1.00  0.00    -0.171 A  
HETATM   33  C   UNL     1      -8.976   6.265  71.143  1.00  0.00    -0.146 A  
HETATM   34  C   UNL     1     -10.550   4.968  72.425  1.00  0.00    -0.275 A  
HETATM   35  C   UNL     1     -11.453   6.022  72.338  1.00  0.00    -0.357 A  
HETATM   36  C   UNL     1     -11.138   7.195  71.622  1.00  0.00    -0.264 A  
BRANCH  36  37
HETATM   37  C   UNL     1     -12.165   8.252  71.685  1.00  0.00    -0.313 C  
HETATM   38  N   UNL     1     -13.441   8.047  71.715  1.00  0.00    -0.344 NA 
HETATM   39  O   UNL     1     -14.024   9.351  71.794  1.00  0.00    -0.307 OA 
HETATM   40  C   UNL     1     -12.980  10.239  71.814  1.00  0.00    -0.469 C  
HETATM   41  N   UNL     1     -11.833   9.546  71.764  1.00  0.00    -0.385 NA 
HETATM   42  O   UNL     1     -13.082  11.457  71.849  1.00  0.00    -0.492 OA 
ENDBRANCH  36  37
ENDBRANCH  28  31
ENDBRANCH  24  25
ENDBRANCH   8  24
ENDBRANCH   3   4
ENDBRANCH   2   3
TORSDOF 10
ENDMDL
MODEL       14
REMARK 921   NORMALIZED FREE ENERGY PREDICTED BY IDOCK:   -6.75 KCAL/MOL
REMARK 922        TOTAL FREE ENERGY PREDICTED BY IDOCK:  -13.61 KCAL/MOL
REMARK 923 INTER-LIGAND FREE ENERGY PREDICTED BY IDOCK:  -10.53 KCAL/MOL
REMARK 924 INTRA-LIGAND FREE ENERGY PREDICTED BY IDOCK:   -3.08 KCAL/MOL
REMARK 927      BINDING AFFINITY PREDICTED BY RF-SCORE:    0.00 PKD
ROOT
HETATM    1  C   UNL     1     -10.948  15.508  70.096  1.00  0.00    -0.336 C  
HETATM    2  C   UNL     1     -11.629  15.368  68.746  1.00  0.00    -0.368 C  
ENDROOT
BRANCH   2   3
HETATM    3  O   UNL     1     -12.154  14.044  68.615  1.00  0.00    -0.351 OA 
BRANCH   3   4
HETATM    4  C   UNL     1     -11.866  13.459  67.452  1.00  0.00    -0.375 A  
HETATM    5  N   UNL     1     -12.471  13.699  66.318  1.00  0.00    -0.403 NA 
HETATM    6  C   UNL     1     -11.846  12.898  65.404  1.00  0.00    -0.403 A  
HETATM    7  C   UNL     1     -10.830  12.127  65.987  1.00  0.00    -0.282 A  
HETATM    8  N   UNL     1     -10.842  12.550  67.306  1.00  0.00    -0.239 NA 
HETATM    9  C   UNL     1     -10.092  11.197  65.210  1.00  0.00    -0.329 A  
HETATM   10  C   UNL     1     -10.376  11.134  63.829  1.00  0.00    -0.447 A  
HETATM   11  C   UNL     1     -12.100  12.813  64.026  1.00  0.00    -0.533 A  
HETATM   12  C   UNL     1     -11.350  11.938  63.244  1.00  0.00    -0.373 A  
BRANCH   9  13
HETATM   13  C   UNL     1      -8.985  10.363  65.732  1.00  0.00    -0.168 C  
HETATM   14  O   UNL     1      -7.874  10.796  65.984  1.00  0.00    -0.156 OA 
BRANCH  13  15
HETATM   15  O   UNL     1      -9.369   9.060  65.813  1.00  0.00    -0.223 OA 
BRANCH  15  16
HETATM   16  C   UNL     1      -8.528   8.121  65.123  1.00  0.00    -0.116 C  
BRANCH  16  17
HETATM   17  C   UNL     1      -7.853   7.232  66.107  1.00  0.00    -0.108 C  
HETATM   18  O   UNL     1      -6.739   5.561  67.088  1.00  0.00    -0.055 OA 
HETATM   19  C   UNL     1      -7.261   6.072  65.922  1.00  0.00    -0.075 C  
HETATM   20  O   UNL     1      -7.813   7.596  67.443  1.00  0.00    -0.114 OA 
HETATM   21  C   UNL     1      -6.994   5.334  64.683  1.00  0.00    -0.049 C  
HETATM   22  C   UNL     1      -7.087   6.545  67.996  1.00  0.00    -0.086 C  
HETATM   23  O   UNL     1      -6.790   6.484  69.183  1.00  0.00    -0.060 OA 
ENDBRANCH  16  17
ENDBRANCH  15  16
ENDBRANCH  13  15
ENDBRANCH   9  13
BRANCH   8  24
HETATM   24  C   UNL     1      -9.853  12.311  68.344  1.00  0.00    -0.199 C  
BRANCH  24  25
HETATM   25  C   UNL     1     -10.083  11.086  69.201  1.00  0.00    -0.167 A  
HETATM   26  C   UNL     1     -11.322  10.716  69.724  1.00  0.00    -0.371 A  
HETATM   27  C   UNL     1      -9.108   9.126  70.286  1.00  0.00    -0.247 A  
HETATM   28  C   UNL     1     -10.344   8.747  70.834  1.00  0.00    -0.281 A  
HETATM   29  C   UNL     1      -8.983  10.263  69.477  1.00  0.00    -0.176 A  
HETATM   30  C   UNL     1     -11.452   9.538  70.470  1.00  0.00    -0.337 A  
BRANCH  28  31
HETATM   31  C   UNL     1     -10.493   7.525  71.689  1.00  0.00    -0.226 A  
HETATM   32  C   UNL     1     -10.508   6.603  73.981  1.00  0.00    -0.309 A  
HETATM   33  C   UNL     1     -10.648   7.674  73.091  1.00  0.00    -0.438 A  
HETATM   34  C   UNL     1     -10.283   5.327  73.495  1.00  0.00    -0.229 A  
HETATM   35  C   UNL     1     -10.236   5.122  72.120  1.00  0.00    -0.258 A  
HETATM   36  C   UNL     1     -10.359   6.199  71.218  1.00  0.00    -0.264 A  
BRANCH  36  37
HETATM   37  C   UNL     1     -10.367   5.813  69.794  1.00  0.00    -0.263 C  
HETATM   38  N   UNL     1      -9.801   4.759  69.307  1.00  0.00    -0.197 NA 
HETATM   39  O   UNL     1     -10.088   4.796  67.906  1.00  0.00    -0.131 OA 
HETATM   40  C   UNL     1     -10.843   5.921  67.699  1.00  0.00    -0.239 C  
HETATM   41  N   UNL     1     -11.024   6.535  68.877  1.00  0.00    -0.306 NA 
HETATM   42  O   UNL     1     -11.260   6.310  66.617  1.00  0.00    -0.243 OA 
ENDBRANCH  36  37
ENDBRANCH  28  31
ENDBRANCH  24  25
ENDBRANCH   8  24
ENDBRANCH   3   4
ENDBRANCH   2   3
TORSDOF 10
ENDMDL
MODEL       15
REMARK 921   NORMALIZED FREE ENERGY PREDICTED BY IDOCK:   -6.74 KCAL/MOL
REMARK 922        TOTAL FREE ENERGY PREDICTED BY IDOCK:  -13.60 KCAL/MOL
REMARK 923 INTER-LIGAND FREE ENERGY PREDICTED BY IDOCK:  -10.27 KCAL/MOL
REMARK 924 INTRA-LIGAND FREE ENERGY PREDICTED BY IDOCK:   -3.33 KCAL/MOL
REMARK 927      BINDING AFFINITY PREDICTED BY RF-SCORE:    0.00 PKD
ROOT
HETATM    1  C   UNL     1     -12.867  11.169  71.577  1.00  0.00    -0.542 C  
HETATM    2  C   UNL     1     -13.393   9.774  71.869  1.00  0.00    -0.436 C  
ENDROOT
BRANCH   2   3
HETATM    3  O   UNL     1     -12.659   8.819  71.099  1.00  0.00    -0.272 OA 
BRANCH   3   4
HETATM    4  C   UNL     1     -11.422   8.596  71.545  1.00  0.00    -0.295 A  
HETATM    5  N   UNL     1     -11.119   8.198  72.753  1.00  0.00    -0.382 NA 
HETATM    6  C   UNL     1      -9.757   8.086  72.759  1.00  0.00    -0.280 A  
HETATM    7  C   UNL     1      -9.194   8.436  71.523  1.00  0.00    -0.196 A  
HETATM    8  N   UNL     1     -10.306   8.717  70.748  1.00  0.00    -0.201 NA 
HETATM    9  C   UNL     1      -7.787   8.427  71.341  1.00  0.00    -0.137 A  
HETATM   10  C   UNL     1      -6.995   7.991  72.424  1.00  0.00    -0.090 A  
HETATM   11  C   UNL     1      -8.939   7.652  73.814  1.00  0.00    -0.315 A  
HETATM   12  C   UNL     1      -7.559   7.595  73.633  1.00  0.00    -0.152 A  
BRANCH   9  13
HETATM   13  C   UNL     1      -7.106   8.753  70.066  1.00  0.00    -0.047 C  
HETATM   14  O   UNL     1      -6.460   9.770  69.887  1.00  0.00    -0.049 OA 
BRANCH  13  15
HETATM   15  O   UNL     1      -7.370   7.801  69.130  1.00  0.00    -0.083 OA 
BRANCH  15  16
HETATM   16  C   UNL     1      -6.729   7.989  67.857  1.00  0.00    -0.068 C  
BRANCH  16  17
HETATM   17  C   UNL     1      -7.701   8.555  66.883  1.00  0.00    -0.091 C  
HETATM   18  O   UNL     1      -9.403   8.847  65.463  1.00  0.00    -0.215 OA 
HETATM   19  C   UNL     1      -8.732   7.983  66.297  1.00  0.00    -0.153 C  
HETATM   20  O   UNL     1      -7.564   9.868  66.463  1.00  0.00    -0.101 OA 
HETATM   21  C   UNL     1      -9.304   6.646  66.486  1.00  0.00    -0.191 C  
HETATM   22  C   UNL     1      -8.657  10.003  65.613  1.00  0.00    -0.155 C  
HETATM   23  O   UNL     1      -8.935  11.047  65.036  1.00  0.00    -0.189 OA 
ENDBRANCH  16  17
ENDBRANCH  15  16
ENDBRANCH  13  15
ENDBRANCH   9  13
BRANCH   8  24
HETATM   24  C   UNL     1     -10.388   8.886  69.306  1.00  0.00    -0.213 C  
BRANCH  24  25
HETATM   25  C   UNL     1     -10.412  10.314  68.812  1.00  0.00    -0.222 A  
HETATM   26  C   UNL     1      -9.359  11.215  68.965  1.00  0.00    -0.065 A  
HETATM   27  C   UNL     1     -11.676  12.077  67.685  1.00  0.00    -0.365 A  
HETATM   28  C   UNL     1     -10.632  13.002  67.844  1.00  0.00    -0.239 A  
HETATM   29  C   UNL     1     -11.564  10.759  68.148  1.00  0.00    -0.276 A  
HETATM   30  C   UNL     1      -9.451  12.508  68.434  1.00  0.00    -0.167 A  
BRANCH  28  31
HETATM   31  C   UNL     1     -10.734  14.410  67.341  1.00  0.00    -0.280 A  
HETATM   32  C   UNL     1     -10.157  16.001  65.541  1.00  0.00    -0.336 A  
HETATM   33  C   UNL     1     -10.363  14.696  66.001  1.00  0.00    -0.317 A  
HETATM   34  C   UNL     1     -10.388  17.075  66.383  1.00  0.00    -0.304 A  
HETATM   35  C   UNL     1     -10.861  16.839  67.670  1.00  0.00    -0.252 A  
HETATM   36  C   UNL     1     -11.055  15.526  68.147  1.00  0.00    -0.325 A  
BRANCH  36  37
HETATM   37  C   UNL     1     -11.632  15.440  69.502  1.00  0.00    -0.332 C  
HETATM   38  N   UNL     1     -12.556  14.613  69.864  1.00  0.00    -0.241 NA 
HETATM   39  O   UNL     1     -12.775  14.885  71.251  1.00  0.00    -0.297 OA 
HETATM   40  C   UNL     1     -11.905  15.890  71.588  1.00  0.00    -0.490 C  
HETATM   41  N   UNL     1     -11.191  16.215  70.500  1.00  0.00    -0.377 NA 
HETATM   42  O   UNL     1     -11.815  16.415  72.689  1.00  0.00    -0.533 OA 
ENDBRANCH  36  37
ENDBRANCH  28  31
ENDBRANCH  24  25
ENDBRANCH   8  24
ENDBRANCH   3   4
ENDBRANCH   2   3
TORSDOF 10
ENDMDL
MODEL       16
REMARK 921   NORMALIZED FREE ENERGY PREDICTED BY IDOCK:   -6.72 KCAL/MOL
REMARK 922        TOTAL FREE ENERGY PREDICTED BY IDOCK:  -13.57 KCAL/MOL
REMARK 923 INTER-LIGAND FREE ENERGY PREDICTED BY IDOCK:  -10.82 KCAL/MOL
REMARK 924 INTRA-LIGAND FREE ENERGY PREDICTED BY IDOCK:   -2.75 KCAL/MOL
REMARK 927      BINDING AFFINITY PREDICTED BY RF-SCORE:    0.00 PKD
ROOT
HETATM    1  C   UNL     1      -9.837  11.823  63.455  1.00  0.00    -0.386 C  
HETATM    2  C   UNL     1      -9.220  10.559  64.028  1.00  0.00    -0.253 C  
ENDROOT
BRANCH   2   3
HETATM    3  O   UNL     1     -10.158   9.927  64.903  1.00  0.00    -0.268 OA 
BRANCH   3   4
HETATM    4  C   UNL     1      -9.638   8.940  65.634  1.00  0.00    -0.105 A  
HETATM    5  N   UNL     1      -8.628   8.190  65.277  1.00  0.00    -0.142 NA 
HETATM    6  C   UNL     1      -8.431   7.336  66.325  1.00  0.00    -0.134 A  
HETATM    7  C   UNL     1      -9.352   7.550  67.360  1.00  0.00    -0.140 A  
HETATM    8  N   UNL     1     -10.090   8.626  66.896  1.00  0.00    -0.258 NA 
HETATM    9  C   UNL     1      -9.341   6.733  68.519  1.00  0.00    -0.126 A  
HETATM   10  C   UNL     1      -8.330   5.752  68.613  1.00  0.00    -0.107 A  
HETATM   11  C   UNL     1      -7.436   6.353  66.453  1.00  0.00    -0.086 A  
HETATM   12  C   UNL     1      -7.385   5.575  67.607  1.00  0.00    -0.076 A  
BRANCH   9  13
HETATM   13  C   UNL     1     -10.255   6.903  69.673  1.00  0.00    -0.193 C  
HETATM   14  O   UNL     1     -11.353   6.380  69.748  1.00  0.00    -0.384 OA 
BRANCH  13  15
HETATM   15  O   UNL     1      -9.723   7.770  70.577  1.00  0.00    -0.175 OA 
BRANCH  15  16
HETATM   16  C   UNL     1     -10.536   8.040  71.731  1.00  0.00    -0.238 C  
BRANCH  16  17
HETATM   17  C   UNL     1     -11.512   9.119  71.417  1.00  0.00    -0.350 C  
HETATM   18  O   UNL     1     -13.378  10.301  71.075  1.00  0.00    -0.368 OA 
HETATM   19  C   UNL     1     -12.827   9.084  71.404  1.00  0.00    -0.300 C  
HETATM   20  O   UNL     1     -11.051  10.376  71.059  1.00  0.00    -0.204 OA 
HETATM   21  C   UNL     1     -13.747   8.007  71.783  1.00  0.00    -0.416 C  
HETATM   22  C   UNL     1     -12.243  11.071  70.890  1.00  0.00    -0.367 C  
HETATM   23  O   UNL     1     -12.293  12.259  70.592  1.00  0.00    -0.354 OA 
ENDBRANCH  16  17
ENDBRANCH  15  16
ENDBRANCH  13  15
ENDBRANCH   9  13
BRANCH   8  24
HETATM   24  C   UNL     1     -11.019   9.473  67.628  1.00  0.00    -0.081 C  
BRANCH  24  25
HETATM   25  C   UNL     1     -10.750  10.959  67.554  1.00  0.00    -0.299 A  
HETATM   26  C   UNL     1     -11.624  11.887  66.988  1.00  0.00    -0.365 A  
HETATM   27  C   UNL     1      -9.215  12.795  68.046  1.00  0.00    -0.208 A  
HETATM   28  C   UNL     1     -10.074  13.742  67.467  1.00  0.00    -0.241 A  
HETATM   29  C   UNL     1      -9.551  11.436  68.100  1.00  0.00    -0.190 A  
HETATM   30  C   UNL     1     -11.313  13.253  67.005  1.00  0.00    -0.346 A  
BRANCH  28  31
HETATM   31  C   UNL     1      -9.732  15.200  67.416  1.00  0.00    -0.209 A  
HETATM   32  C   UNL     1      -8.350  16.957  66.364  1.00  0.00    -0.333 A  
HETATM   33  C   UNL     1      -8.946  15.691  66.342  1.00  0.00    -0.362 A  
HETATM   34  C   UNL     1      -8.579  17.809  67.430  1.00  0.00    -0.233 A  
HETATM   35  C   UNL     1      -9.435  17.406  68.450  1.00  0.00    -0.293 A  
HETATM   36  C   UNL     1     -10.026  16.126  68.443  1.00  0.00    -0.230 A  
BRANCH  36  37
HETATM   37  C   UNL     1     -10.968  15.874  69.551  1.00  0.00    -0.311 C  
HETATM   38  N   UNL     1     -12.248  15.756  69.425  1.00  0.00    -0.238 NA 
HETATM   39  O   UNL     1     -12.730  15.504  70.748  1.00  0.00    -0.430 OA 
HETATM   40  C   UNL     1     -11.627  15.487  71.562  1.00  0.00    -0.419 C  
HETATM   41  N   UNL     1     -10.539  15.701  70.807  1.00  0.00    -0.161 NA 
HETATM   42  O   UNL     1     -11.639  15.328  72.774  1.00  0.00    -0.445 OA 
ENDBRANCH  36  37
ENDBRANCH  28  31
ENDBRANCH  24  25
ENDBRANCH   8  24
ENDBRANCH   3   4
ENDBRANCH   2   3
TORSDOF 10
ENDMDL
MODEL       17
REMARK 921   NORMALIZED FREE ENERGY PREDICTED BY IDOCK:   -6.66 KCAL/MOL
REMARK 922        TOTAL FREE ENERGY PREDICTED BY IDOCK:  -13.48 KCAL/MOL
REMARK 923 INTER-LIGAND FREE ENERGY PREDICTED BY IDOCK:  -10.47 KCAL/MOL
REMARK 924 INTRA-LIGAND FREE ENERGY PREDICTED BY IDOCK:   -3.01 KCAL/MOL
REMARK 927      BINDING AFFINITY PREDICTED BY RF-SCORE:    0.00 PKD
ROOT
HETATM    1  C   UNL     1     -12.139  11.722  63.498  1.00  0.00    -0.485 C  
HETATM    2  C   UNL     1     -12.490  12.781  64.528  1.00  0.00    -0.428 C  
ENDROOT
BRANCH   2   3
HETATM    3  O   UNL     1     -12.129  12.315  65.831  1.00  0.00    -0.609 OA 
BRANCH   3   4
HETATM    4  C   UNL     1     -11.563  13.244  66.603  1.00  0.00    -0.365 A  
HETATM    5  N   UNL     1     -12.195  14.243  67.163  1.00  0.00    -0.369 NA 
HETATM    6  C   UNL     1     -11.237  14.919  67.865  1.00  0.00    -0.315 A  
HETATM    7  C   UNL     1      -9.971  14.333  67.729  1.00  0.00    -0.227 A  
HETATM    8  N   UNL     1     -10.229  13.224  66.940  1.00  0.00    -0.248 NA 
HETATM    9  C   UNL     1      -8.834  14.915  68.347  1.00  0.00    -0.178 A  
HETATM   10  C   UNL     1      -9.045  16.056  69.151  1.00  0.00    -0.246 A  
HETATM   11  C   UNL     1     -11.411  16.052  68.676  1.00  0.00    -0.377 A  
HETATM   12  C   UNL     1     -10.311  16.606  69.326  1.00  0.00    -0.318 A  
BRANCH   9  13
HETATM   13  C   UNL     1      -7.465  14.352  68.282  1.00  0.00    -0.123 C  
HETATM   14  O   UNL     1      -6.846  14.202  67.243  1.00  0.00    -0.226 OA 
BRANCH  13  15
HETATM   15  O   UNL     1      -7.049  13.970  69.520  1.00  0.00    -0.071 OA 
BRANCH  15  16
HETATM   16  C   UNL     1      -5.661  13.613  69.625  1.00  0.00    -0.102 C  
BRANCH  16  17
HETATM   17  C   UNL     1      -5.536  12.244  70.195  1.00  0.00    -0.141 C  
HETATM   18  O   UNL     1      -5.316  10.036  70.463  1.00  0.00    -0.041 OA 
HETATM   19  C   UNL     1      -5.425  11.086  69.580  1.00  0.00    -0.041 C  
HETATM   20  O   UNL     1      -5.547  12.071  71.569  1.00  0.00    -0.381 OA 
HETATM   21  C   UNL     1      -5.293  10.783  68.151  1.00  0.00    -0.036 C  
HETATM   22  C   UNL     1      -5.378  10.695  71.678  1.00  0.00     0.065 C  
HETATM   23  O   UNL     1      -5.300  10.109  72.751  1.00  0.00    -0.313 OA 
ENDBRANCH  16  17
ENDBRANCH  15  16
ENDBRANCH  13  15
ENDBRANCH   9  13
BRANCH   8  24
HETATM   24  C   UNL     1      -9.369  12.083  66.670  1.00  0.00    -0.219 C  
BRANCH  24  25
HETATM   25  C   UNL     1      -9.463  10.942  67.657  1.00  0.00    -0.170 A  
HETATM   26  C   UNL     1      -8.846  10.933  68.907  1.00  0.00    -0.143 A  
HETATM   27  C   UNL     1     -10.344   8.715  68.144  1.00  0.00    -0.267 A  
HETATM   28  C   UNL     1      -9.717   8.682  69.399  1.00  0.00    -0.176 A  
HETATM   29  C   UNL     1     -10.231   9.826  67.297  1.00  0.00    -0.289 A  
HETATM   30  C   UNL     1      -9.026   9.851  69.778  1.00  0.00    -0.242 A  
BRANCH  28  31
HETATM   31  C   UNL     1      -9.844   7.506  70.319  1.00  0.00    -0.183 A  
HETATM   32  C   UNL     1      -8.975   5.281  70.952  1.00  0.00    -0.160 A  
HETATM   33  C   UNL     1      -8.812   6.533  70.348  1.00  0.00    -0.151 A  
HETATM   34  C   UNL     1     -10.152   4.984  71.617  1.00  0.00    -0.260 A  
HETATM   35  C   UNL     1     -11.145   5.954  71.707  1.00  0.00    -0.324 A  
HETATM   36  C   UNL     1     -10.995   7.212  71.087  1.00  0.00    -0.272 A  
BRANCH  36  37
HETATM   37  C   UNL     1     -12.097   8.159  71.336  1.00  0.00    -0.297 C  
HETATM   38  N   UNL     1     -13.351   7.904  71.154  1.00  0.00    -0.127 NA 
HETATM   39  O   UNL     1     -14.033   9.100  71.542  1.00  0.00    -0.354 OA 
HETATM   40  C   UNL     1     -13.064   9.982  71.944  1.00  0.00    -0.460 C  
HETATM   41  N   UNL     1     -11.870   9.383  71.828  1.00  0.00    -0.384 NA 
HETATM   42  O   UNL     1     -13.258  11.129  72.322  1.00  0.00    -0.413 OA 
ENDBRANCH  36  37
ENDBRANCH  28  31
ENDBRANCH  24  25
ENDBRANCH   8  24
ENDBRANCH   3   4
ENDBRANCH   2   3
TORSDOF 10
ENDMDL
MODEL       18
REMARK 921   NORMALIZED FREE ENERGY PREDICTED BY IDOCK:   -6.65 KCAL/MOL
REMARK 922        TOTAL FREE ENERGY PREDICTED BY IDOCK:  -13.46 KCAL/MOL
REMARK 923 INTER-LIGAND FREE ENERGY PREDICTED BY IDOCK:  -10.29 KCAL/MOL
REMARK 924 INTRA-LIGAND FREE ENERGY PREDICTED BY IDOCK:   -3.17 KCAL/MOL
REMARK 927      BINDING AFFINITY PREDICTED BY RF-SCORE:    0.00 PKD
ROOT
HETATM    1  C   UNL     1     -12.925  11.403  71.665  1.00  0.00    -0.523 C  
HETATM    2  C   UNL     1     -13.525  10.046  71.990  1.00  0.00    -0.347 C  
ENDROOT
BRANCH   2   3
HETATM    3  O   UNL     1     -12.886   9.043  71.197  1.00  0.00    -0.275 OA 
BRANCH   3   4
HETATM    4  C   UNL     1     -11.720   8.622  71.689  1.00  0.00    -0.313 A  
HETATM    5  N   UNL     1     -11.525   8.211  72.915  1.00  0.00    -0.326 NA 
HETATM    6  C   UNL     1     -10.204   7.866  72.968  1.00  0.00    -0.327 A  
HETATM    7  C   UNL     1      -9.554   8.080  71.745  1.00  0.00    -0.176 A  
HETATM    8  N   UNL     1     -10.578   8.528  70.926  1.00  0.00    -0.201 NA 
HETATM    9  C   UNL     1      -8.165   7.824  71.609  1.00  0.00    -0.121 A  
HETATM   10  C   UNL     1      -7.492   7.287  72.728  1.00  0.00    -0.082 A  
HETATM   11  C   UNL     1      -9.504   7.327  74.059  1.00  0.00    -0.295 A  
HETATM   12  C   UNL     1      -8.151   7.028  73.925  1.00  0.00    -0.138 A  
BRANCH   9  13
HETATM   13  C   UNL     1      -7.401   7.993  70.351  1.00  0.00    -0.063 C  
HETATM   14  O   UNL     1      -6.584   8.879  70.171  1.00  0.00    -0.037 OA 
BRANCH  13  15
HETATM   15  O   UNL     1      -7.797   7.075  69.428  1.00  0.00    -0.109 OA 
BRANCH  15  16
HETATM   16  C   UNL     1      -7.042   7.059  68.205  1.00  0.00    -0.082 C  
BRANCH  16  17
HETATM   17  C   UNL     1      -7.770   7.822  67.155  1.00  0.00    -0.105 C  
HETATM   18  O   UNL     1      -9.232   8.485  65.600  1.00  0.00    -0.178 OA 
HETATM   19  C   UNL     1      -8.856   7.501  66.485  1.00  0.00    -0.148 C  
HETATM   20  O   UNL     1      -7.289   9.056  66.749  1.00  0.00    -0.085 OA 
HETATM   21  C   UNL     1      -9.745   6.343  66.625  1.00  0.00    -0.197 C  
HETATM   22  C   UNL     1      -8.246   9.432  65.812  1.00  0.00    -0.116 C  
HETATM   23  O   UNL     1      -8.219  10.502  65.215  1.00  0.00    -0.161 OA 
ENDBRANCH  16  17
ENDBRANCH  15  16
ENDBRANCH  13  15
ENDBRANCH   9  13
BRANCH   8  24
HETATM   24  C   UNL     1     -10.587   8.668  69.479  1.00  0.00    -0.213 C  
BRANCH  24  25
HETATM   25  C   UNL     1     -10.397  10.073  68.955  1.00  0.00    -0.223 A  
HETATM   26  C   UNL     1      -9.187  10.765  68.983  1.00  0.00    -0.157 A  
HETATM   27  C   UNL     1     -11.421  12.032  67.912  1.00  0.00    -0.396 A  
HETATM   28  C   UNL     1     -10.215  12.749  67.946  1.00  0.00    -0.229 A  
HETATM   29  C   UNL     1     -11.508  10.719  68.394  1.00  0.00    -0.358 A  
HETATM   30  C   UNL     1      -9.092  12.049  68.432  1.00  0.00    -0.158 A  
BRANCH  28  31
HETATM   31  C   UNL     1     -10.106  14.148  67.421  1.00  0.00    -0.240 A  
HETATM   32  C   UNL     1      -9.774  16.535  67.968  1.00  0.00    -0.236 A  
HETATM   33  C   UNL     1      -9.639  15.177  68.278  1.00  0.00    -0.211 A  
HETATM   34  C   UNL     1     -10.315  16.913  66.751  1.00  0.00    -0.298 A  
HETATM   35  C   UNL     1     -10.682  15.932  65.836  1.00  0.00    -0.303 A  
HETATM   36  C   UNL     1     -10.565  14.562  66.149  1.00  0.00    -0.308 A  
BRANCH  36  37
HETATM   37  C   UNL     1     -10.921  13.645  65.050  1.00  0.00    -0.346 C  
HETATM   38  N   UNL     1     -10.081  12.938  64.370  1.00  0.00    -0.294 NA 
HETATM   39  O   UNL     1     -10.881  12.201  63.441  1.00  0.00    -0.431 OA 
HETATM   40  C   UNL     1     -12.181  12.558  63.685  1.00  0.00    -0.550 C  
HETATM   41  N   UNL     1     -12.196  13.440  64.696  1.00  0.00    -0.441 NA 
HETATM   42  O   UNL     1     -13.158  12.156  63.070  1.00  0.00    -0.496 OA 
ENDBRANCH  36  37
ENDBRANCH  28  31
ENDBRANCH  24  25
ENDBRANCH   8  24
ENDBRANCH   3   4
ENDBRANCH   2   3
TORSDOF 10
ENDMDL
MODEL       19
REMARK 921   NORMALIZED FREE ENERGY PREDICTED BY IDOCK:   -6.64 KCAL/MOL
REMARK 922        TOTAL FREE ENERGY PREDICTED BY IDOCK:  -13.45 KCAL/MOL
REMARK 923 INTER-LIGAND FREE ENERGY PREDICTED BY IDOCK:  -10.79 KCAL/MOL
REMARK 924 INTRA-LIGAND FREE ENERGY PREDICTED BY IDOCK:   -2.65 KCAL/MOL
REMARK 927      BINDING AFFINITY PREDICTED BY RF-SCORE:    0.00 PKD
ROOT
HETATM    1  C   UNL     1     -11.237  11.507  63.574  1.00  0.00    -0.412 C  
HETATM    2  C   UNL     1     -10.701  12.895  63.877  1.00  0.00    -0.357 C  
ENDROOT
BRANCH   2   3
HETATM    3  O   UNL     1     -11.715  13.664  64.528  1.00  0.00    -0.367 OA 
BRANCH   3   4
HETATM    4  C   UNL     1     -11.244  14.675  65.260  1.00  0.00    -0.358 A  
HETATM    5  N   UNL     1     -10.901  15.847  64.791  1.00  0.00    -0.583 NA 
HETATM    6  C   UNL     1     -10.498  16.563  65.883  1.00  0.00    -0.323 A  
HETATM    7  C   UNL     1     -10.580  15.813  67.064  1.00  0.00    -0.316 A  
HETATM    8  N   UNL     1     -11.110  14.610  66.628  1.00  0.00    -0.327 NA 
HETATM    9  C   UNL     1     -10.164  16.365  68.303  1.00  0.00    -0.255 A  
HETATM   10  C   UNL     1      -9.733  17.709  68.302  1.00  0.00    -0.315 A  
HETATM   11  C   UNL     1     -10.068  17.899  65.919  1.00  0.00    -0.177 A  
HETATM   12  C   UNL     1      -9.701  18.468  67.136  1.00  0.00    -0.315 A  
BRANCH   9  13
HETATM   13  C   UNL     1     -10.241  15.660  69.603  1.00  0.00    -0.291 C  
HETATM   14  O   UNL     1      -9.516  14.731  69.911  1.00  0.00     0.152 OA 
BRANCH  13  15
HETATM   15  O   UNL     1     -11.269  16.149  70.348  1.00  0.00    -0.364 OA 
BRANCH  15  16
HETATM   16  C   UNL     1     -12.558  15.571  70.082  1.00  0.00    -0.267 C  
BRANCH  16  17
HETATM   17  C   UNL     1     -12.857  14.520  71.093  1.00  0.00    -0.338 C  
HETATM   18  O   UNL     1     -13.458  13.427  72.948  1.00  0.00    -0.576 OA 
HETATM   19  C   UNL     1     -13.285  14.644  72.331  1.00  0.00    -0.406 C  
HETATM   20  O   UNL     1     -12.668  13.186  70.771  1.00  0.00    -0.273 OA 
HETATM   21  C   UNL     1     -13.692  15.842  73.075  1.00  0.00    -0.583 C  
HETATM   22  C   UNL     1     -13.083  12.556  71.939  1.00  0.00    -0.368 C  
HETATM   23  O   UNL     1     -13.106  11.339  72.076  1.00  0.00    -0.495 OA 
ENDBRANCH  16  17
ENDBRANCH  15  16
ENDBRANCH  13  15
ENDBRANCH   9  13
BRANCH   8  24
HETATM   24  C   UNL     1     -11.668  13.524  67.419  1.00  0.00    -0.380 C  
BRANCH  24  25
HETATM   25  C   UNL     1     -10.827  12.270  67.496  1.00  0.00    -0.271 A  
HETATM   26  C   UNL     1     -11.265  11.006  67.102  1.00  0.00    -0.290 A  
HETATM   27  C   UNL     1      -8.685  11.268  68.113  1.00  0.00    -0.155 A  
HETATM   28  C   UNL     1      -9.114   9.986  67.737  1.00  0.00    -0.137 A  
HETATM   29  C   UNL     1      -9.518  12.388  67.984  1.00  0.00    -0.208 A  
HETATM   30  C   UNL     1     -10.400   9.906  67.165  1.00  0.00    -0.304 A  
BRANCH  28  31
HETATM   31  C   UNL     1      -8.227   8.784  67.856  1.00  0.00    -0.111 A  
HETATM   32  C   UNL     1      -7.388   6.980  69.322  1.00  0.00    -0.092 A  
HETATM   33  C   UNL     1      -8.349   7.942  68.991  1.00  0.00    -0.130 A  
HETATM   34  C   UNL     1      -6.304   6.773  68.486  1.00  0.00    -0.031 A  
HETATM   35  C   UNL     1      -6.207   7.501  67.305  1.00  0.00    -0.052 A  
HETATM   36  C   UNL     1      -7.163   8.484  66.974  1.00  0.00    -0.079 A  
BRANCH  36  37
HETATM   37  C   UNL     1      -6.968   9.117  65.656  1.00  0.00    -0.081 C  
HETATM   38  N   UNL     1      -5.960   9.857  65.329  1.00  0.00    -0.077 NA 
HETATM   39  O   UNL     1      -6.194  10.222  63.966  1.00  0.00    -0.137 OA 
HETATM   40  C   UNL     1      -7.371   9.621  63.603  1.00  0.00    -0.115 C  
HETATM   41  N   UNL     1      -7.833   8.925  64.653  1.00  0.00    -0.117 NA 
HETATM   42  O   UNL     1      -7.917   9.722  62.514  1.00  0.00    -0.114 OA 
ENDBRANCH  36  37
ENDBRANCH  28  31
ENDBRANCH  24  25
ENDBRANCH   8  24
ENDBRANCH   3   4
ENDBRANCH   2   3
TORSDOF 10
ENDMDL
MODEL       20
REMARK 921   NORMALIZED FREE ENERGY PREDICTED BY IDOCK:   -6.64 KCAL/MOL
REMARK 922        TOTAL FREE ENERGY PREDICTED BY IDOCK:  -13.44 KCAL/MOL
REMARK 923 INTER-LIGAND FREE ENERGY PREDICTED BY IDOCK:  -10.67 KCAL/MOL
REMARK 924 INTRA-LIGAND FREE ENERGY PREDICTED BY IDOCK:   -2.77 KCAL/MOL
REMARK 927      BINDING AFFINITY PREDICTED BY RF-SCORE:    0.00 PKD
ROOT
HETATM    1  C   UNL     1     -13.045  15.217  73.124  1.00  0.00    -0.627 C  
HETATM    2  C   UNL     1     -12.692  15.578  71.691  1.00  0.00    -0.434 C  
ENDROOT
BRANCH   2   3
HETATM    3  O   UNL     1     -11.939  14.513  71.105  1.00  0.00    -0.331 OA 
BRANCH   3   4
HETATM    4  C   UNL     1     -11.331  14.842  69.965  1.00  0.00    -0.274 A  
HETATM    5  N   UNL     1     -10.451  15.801  69.831  1.00  0.00    -0.307 NA 
HETATM    6  C   UNL     1     -10.087  15.768  68.515  1.00  0.00    -0.215 A  
HETATM    7  C   UNL     1     -10.767  14.769  67.804  1.00  0.00    -0.268 A  
HETATM    8  N   UNL     1     -11.531  14.160  68.786  1.00  0.00    -0.279 NA 
HETATM    9  C   UNL     1     -10.559  14.603  66.411  1.00  0.00    -0.301 A  
HETATM   10  C   UNL     1      -9.599  15.434  65.794  1.00  0.00    -0.368 A  
HETATM   11  C   UNL     1      -9.135  16.574  67.870  1.00  0.00    -0.206 A  
HETATM   12  C   UNL     1      -8.888  16.391  66.512  1.00  0.00    -0.316 A  
BRANCH   9  13
HETATM   13  C   UNL     1     -11.210  13.559  65.585  1.00  0.00    -0.292 C  
HETATM   14  O   UNL     1     -12.416  13.475  65.431  1.00  0.00    -0.445 OA 
BRANCH  13  15
HETATM   15  O   UNL     1     -10.283  12.690  65.101  1.00  0.00    -0.287 OA 
BRANCH  15  16
HETATM   16  C   UNL     1     -10.464  11.315  65.481  1.00  0.00    -0.265 C  
BRANCH  16  17
HETATM   17  C   UNL     1      -9.201  10.560  65.254  1.00  0.00    -0.200 C  
HETATM   18  O   UNL     1      -7.091   9.825  65.321  1.00  0.00    -0.106 OA 
HETATM   19  C   UNL     1      -8.006  10.749  65.771  1.00  0.00    -0.122 C  
HETATM   20  O   UNL     1      -9.190   9.495  64.368  1.00  0.00    -0.231 OA 
HETATM   21  C   UNL     1      -7.560  11.695  66.800  1.00  0.00    -0.104 C  
HETATM   22  C   UNL     1      -7.873   9.061  64.473  1.00  0.00    -0.123 C  
HETATM   23  O   UNL     1      -7.433   8.095  63.861  1.00  0.00    -0.101 OA 
ENDBRANCH  16  17
ENDBRANCH  15  16
ENDBRANCH  13  15
ENDBRANCH   9  13
BRANCH   8  24
HETATM   24  C   UNL     1     -12.249  12.897  68.724  1.00  0.00     0.017 C  
BRANCH  24  25
HETATM   25  C   UNL     1     -11.543  11.710  69.338  1.00  0.00    -0.392 A  
HETATM   26  C   UNL     1     -10.303  11.231  68.919  1.00  0.00    -0.214 A  
HETATM   27  C   UNL     1     -11.596   9.929  71.012  1.00  0.00    -0.470 A  
HETATM   28  C   UNL     1     -10.355   9.424  70.593  1.00  0.00    -0.349 A  
HETATM   29  C   UNL     1     -12.172  11.055  70.407  1.00  0.00    -0.461 A  
HETATM   30  C   UNL     1      -9.700  10.152  69.578  1.00  0.00    -0.251 A  
BRANCH  28  31
HETATM   31  C   UNL     1      -9.723   8.231  71.242  1.00  0.00    -0.225 A  
HETATM   32  C   UNL     1      -8.441   7.373  73.172  1.00  0.00    -0.164 A  
HETATM   33  C   UNL     1      -9.285   8.324  72.588  1.00  0.00    -0.345 A  
HETATM   34  C   UNL     1      -8.065   6.251  72.454  1.00  0.00    -0.104 A  
HETATM   35  C   UNL     1      -8.565   6.067  71.168  1.00  0.00    -0.129 A  
HETATM   36  C   UNL     1      -9.402   7.030  70.567  1.00  0.00    -0.159 A  
BRANCH  36  37
HETATM   37  C   UNL     1      -9.912   6.658  69.234  1.00  0.00    -0.158 C  
HETATM   38  N   UNL     1     -11.143   6.373  68.963  1.00  0.00    -0.353 NA 
HETATM   39  O   UNL     1     -11.160   6.098  67.560  1.00  0.00    -0.330 OA 
HETATM   40  C   UNL     1      -9.874   6.269  67.119  1.00  0.00    -0.142 C  
HETATM   41  N   UNL     1      -9.112   6.632  68.161  1.00  0.00    -0.120 NA 
HETATM   42  O   UNL     1      -9.484   6.096  65.972  1.00  0.00    -0.121 OA 
ENDBRANCH  36  37
ENDBRANCH  28  31
ENDBRANCH  24  25
ENDBRANCH   8  24
ENDBRANCH   3   4
ENDBRANCH   2   3
TORSDOF 10
ENDMDL
MODEL       21
REMARK 921   NORMALIZED FREE ENERGY PREDICTED BY IDOCK:   -6.57 KCAL/MOL
REMARK 922        TOTAL FREE ENERGY PREDICTED BY IDOCK:  -13.33 KCAL/MOL
REMARK 923 INTER-LIGAND FREE ENERGY PREDICTED BY IDOCK:  -10.27 KCAL/MOL
REMARK 924 INTRA-LIGAND FREE ENERGY PREDICTED BY IDOCK:   -3.07 KCAL/MOL
REMARK 927      BINDING AFFINITY PREDICTED BY RF-SCORE:    0.00 PKD
ROOT
HETATM    1  C   UNL     1     -13.120  10.213  71.740  1.00  0.00    -0.568 C  
HETATM    2  C   UNL     1     -12.552   8.866  72.152  1.00  0.00    -0.399 C  
ENDROOT
BRANCH   2   3
HETATM    3  O   UNL     1     -11.124   8.933  72.152  1.00  0.00    -0.362 OA 
BRANCH   3   4
HETATM    4  C   UNL     1     -10.535   7.986  71.421  1.00  0.00    -0.215 A  
HETATM    5  N   UNL     1     -10.957   6.754  71.305  1.00  0.00    -0.242 NA 
HETATM    6  C   UNL     1     -10.070   6.152  70.457  1.00  0.00    -0.189 A  
HETATM    7  C   UNL     1      -9.060   7.031  70.042  1.00  0.00    -0.145 A  
HETATM    8  N   UNL     1      -9.418   8.222  70.651  1.00  0.00    -0.161 NA 
HETATM    9  C   UNL     1      -8.015   6.583  69.193  1.00  0.00    -0.111 A  
HETATM   10  C   UNL     1      -8.078   5.248  68.736  1.00  0.00    -0.090 A  
HETATM   11  C   UNL     1     -10.104   4.832  69.979  1.00  0.00    -0.308 A  
HETATM   12  C   UNL     1      -9.110   4.393  69.108  1.00  0.00    -0.181 A  
BRANCH   9  13
HETATM   13  C   UNL     1      -6.923   7.444  68.681  1.00  0.00    -0.079 C  
HETATM   14  O   UNL     1      -6.107   7.995  69.398  1.00  0.00    -0.033 OA 
BRANCH  13  15
HETATM   15  O   UNL     1      -7.019   7.579  67.331  1.00  0.00    -0.078 OA 
BRANCH  15  16
HETATM   16  C   UNL     1      -6.701   8.882  66.814  1.00  0.00    -0.072 C  
BRANCH  16  17
HETATM   17  C   UNL     1      -7.629   9.222  65.702  1.00  0.00    -0.094 C  
HETATM   18  O   UNL     1      -9.411   9.402  64.364  1.00  0.00    -0.162 OA 
HETATM   19  C   UNL     1      -8.884   8.869  65.517  1.00  0.00    -0.197 C  
HETATM   20  O   UNL     1      -7.182  10.009  64.653  1.00  0.00    -0.133 OA 
HETATM   21  C   UNL     1      -9.790   8.114  66.388  1.00  0.00    -0.261 C  
HETATM   22  C   UNL     1      -8.329  10.113  63.874  1.00  0.00    -0.172 C  
HETATM   23  O   UNL     1      -8.383  10.766  62.839  1.00  0.00    -0.161 OA 
ENDBRANCH  16  17
ENDBRANCH  15  16
ENDBRANCH  13  15
ENDBRANCH   9  13
BRANCH   8  24
HETATM   24  C   UNL     1      -8.911   9.561  70.395  1.00  0.00    -0.243 C  
BRANCH  24  25
HETATM   25  C   UNL     1      -9.602  10.323  69.287  1.00  0.00    -0.239 A  
HETATM   26  C   UNL     1     -10.951  10.185  68.962  1.00  0.00    -0.265 A  
HETATM   27  C   UNL     1      -9.399  11.962  67.485  1.00  0.00    -0.177 A  
HETATM   28  C   UNL     1     -10.751  11.824  67.134  1.00  0.00    -0.283 A  
HETATM   29  C   UNL     1      -8.840  11.237  68.546  1.00  0.00    -0.159 A  
HETATM   30  C   UNL     1     -11.519  10.968  67.949  1.00  0.00    -0.358 A  
BRANCH  28  31
HETATM   31  C   UNL     1     -11.364  12.605  66.011  1.00  0.00    -0.369 A  
HETATM   32  C   UNL     1     -11.930  12.656  63.606  1.00  0.00    -0.615 A  
HETATM   33  C   UNL     1     -11.632  11.954  64.779  1.00  0.00    -0.302 A  
HETATM   34  C   UNL     1     -12.046  14.035  63.639  1.00  0.00    -0.156 A  
HETATM   35  C   UNL     1     -11.901  14.701  64.852  1.00  0.00    -0.403 A  
HETATM   36  C   UNL     1     -11.583  14.001  66.035  1.00  0.00    -0.362 A  
BRANCH  36  37
HETATM   37  C   UNL     1     -11.538  14.834  67.251  1.00  0.00    -0.369 C  
HETATM   38  N   UNL     1     -10.852  15.921  67.382  1.00  0.00    -0.313 NA 
HETATM   39  O   UNL     1     -11.133  16.380  68.707  1.00  0.00    -0.328 OA 
HETATM   40  C   UNL     1     -12.010  15.477  69.250  1.00  0.00    -0.316 C  
HETATM   41  N   UNL     1     -12.267  14.532  68.333  1.00  0.00    -0.196 NA 
HETATM   42  O   UNL     1     -12.461  15.515  70.386  1.00  0.00    -0.400 OA 
ENDBRANCH  36  37
ENDBRANCH  28  31
ENDBRANCH  24  25
ENDBRANCH   8  24
ENDBRANCH   3   4
ENDBRANCH   2   3
TORSDOF 10
ENDMDL
MODEL       22
REMARK 921   NORMALIZED FREE ENERGY PREDICTED BY IDOCK:   -6.56 KCAL/MOL
REMARK 922        TOTAL FREE ENERGY PREDICTED BY IDOCK:  -13.31 KCAL/MOL
REMARK 923 INTER-LIGAND FREE ENERGY PREDICTED BY IDOCK:  -12.11 KCAL/MOL
REMARK 924 INTRA-LIGAND FREE ENERGY PREDICTED BY IDOCK:   -1.19 KCAL/MOL
REMARK 927      BINDING AFFINITY PREDICTED BY RF-SCORE:    0.00 PKD
ROOT
HETATM    1  C   UNL     1      -8.249   8.611  64.910  1.00  0.00    -0.159 C  
HETATM    2  C   UNL     1      -8.143   7.657  66.087  1.00  0.00    -0.118 C  
ENDROOT
BRANCH   2   3
HETATM    3  O   UNL     1      -9.454   7.351  66.569  1.00  0.00    -0.180 OA 
BRANCH   3   4
HETATM    4  C   UNL     1      -9.659   7.692  67.842  1.00  0.00    -0.144 A  
HETATM    5  N   UNL     1      -9.051   7.160  68.870  1.00  0.00    -0.132 NA 
HETATM    6  C   UNL     1      -9.552   7.819  69.959  1.00  0.00    -0.161 A  
HETATM    7  C   UNL     1     -10.507   8.779  69.599  1.00  0.00    -0.220 A  
HETATM    8  N   UNL     1     -10.518   8.701  68.217  1.00  0.00    -0.209 NA 
HETATM    9  C   UNL     1     -11.178   9.539  70.592  1.00  0.00    -0.364 A  
HETATM   10  C   UNL     1     -10.795   9.335  71.935  1.00  0.00    -0.248 A  
HETATM   11  C   UNL     1      -9.192   7.644  71.304  1.00  0.00    -0.155 A  
HETATM   12  C   UNL     1      -9.809   8.417  72.285  1.00  0.00    -0.383 A  
BRANCH   9  13
HETATM   13  C   UNL     1     -12.179  10.594  70.306  1.00  0.00    -0.334 C  
HETATM   14  O   UNL     1     -13.299  10.364  69.884  1.00  0.00     0.060 OA 
BRANCH  13  15
HETATM   15  O   UNL     1     -11.642  11.826  70.512  1.00  0.00    -0.181 OA 
BRANCH  15  16
HETATM   16  C   UNL     1     -12.517  12.936  70.250  1.00  0.00    -0.127 C  
BRANCH  16  17
HETATM   17  C   UNL     1     -12.220  14.046  71.196  1.00  0.00    -0.338 C  
HETATM   18  O   UNL     1     -11.599  15.991  72.105  1.00  0.00    -0.443 OA 
HETATM   19  C   UNL     1     -11.709  15.235  70.961  1.00  0.00    -0.348 C  
HETATM   20  O   UNL     1     -12.472  13.878  72.548  1.00  0.00    -0.104 OA 
HETATM   21  C   UNL     1     -11.362  15.880  69.690  1.00  0.00    -0.342 C  
HETATM   22  C   UNL     1     -12.100  15.119  73.056  1.00  0.00    -0.374 C  
HETATM   23  O   UNL     1     -12.193  15.417  74.240  1.00  0.00    -0.619 OA 
ENDBRANCH  16  17
ENDBRANCH  15  16
ENDBRANCH  13  15
ENDBRANCH   9  13
BRANCH   8  24
HETATM   24  C   UNL     1     -11.110   9.621  67.259  1.00  0.00     0.120 C  
BRANCH  24  25
HETATM   25  C   UNL     1     -10.466  10.987  67.178  1.00  0.00    -0.274 A  
HETATM   26  C   UNL     1      -9.098  11.201  67.014  1.00  0.00    -0.158 A  
HETATM   27  C   UNL     1     -10.778  13.411  67.222  1.00  0.00    -0.265 A  
HETATM   28  C   UNL     1      -9.402  13.645  67.073  1.00  0.00    -0.249 A  
HETATM   29  C   UNL     1     -11.300  12.111  67.261  1.00  0.00    -0.398 A  
HETATM   30  C   UNL     1      -8.594  12.503  66.901  1.00  0.00    -0.158 A  
BRANCH  28  31
HETATM   31  C   UNL     1      -8.834  15.030  67.016  1.00  0.00    -0.257 A  
HETATM   32  C   UNL     1      -7.260  16.655  68.011  1.00  0.00    -0.162 A  
HETATM   33  C   UNL     1      -7.682  15.340  67.784  1.00  0.00    -0.164 A  
HETATM   34  C   UNL     1      -7.932  17.707  67.414  1.00  0.00    -0.217 A  
HETATM   35  C   UNL     1      -8.999  17.437  66.563  1.00  0.00    -0.285 A  
HETATM   36  C   UNL     1      -9.440  16.116  66.343  1.00  0.00    -0.323 A  
BRANCH  36  37
HETATM   37  C   UNL     1     -10.530  15.985  65.358  1.00  0.00    -0.392 C  
HETATM   38  N   UNL     1     -11.098  16.969  64.743  1.00  0.00    -0.906 NA 
HETATM   39  O   UNL     1     -12.069  16.362  63.886  1.00  0.00    -0.977 OA 
HETATM   40  C   UNL     1     -11.963  15.009  64.084  1.00  0.00    -0.201 C  
HETATM   41  N   UNL     1     -10.995  14.786  64.985  1.00  0.00    -0.389 NA 
HETATM   42  O   UNL     1     -12.652  14.154  63.545  1.00  0.00    -0.834 OA 
ENDBRANCH  36  37
ENDBRANCH  28  31
ENDBRANCH  24  25
ENDBRANCH   8  24
ENDBRANCH   3   4
ENDBRANCH   2   3
TORSDOF 10
ENDMDL
MODEL       23
REMARK 921   NORMALIZED FREE ENERGY PREDICTED BY IDOCK:   -6.55 KCAL/MOL
REMARK 922        TOTAL FREE ENERGY PREDICTED BY IDOCK:  -13.30 KCAL/MOL
REMARK 923 INTER-LIGAND FREE ENERGY PREDICTED BY IDOCK:  -11.40 KCAL/MOL
REMARK 924 INTRA-LIGAND FREE ENERGY PREDICTED BY IDOCK:   -1.90 KCAL/MOL
REMARK 927      BINDING AFFINITY PREDICTED BY RF-SCORE:    0.00 PKD
ROOT
HETATM    1  C   UNL     1     -10.472   4.695  65.745  1.00  0.00    -0.290 C  
HETATM    2  C   UNL     1     -10.345   5.406  67.081  1.00  0.00    -0.236 C  
ENDROOT
BRANCH   2   3
HETATM    3  O   UNL     1     -10.601   6.802  66.902  1.00  0.00    -0.280 OA 
BRANCH   3   4
HETATM    4  C   UNL     1      -9.501   7.555  66.866  1.00  0.00    -0.171 A  
HETATM    5  N   UNL     1      -8.277   7.097  66.806  1.00  0.00    -0.112 NA 
HETATM    6  C   UNL     1      -7.483   8.209  66.771  1.00  0.00    -0.090 A  
HETATM    7  C   UNL     1      -8.232   9.393  66.824  1.00  0.00    -0.112 A  
HETATM    8  N   UNL     1      -9.537   8.931  66.839  1.00  0.00    -0.174 NA 
HETATM    9  C   UNL     1      -7.587  10.656  66.843  1.00  0.00    -0.115 A  
HETATM   10  C   UNL     1      -6.179  10.668  66.740  1.00  0.00    -0.076 A  
HETATM   11  C   UNL     1      -6.084   8.257  66.664  1.00  0.00    -0.053 A  
HETATM   12  C   UNL     1      -5.441   9.493  66.636  1.00  0.00    -0.046 A  
BRANCH   9  13
HETATM   13  C   UNL     1      -8.294  11.958  66.869  1.00  0.00    -0.169 C  
HETATM   14  O   UNL     1      -8.377  12.661  67.861  1.00  0.00    -0.149 OA 
BRANCH  13  15
HETATM   15  O   UNL     1      -8.883  12.202  65.668  1.00  0.00     0.124 OA 
BRANCH  15  16
HETATM   16  C   UNL     1      -9.439  13.518  65.505  1.00  0.00     0.189 C  
BRANCH  16  17
HETATM   17  C   UNL     1     -10.707  13.436  64.731  1.00  0.00    -0.390 C  
HETATM   18  O   UNL     1     -12.597  13.917  63.639  1.00  0.00    -0.790 OA 
HETATM   19  C   UNL     1     -11.529  14.395  64.362  1.00  0.00    -0.288 C  
HETATM   20  O   UNL     1     -11.175  12.201  64.312  1.00  0.00    -0.309 OA 
HETATM   21  C   UNL     1     -11.411  15.850  64.512  1.00  0.00    -0.287 C  
HETATM   22  C   UNL     1     -12.326  12.561  63.618  1.00  0.00    -0.522 C  
HETATM   23  O   UNL     1     -13.046  11.752  63.045  1.00  0.00    -0.508 OA 
ENDBRANCH  16  17
ENDBRANCH  15  16
ENDBRANCH  13  15
ENDBRANCH   9  13
BRANCH   8  24
HETATM   24  C   UNL     1     -10.767   9.678  66.630  1.00  0.00    -0.032 C  
BRANCH  24  25
HETATM   25  C   UNL     1     -11.158  10.622  67.744  1.00  0.00    -0.385 A  
HETATM   26  C   UNL     1     -10.981  10.353  69.100  1.00  0.00    -0.285 A  
HETATM   27  C   UNL     1     -12.141  12.773  68.363  1.00  0.00    -0.145 A  
HETATM   28  C   UNL     1     -11.985  12.512  69.733  1.00  0.00    -0.359 A  
HETATM   29  C   UNL     1     -11.726  11.855  67.389  1.00  0.00    -0.326 A  
HETATM   30  C   UNL     1     -11.331  11.307  70.064  1.00  0.00    -0.292 A  
BRANCH  28  31
HETATM   31  C   UNL     1     -12.412  13.492  70.783  1.00  0.00    -0.428 A  
HETATM   32  C   UNL     1     -13.903  13.937  72.703  1.00  0.00    -0.515 A  
HETATM   33  C   UNL     1     -13.233  13.050  71.852  1.00  0.00    -0.527 A  
HETATM   34  C   UNL     1     -13.715  15.301  72.563  1.00  0.00    -0.627 A  
HETATM   35  C   UNL     1     -12.829  15.770  71.598  1.00  0.00    -0.514 A  
HETATM   36  C   UNL     1     -12.164  14.883  70.726  1.00  0.00    -0.387 A  
BRANCH  36  37
HETATM   37  C   UNL     1     -11.201  15.523  69.810  1.00  0.00    -0.304 C  
HETATM   38  N   UNL     1      -9.916  15.430  69.901  1.00  0.00    -0.261 NA 
HETATM   39  O   UNL     1      -9.410  16.191  68.800  1.00  0.00    -0.207 OA 
HETATM   40  C   UNL     1     -10.505  16.672  68.130  1.00  0.00    -0.321 C  
HETATM   41  N   UNL     1     -11.609  16.238  68.755  1.00  0.00    -0.302 NA 
HETATM   42  O   UNL     1     -10.476  17.393  67.142  1.00  0.00    -0.332 OA 
ENDBRANCH  36  37
ENDBRANCH  28  31
ENDBRANCH  24  25
ENDBRANCH   8  24
ENDBRANCH   3   4
ENDBRANCH   2   3
TORSDOF 10
ENDMDL
MODEL       24
REMARK 921   NORMALIZED FREE ENERGY PREDICTED BY IDOCK:   -6.54 KCAL/MOL
REMARK 922        TOTAL FREE ENERGY PREDICTED BY IDOCK:  -13.28 KCAL/MOL
REMARK 923 INTER-LIGAND FREE ENERGY PREDICTED BY IDOCK:  -10.02 KCAL/MOL
REMARK 924 INTRA-LIGAND FREE ENERGY PREDICTED BY IDOCK:   -3.27 KCAL/MOL
REMARK 927      BINDING AFFINITY PREDICTED BY RF-SCORE:    0.00 PKD
ROOT
HETATM    1  C   UNL     1      -9.414  10.192  64.547  1.00  0.00    -0.364 C  
HETATM    2  C   UNL     1      -8.456   9.173  63.954  1.00  0.00    -0.180 C  
ENDROOT
BRANCH   2   3
HETATM    3  O   UNL     1      -7.555   8.722  64.967  1.00  0.00    -0.094 OA 
BRANCH   3   4
HETATM    4  C   UNL     1      -8.049   7.756  65.743  1.00  0.00    -0.125 A  
HETATM    5  N   UNL     1      -8.564   6.634  65.311  1.00  0.00    -0.076 NA 
HETATM    6  C   UNL     1      -8.920   5.949  66.438  1.00  0.00    -0.140 A  
HETATM    7  C   UNL     1      -8.631   6.669  67.606  1.00  0.00    -0.120 A  
HETATM    8  N   UNL     1      -8.026   7.816  67.118  1.00  0.00    -0.115 NA 
HETATM    9  C   UNL     1      -8.968   6.146  68.881  1.00  0.00    -0.124 A  
HETATM   10  C   UNL     1      -9.537   4.855  68.923  1.00  0.00    -0.224 A  
HETATM   11  C   UNL     1      -9.483   4.666  66.517  1.00  0.00    -0.171 A  
HETATM   12  C   UNL     1      -9.776   4.121  67.765  1.00  0.00    -0.168 A  
BRANCH   9  13
HETATM   13  C   UNL     1      -8.676   6.821  70.167  1.00  0.00    -0.141 C  
HETATM   14  O   UNL     1      -7.809   6.454  70.940  1.00  0.00    -0.103 OA 
BRANCH  13  15
HETATM   15  O   UNL     1      -9.552   7.840  70.378  1.00  0.00    -0.174 OA 
BRANCH  15  16
HETATM   16  C   UNL     1     -10.523   7.619  71.415  1.00  0.00    -0.208 C  
BRANCH  16  17
HETATM   17  C   UNL     1     -11.567   8.678  71.361  1.00  0.00    -0.293 C  
HETATM   18  O   UNL     1     -13.502   9.796  71.382  1.00  0.00    -0.373 OA 
HETATM   19  C   UNL     1     -12.874   8.575  71.472  1.00  0.00    -0.311 C  
HETATM   20  O   UNL     1     -11.194   9.996  71.149  1.00  0.00    -0.350 OA 
HETATM   21  C   UNL     1     -13.707   7.407  71.777  1.00  0.00    -0.417 C  
HETATM   22  C   UNL     1     -12.424  10.644  71.202  1.00  0.00    -0.418 C  
HETATM   23  O   UNL     1     -12.550  11.857  71.089  1.00  0.00    -0.372 OA 
ENDBRANCH  16  17
ENDBRANCH  15  16
ENDBRANCH  13  15
ENDBRANCH   9  13
BRANCH   8  24
HETATM   24  C   UNL     1      -7.274   8.825  67.846  1.00  0.00    -0.084 C  
BRANCH  24  25
HETATM   25  C   UNL     1      -7.867  10.216  67.840  1.00  0.00    -0.101 A  
HETATM   26  C   UNL     1      -7.218  11.344  67.340  1.00  0.00    -0.115 A  
HETATM   27  C   UNL     1      -9.767  11.641  68.417  1.00  0.00    -0.199 A  
HETATM   28  C   UNL     1      -9.122  12.790  67.933  1.00  0.00    -0.204 A  
HETATM   29  C   UNL     1      -9.159  10.380  68.361  1.00  0.00    -0.147 A  
HETATM   30  C   UNL     1      -7.862  12.587  67.333  1.00  0.00    -0.175 A  
BRANCH  28  31
HETATM   31  C   UNL     1      -9.768  14.141  67.974  1.00  0.00    -0.226 A  
HETATM   32  C   UNL     1     -10.152  16.203  69.282  1.00  0.00    -0.260 A  
HETATM   33  C   UNL     1      -9.407  15.052  69.001  1.00  0.00    -0.206 A  
HETATM   34  C   UNL     1     -11.245  16.526  68.496  1.00  0.00    -0.296 A  
HETATM   35  C   UNL     1     -11.565  15.717  67.411  1.00  0.00     0.088 A  
HETATM   36  C   UNL     1     -10.829  14.547  67.131  1.00  0.00    -0.296 A  
BRANCH  36  37
HETATM   37  C   UNL     1     -11.239  13.838  65.905  1.00  0.00    -0.302 C  
HETATM   38  N   UNL     1     -10.532  13.747  64.827  1.00  0.00    -0.422 NA 
HETATM   39  O   UNL     1     -11.321  12.961  63.930  1.00  0.00    -0.391 OA 
HETATM   40  C   UNL     1     -12.469  12.641  64.607  1.00  0.00    -0.466 C  
HETATM   41  N   UNL     1     -12.400  13.175  65.835  1.00  0.00    -0.428 NA 
HETATM   42  O   UNL     1     -13.406  11.997  64.157  1.00  0.00    -0.725 OA 
ENDBRANCH  36  37
ENDBRANCH  28  31
ENDBRANCH  24  25
ENDBRANCH   8  24
ENDBRANCH   3   4
ENDBRANCH   2   3
TORSDOF 10
ENDMDL
MODEL       25
REMARK 921   NORMALIZED FREE ENERGY PREDICTED BY IDOCK:   -6.52 KCAL/MOL
REMARK 922        TOTAL FREE ENERGY PREDICTED BY IDOCK:  -13.26 KCAL/MOL
REMARK 923 INTER-LIGAND FREE ENERGY PREDICTED BY IDOCK:  -10.22 KCAL/MOL
REMARK 924 INTRA-LIGAND FREE ENERGY PREDICTED BY IDOCK:   -3.03 KCAL/MOL
REMARK 927      BINDING AFFINITY PREDICTED BY RF-SCORE:    0.00 PKD
ROOT
HETATM    1  C   UNL     1     -12.800  11.585  71.451  1.00  0.00    -0.489 C  
HETATM    2  C   UNL     1     -13.282  10.189  71.804  1.00  0.00    -0.438 C  
ENDROOT
BRANCH   2   3
HETATM    3  O   UNL     1     -12.645   9.237  70.949  1.00  0.00    -0.231 OA 
BRANCH   3   4
HETATM    4  C   UNL     1     -11.403   8.920  71.317  1.00  0.00    -0.300 A  
HETATM    5  N   UNL     1     -11.062   8.454  72.490  1.00  0.00    -0.361 NA 
HETATM    6  C   UNL     1      -9.711   8.259  72.416  1.00  0.00    -0.303 A  
HETATM    7  C   UNL     1      -9.194   8.626  71.166  1.00  0.00    -0.213 A  
HETATM    8  N   UNL     1     -10.325   9.007  70.464  1.00  0.00    -0.203 NA 
HETATM    9  C   UNL     1      -7.802   8.540  70.905  1.00  0.00    -0.113 A  
HETATM   10  C   UNL     1      -6.982   8.011  71.926  1.00  0.00    -0.072 A  
HETATM   11  C   UNL     1      -8.867   7.733  73.407  1.00  0.00    -0.298 A  
HETATM   12  C   UNL     1      -7.506   7.600  73.147  1.00  0.00    -0.119 A  
BRANCH   9  13
HETATM   13  C   UNL     1      -7.170   8.878  69.609  1.00  0.00    -0.055 C  
HETATM   14  O   UNL     1      -6.337   9.757  69.472  1.00  0.00    -0.043 OA 
BRANCH  13  15
HETATM   15  O   UNL     1      -7.704   8.124  68.610  1.00  0.00    -0.107 OA 
BRANCH  15  16
HETATM   16  C   UNL     1      -7.283   6.750  68.576  1.00  0.00    -0.085 C  
BRANCH  16  17
HETATM   17  C   UNL     1      -8.373   5.905  68.016  1.00  0.00    -0.111 C  
HETATM   18  O   UNL     1     -10.174   4.606  67.761  1.00  0.00    -0.078 OA 
HETATM   19  C   UNL     1      -9.353   5.281  68.634  1.00  0.00    -0.121 C  
HETATM   20  O   UNL     1      -8.427   5.673  66.652  1.00  0.00    -0.112 OA 
HETATM   21  C   UNL     1      -9.740   5.297  70.049  1.00  0.00    -0.263 C  
HETATM   22  C   UNL     1      -9.574   4.893  66.547  1.00  0.00    -0.169 C  
HETATM   23  O   UNL     1     -10.013   4.483  65.480  1.00  0.00    -0.195 OA 
ENDBRANCH  16  17
ENDBRANCH  15  16
ENDBRANCH  13  15
ENDBRANCH   9  13
BRANCH   8  24
HETATM   24  C   UNL     1     -10.473   9.241  69.037  1.00  0.00    -0.216 C  
BRANCH  24  25
HETATM   25  C   UNL     1     -10.607  10.688  68.619  1.00  0.00    -0.229 A  
HETATM   26  C   UNL     1     -11.776  11.252  68.109  1.00  0.00    -0.323 A  
HETATM   27  C   UNL     1      -9.523  12.865  68.375  1.00  0.00    -0.162 A  
HETATM   28  C   UNL     1     -10.685  13.446  67.845  1.00  0.00    -0.259 A  
HETATM   29  C   UNL     1      -9.488  11.519  68.766  1.00  0.00    -0.099 A  
HETATM   30  C   UNL     1     -11.824  12.616  67.791  1.00  0.00    -0.381 A  
BRANCH  28  31
HETATM   31  C   UNL     1     -10.739  14.887  67.439  1.00  0.00    -0.292 A  
HETATM   32  C   UNL     1     -10.175  16.563  65.713  1.00  0.00    -0.350 A  
HETATM   33  C   UNL     1     -10.425  15.242  66.101  1.00  0.00    -0.318 A  
HETATM   34  C   UNL     1     -10.303  17.589  66.634  1.00  0.00    -0.319 A  
HETATM   35  C   UNL     1     -10.718  17.292  67.928  1.00  0.00    -0.351 A  
HETATM   36  C   UNL     1     -10.956  15.962  68.331  1.00  0.00    -0.331 A  
BRANCH  36  37
HETATM   37  C   UNL     1     -11.464  15.815  69.708  1.00  0.00    -0.349 C  
HETATM   38  N   UNL     1     -10.729  15.776  70.770  1.00  0.00    -0.198 NA 
HETATM   39  O   UNL     1     -11.652  15.646  71.855  1.00  0.00    -0.401 OA 
HETATM   40  C   UNL     1     -12.904  15.631  71.296  1.00  0.00    -0.487 C  
HETATM   41  N   UNL     1     -12.776  15.754  69.966  1.00  0.00    -0.197 NA 
HETATM   42  O   UNL     1     -13.956  15.504  71.907  1.00  0.00    -0.483 OA 
ENDBRANCH  36  37
ENDBRANCH  28  31
ENDBRANCH  24  25
ENDBRANCH   8  24
ENDBRANCH   3   4
ENDBRANCH   2   3
TORSDOF 10
ENDMDL
MODEL       26
REMARK 921   NORMALIZED FREE ENERGY PREDICTED BY IDOCK:   -6.52 KCAL/MOL
REMARK 922        TOTAL FREE ENERGY PREDICTED BY IDOCK:  -13.25 KCAL/MOL
REMARK 923 INTER-LIGAND FREE ENERGY PREDICTED BY IDOCK:  -10.08 KCAL/MOL
REMARK 924 INTRA-LIGAND FREE ENERGY PREDICTED BY IDOCK:   -3.17 KCAL/MOL
REMARK 927      BINDING AFFINITY PREDICTED BY RF-SCORE:    0.00 PKD
ROOT
HETATM    1  C   UNL     1     -12.400  14.374  70.992  1.00  0.00    -0.427 C  
HETATM    2  C   UNL     1     -12.147  13.369  69.882  1.00  0.00    -0.322 C  
ENDROOT
BRANCH   2   3
HETATM    3  O   UNL     1     -11.139  13.875  69.004  1.00  0.00    -0.254 OA 
BRANCH   3   4
HETATM    4  C   UNL     1     -11.233  13.426  67.751  1.00  0.00    -0.279 A  
HETATM    5  N   UNL     1     -12.144  13.793  66.887  1.00  0.00    -0.421 NA 
HETATM    6  C   UNL     1     -11.850  13.102  65.745  1.00  0.00    -0.397 A  
HETATM    7  C   UNL     1     -10.732  12.271  65.906  1.00  0.00    -0.258 A  
HETATM    8  N   UNL     1     -10.332  12.541  67.204  1.00  0.00    -0.220 NA 
HETATM    9  C   UNL     1     -10.293  11.437  64.846  1.00  0.00    -0.347 A  
HETATM   10  C   UNL     1     -10.982  11.531  63.618  1.00  0.00    -0.482 A  
HETATM   11  C   UNL     1     -12.509  13.174  64.508  1.00  0.00    -0.406 A  
HETATM   12  C   UNL     1     -12.059  12.395  63.445  1.00  0.00    -0.620 A  
BRANCH   9  13
HETATM   13  C   UNL     1      -9.108  10.550  64.914  1.00  0.00    -0.205 C  
HETATM   14  O   UNL     1      -8.049  10.794  64.363  1.00  0.00    -0.019 OA 
BRANCH  13  15
HETATM   15  O   UNL     1      -9.403   9.416  65.605  1.00  0.00    -0.211 OA 
BRANCH  15  16
HETATM   16  C   UNL     1      -8.283   8.570  65.916  1.00  0.00    -0.125 C  
BRANCH  16  17
HETATM   17  C   UNL     1      -8.712   7.489  66.845  1.00  0.00    -0.129 C  
HETATM   18  O   UNL     1      -8.765   5.871  68.386  1.00  0.00    -0.113 OA 
HETATM   19  C   UNL     1      -7.997   6.770  67.683  1.00  0.00    -0.113 C  
HETATM   20  O   UNL     1     -10.044   7.109  66.885  1.00  0.00    -0.207 OA 
HETATM   21  C   UNL     1      -6.576   6.866  68.037  1.00  0.00    -0.059 C  
HETATM   22  C   UNL     1     -10.024   6.130  67.873  1.00  0.00    -0.134 C  
HETATM   23  O   UNL     1     -11.026   5.538  68.254  1.00  0.00    -0.096 OA 
ENDBRANCH  16  17
ENDBRANCH  15  16
ENDBRANCH  13  15
ENDBRANCH   9  13
BRANCH   8  24
HETATM   24  C   UNL     1      -9.084  12.186  67.862  1.00  0.00    -0.185 C  
BRANCH  24  25
HETATM   25  C   UNL     1      -9.131  10.955  68.738  1.00  0.00    -0.174 A  
HETATM   26  C   UNL     1     -10.273  10.182  68.945  1.00  0.00    -0.213 A  
HETATM   27  C   UNL     1      -7.914   9.445  70.225  1.00  0.00    -0.172 A  
HETATM   28  C   UNL     1      -9.058   8.665  70.458  1.00  0.00    -0.188 A  
HETATM   29  C   UNL     1      -7.947  10.558  69.374  1.00  0.00    -0.146 A  
HETATM   30  C   UNL     1     -10.214   9.029  69.737  1.00  0.00    -0.214 A  
BRANCH  28  31
HETATM   31  C   UNL     1      -9.031   7.464  71.353  1.00  0.00    -0.141 A  
HETATM   32  C   UNL     1      -7.684   5.607  72.271  1.00  0.00    -0.102 A  
HETATM   33  C   UNL     1      -7.785   6.875  71.688  1.00  0.00    -0.095 A  
HETATM   34  C   UNL     1      -8.831   4.912  72.612  1.00  0.00    -0.125 A  
HETATM   35  C   UNL     1     -10.072   5.504  72.403  1.00  0.00    -0.218 A  
HETATM   36  C   UNL     1     -10.182   6.774  71.799  1.00  0.00    -0.206 A  
BRANCH  36  37
HETATM   37  C   UNL     1     -11.557   7.300  71.715  1.00  0.00    -0.275 C  
HETATM   38  N   UNL     1     -12.492   6.819  70.964  1.00  0.00    -0.337 NA 
HETATM   39  O   UNL     1     -13.638   7.633  71.230  1.00  0.00    -0.306 OA 
HETATM   40  C   UNL     1     -13.247   8.553  72.167  1.00  0.00    -0.352 C  
HETATM   41  N   UNL     1     -11.961   8.328  72.473  1.00  0.00    -0.391 NA 
HETATM   42  O   UNL     1     -13.948   9.444  72.628  1.00  0.00    -0.395 OA 
ENDBRANCH  36  37
ENDBRANCH  28  31
ENDBRANCH  24  25
ENDBRANCH   8  24
ENDBRANCH   3   4
ENDBRANCH   2   3
TORSDOF 10
ENDMDL
MODEL       27
REMARK 921   NORMALIZED FREE ENERGY PREDICTED BY IDOCK:   -6.51 KCAL/MOL
REMARK 922        TOTAL FREE ENERGY PREDICTED BY IDOCK:  -13.24 KCAL/MOL
REMARK 923 INTER-LIGAND FREE ENERGY PREDICTED BY IDOCK:  -10.31 KCAL/MOL
REMARK 924 INTRA-LIGAND FREE ENERGY PREDICTED BY IDOCK:   -2.92 KCAL/MOL
REMARK 927      BINDING AFFINITY PREDICTED BY RF-SCORE:    0.00 PKD
ROOT
HETATM    1  C   UNL     1     -12.613  15.481  70.619  1.00  0.00    -0.493 C  
HETATM    2  C   UNL     1     -11.920  15.533  69.269  1.00  0.00    -0.316 C  
ENDROOT
BRANCH   2   3
HETATM    3  O   UNL     1     -11.168  14.333  69.075  1.00  0.00    -0.243 OA 
BRANCH   3   4
HETATM    4  C   UNL     1     -11.319  13.786  67.869  1.00  0.00    -0.299 A  
HETATM    5  N   UNL     1     -12.150  14.208  66.951  1.00  0.00    -0.446 NA 
HETATM    6  C   UNL     1     -11.958  13.372  65.886  1.00  0.00    -0.409 A  
HETATM    7  C   UNL     1     -10.990  12.393  66.153  1.00  0.00    -0.286 A  
HETATM    8  N   UNL     1     -10.566  12.720  67.430  1.00  0.00    -0.228 NA 
HETATM    9  C   UNL     1     -10.679  11.401  65.187  1.00  0.00    -0.332 A  
HETATM   10  C   UNL     1     -11.331  11.485  63.938  1.00  0.00    -0.400 A  
HETATM   11  C   UNL     1     -12.584  13.427  64.631  1.00  0.00    -0.322 A  
HETATM   12  C   UNL     1     -12.254  12.487  63.658  1.00  0.00    -0.642 A  
BRANCH   9  13
HETATM   13  C   UNL     1      -9.653  10.348  65.369  1.00  0.00    -0.246 C  
HETATM   14  O   UNL     1      -9.871   9.280  65.913  1.00  0.00    -0.281 OA 
BRANCH  13  15
HETATM   15  O   UNL     1      -8.445  10.778  64.913  1.00  0.00    -0.150 OA 
BRANCH  15  16
HETATM   16  C   UNL     1      -7.337   9.901  65.171  1.00  0.00    -0.133 C  
BRANCH  16  17
HETATM   17  C   UNL     1      -6.529  10.431  66.303  1.00  0.00    -0.102 C  
HETATM   18  O   UNL     1      -5.223  10.634  68.106  1.00  0.00    -0.038 OA 
HETATM   19  C   UNL     1      -5.862   9.783  67.234  1.00  0.00    -0.051 C  
HETATM   20  O   UNL     1      -6.425  11.800  66.488  1.00  0.00    -0.065 OA 
HETATM   21  C   UNL     1      -5.625   8.345  67.399  1.00  0.00    -0.039 C  
HETATM   22  C   UNL     1      -5.584  11.868  67.594  1.00  0.00    -0.075 C  
HETATM   23  O   UNL     1      -5.202  12.924  68.084  1.00  0.00    -0.070 OA 
ENDBRANCH  16  17
ENDBRANCH  15  16
ENDBRANCH  13  15
ENDBRANCH   9  13
BRANCH   8  24
HETATM   24  C   UNL     1      -9.398  12.238  68.150  1.00  0.00    -0.205 C  
BRANCH  24  25
HETATM   25  C   UNL     1      -9.623  11.026  69.026  1.00  0.00    -0.136 A  
HETATM   26  C   UNL     1      -8.612  10.160  69.441  1.00  0.00    -0.183 A  
HETATM   27  C   UNL     1     -11.225   9.644  70.249  1.00  0.00    -0.324 A  
HETATM   28  C   UNL     1     -10.223   8.752  70.663  1.00  0.00    -0.247 A  
HETATM   29  C   UNL     1     -10.930  10.763  69.458  1.00  0.00    -0.317 A  
HETATM   30  C   UNL     1      -8.904   9.086  70.292  1.00  0.00    -0.210 A  
BRANCH  28  31
HETATM   31  C   UNL     1     -10.524   7.561  71.521  1.00  0.00    -0.226 A  
HETATM   32  C   UNL     1     -10.724   6.674  73.818  1.00  0.00    -0.206 A  
HETATM   33  C   UNL     1     -10.723   7.742  72.914  1.00  0.00    -0.446 A  
HETATM   34  C   UNL     1     -10.602   5.376  73.353  1.00  0.00    -0.297 A  
HETATM   35  C   UNL     1     -10.518   5.150  71.983  1.00  0.00    -0.278 A  
HETATM   36  C   UNL     1     -10.499   6.222  71.067  1.00  0.00    -0.274 A  
BRANCH  36  37
HETATM   37  C   UNL     1     -10.484   5.821  69.647  1.00  0.00    -0.293 C  
HETATM   38  N   UNL     1     -11.284   6.274  68.740  1.00  0.00    -0.354 NA 
HETATM   39  O   UNL     1     -10.884   5.620  67.532  1.00  0.00    -0.233 OA 
HETATM   40  C   UNL     1      -9.827   4.813  67.864  1.00  0.00    -0.134 C  
HETATM   41  N   UNL     1      -9.577   4.959  69.174  1.00  0.00    -0.148 NA 
HETATM   42  O   UNL     1      -9.229   4.070  67.098  1.00  0.00    -0.139 OA 
ENDBRANCH  36  37
ENDBRANCH  28  31
ENDBRANCH  24  25
ENDBRANCH   8  24
ENDBRANCH   3   4
ENDBRANCH   2   3
TORSDOF 10
ENDMDL
MODEL       28
REMARK 921   NORMALIZED FREE ENERGY PREDICTED BY IDOCK:   -6.51 KCAL/MOL
REMARK 922        TOTAL FREE ENERGY PREDICTED BY IDOCK:  -13.24 KCAL/MOL
REMARK 923 INTER-LIGAND FREE ENERGY PREDICTED BY IDOCK:   -9.39 KCAL/MOL
REMARK 924 INTRA-LIGAND FREE ENERGY PREDICTED BY IDOCK:   -3.85 KCAL/MOL
REMARK 927      BINDING AFFINITY PREDICTED BY RF-SCORE:    0.00 PKD
ROOT
HETATM    1  C   UNL     1      -9.378   5.664  69.465  1.00  0.00    -0.165 C  
HETATM    2  C   UNL     1      -8.105   4.875  69.216  1.00  0.00    -0.078 C  
ENDROOT
BRANCH   2   3
HETATM    3  O   UNL     1      -7.235   5.632  68.371  1.00  0.00    -0.072 OA 
BRANCH   3   4
HETATM    4  C   UNL     1      -7.566   5.598  67.079  1.00  0.00    -0.096 A  
HETATM    5  N   UNL     1      -8.042   4.554  66.453  1.00  0.00    -0.103 NA 
HETATM    6  C   UNL     1      -8.251   4.974  65.169  1.00  0.00    -0.131 A  
HETATM    7  C   UNL     1      -7.883   6.314  64.987  1.00  0.00    -0.111 A  
HETATM    8  N   UNL     1      -7.486   6.699  66.257  1.00  0.00    -0.080 NA 
HETATM    9  C   UNL     1      -7.982   6.925  63.710  1.00  0.00    -0.064 A  
HETATM   10  C   UNL     1      -8.525   6.152  62.662  1.00  0.00     0.058 A  
HETATM   11  C   UNL     1      -8.792   4.235  64.104  1.00  0.00    -0.142 A  
HETATM   12  C   UNL     1      -8.938   4.838  62.857  1.00  0.00    -0.095 A  
BRANCH   9  13
HETATM   13  C   UNL     1      -7.643   8.340  63.430  1.00  0.00    -0.131 C  
HETATM   14  O   UNL     1      -6.526   8.719  63.126  1.00  0.00    -0.090 OA 
BRANCH  13  15
HETATM   15  O   UNL     1      -8.728   9.136  63.633  1.00  0.00    -0.199 OA 
BRANCH  15  16
HETATM   16  C   UNL     1      -8.446  10.446  64.154  1.00  0.00    -0.163 C  
BRANCH  16  17
HETATM   17  C   UNL     1      -9.716  11.204  64.322  1.00  0.00    -0.271 C  
HETATM   18  O   UNL     1     -11.353  12.518  65.089  1.00  0.00    -0.295 OA 
HETATM   19  C   UNL     1     -10.107  11.978  65.311  1.00  0.00    -0.260 C  
HETATM   20  O   UNL     1     -10.695  11.124  63.344  1.00  0.00    -0.360 OA 
HETATM   21  C   UNL     1      -9.386  12.416  66.510  1.00  0.00    -0.233 C  
HETATM   22  C   UNL     1     -11.667  11.978  63.855  1.00  0.00    -0.446 C  
HETATM   23  O   UNL     1     -12.717  12.225  63.274  1.00  0.00    -0.699 OA 
ENDBRANCH  16  17
ENDBRANCH  15  16
ENDBRANCH  13  15
ENDBRANCH   9  13
BRANCH   8  24
HETATM   24  C   UNL     1      -7.242   8.040  66.764  1.00  0.00    -0.082 C  
BRANCH  24  25
HETATM   25  C   UNL     1      -8.379   8.663  67.541  1.00  0.00    -0.120 A  
HETATM   26  C   UNL     1      -9.707   8.678  67.114  1.00  0.00    -0.248 A  
HETATM   27  C   UNL     1      -9.075   9.879  69.544  1.00  0.00    -0.237 A  
HETATM   28  C   UNL     1     -10.413   9.918  69.123  1.00  0.00    -0.235 A  
HETATM   29  C   UNL     1      -8.082   9.255  68.777  1.00  0.00    -0.104 A  
HETATM   30  C   UNL     1     -10.704   9.239  67.922  1.00  0.00    -0.248 A  
BRANCH  28  31
HETATM   31  C   UNL     1     -11.486  10.569  69.942  1.00  0.00    -0.384 A  
HETATM   32  C   UNL     1     -12.609  12.681  70.561  1.00  0.00    -0.178 A  
HETATM   33  C   UNL     1     -11.838  11.918  69.677  1.00  0.00    -0.406 A  
HETATM   34  C   UNL     1     -13.122  12.100  71.708  1.00  0.00    -0.457 A  
HETATM   35  C   UNL     1     -12.892  10.748  71.946  1.00  0.00    -0.460 A  
HETATM   36  C   UNL     1     -12.101   9.977  71.069  1.00  0.00    -0.469 A  
BRANCH  36  37
HETATM   37  C   UNL     1     -12.013   8.546  71.414  1.00  0.00    -0.300 C  
HETATM   38  N   UNL     1     -12.583   7.588  70.760  1.00  0.00    -0.078 NA 
HETATM   39  O   UNL     1     -12.202   6.392  71.447  1.00  0.00    -0.292 OA 
HETATM   40  C   UNL     1     -11.396   6.784  72.484  1.00  0.00    -0.254 C  
HETATM   41  N   UNL     1     -11.272   8.119  72.444  1.00  0.00    -0.359 NA 
HETATM   42  O   UNL     1     -10.895   6.042  73.317  1.00  0.00    -0.254 OA 
ENDBRANCH  36  37
ENDBRANCH  28  31
ENDBRANCH  24  25
ENDBRANCH   8  24
ENDBRANCH   3   4
ENDBRANCH   2   3
TORSDOF 10
ENDMDL
MODEL       29
REMARK 921   NORMALIZED FREE ENERGY PREDICTED BY IDOCK:   -6.51 KCAL/MOL
REMARK 922        TOTAL FREE ENERGY PREDICTED BY IDOCK:  -13.23 KCAL/MOL
REMARK 923 INTER-LIGAND FREE ENERGY PREDICTED BY IDOCK:  -10.19 KCAL/MOL
REMARK 924 INTRA-LIGAND FREE ENERGY PREDICTED BY IDOCK:   -3.04 KCAL/MOL
REMARK 927      BINDING AFFINITY PREDICTED BY RF-SCORE:    0.00 PKD
ROOT
HETATM    1  C   UNL     1     -13.071  10.999  71.608  1.00  0.00    -0.543 C  
HETATM    2  C   UNL     1     -13.421   9.589  72.051  1.00  0.00    -0.443 C  
ENDROOT
BRANCH   2   3
HETATM    3  O   UNL     1     -12.655   8.649  71.293  1.00  0.00    -0.303 OA 
BRANCH   3   4
HETATM    4  C   UNL     1     -11.403   8.494  71.727  1.00  0.00    -0.307 A  
HETATM    5  N   UNL     1     -11.066   8.114  72.932  1.00  0.00    -0.333 NA 
HETATM    6  C   UNL     1      -9.700   8.076  72.923  1.00  0.00    -0.283 A  
HETATM    7  C   UNL     1      -9.170   8.454  71.682  1.00  0.00    -0.206 A  
HETATM    8  N   UNL     1     -10.304   8.675  70.918  1.00  0.00    -0.201 NA 
HETATM    9  C   UNL     1      -7.767   8.522  71.484  1.00  0.00    -0.146 A  
HETATM   10  C   UNL     1      -6.941   8.130  72.560  1.00  0.00    -0.101 A  
HETATM   11  C   UNL     1      -8.849   7.688  73.970  1.00  0.00    -0.305 A  
HETATM   12  C   UNL     1      -7.470   7.706  73.774  1.00  0.00    -0.152 A  
BRANCH   9  13
HETATM   13  C   UNL     1      -7.118   8.883  70.202  1.00  0.00    -0.048 C  
HETATM   14  O   UNL     1      -7.183   8.199  69.197  1.00  0.00    -0.069 OA 
BRANCH  13  15
HETATM   15  O   UNL     1      -6.395  10.027  70.342  1.00  0.00    -0.088 OA 
BRANCH  15  16
HETATM   16  C   UNL     1      -5.361  10.231  69.365  1.00  0.00    -0.038 C  
BRANCH  16  17
HETATM   17  C   UNL     1      -5.587  11.518  68.653  1.00  0.00    -0.042 C  
HETATM   18  O   UNL     1      -5.949  13.083  67.099  1.00  0.00    -0.326 OA 
HETATM   19  C   UNL     1      -5.747  11.749  67.367  1.00  0.00    -0.102 C  
HETATM   20  O   UNL     1      -5.633  12.700  69.374  1.00  0.00    -0.075 OA 
HETATM   21  C   UNL     1      -5.848  10.812  66.244  1.00  0.00    -0.122 C  
HETATM   22  C   UNL     1      -5.889  13.628  68.370  1.00  0.00    -0.098 C  
HETATM   23  O   UNL     1      -6.038  14.825  68.582  1.00  0.00    -0.082 OA 
ENDBRANCH  16  17
ENDBRANCH  15  16
ENDBRANCH  13  15
ENDBRANCH   9  13
BRANCH   8  24
HETATM   24  C   UNL     1     -10.410   8.837  69.477  1.00  0.00    -0.213 C  
BRANCH  24  25
HETATM   25  C   UNL     1     -10.432  10.264  68.977  1.00  0.00    -0.238 A  
HETATM   26  C   UNL     1      -9.292  11.037  68.760  1.00  0.00    -0.185 A  
HETATM   27  C   UNL     1     -11.786  12.170  68.264  1.00  0.00    -0.401 A  
HETATM   28  C   UNL     1     -10.650  12.968  68.055  1.00  0.00    -0.246 A  
HETATM   29  C   UNL     1     -11.679  10.843  68.703  1.00  0.00    -0.334 A  
HETATM   30  C   UNL     1      -9.404  12.337  68.250  1.00  0.00    -0.199 A  
BRANCH  28  31
HETATM   31  C   UNL     1     -10.751  14.382  67.571  1.00  0.00    -0.271 A  
HETATM   32  C   UNL     1     -10.310  15.966  65.726  1.00  0.00    -0.396 A  
HETATM   33  C   UNL     1     -10.516  14.666  66.201  1.00  0.00    -0.308 A  
HETATM   34  C   UNL     1     -10.407  17.040  66.593  1.00  0.00    -0.299 A  
HETATM   35  C   UNL     1     -10.747  16.812  67.923  1.00  0.00    -0.347 A  
HETATM   36  C   UNL     1     -10.940  15.503  68.412  1.00  0.00    -0.297 A  
BRANCH  36  37
HETATM   37  C   UNL     1     -11.371  15.428  69.821  1.00  0.00    -0.306 C  
HETATM   38  N   UNL     1     -10.581  15.274  70.832  1.00  0.00    -0.105 NA 
HETATM   39  O   UNL     1     -11.438  15.278  71.977  1.00  0.00    -0.420 OA 
HETATM   40  C   UNL     1     -12.712  15.454  71.502  1.00  0.00    -0.411 C  
HETATM   41  N   UNL     1     -12.657  15.563  70.167  1.00  0.00    -0.341 NA 
HETATM   42  O   UNL     1     -13.729  15.484  72.182  1.00  0.00    -0.458 OA 
ENDBRANCH  36  37
ENDBRANCH  28  31
ENDBRANCH  24  25
ENDBRANCH   8  24
ENDBRANCH   3   4
ENDBRANCH   2   3
TORSDOF 10
ENDMDL
MODEL       30
REMARK 921   NORMALIZED FREE ENERGY PREDICTED BY IDOCK:   -6.49 KCAL/MOL
REMARK 922        TOTAL FREE ENERGY PREDICTED BY IDOCK:  -13.20 KCAL/MOL
REMARK 923 INTER-LIGAND FREE ENERGY PREDICTED BY IDOCK:  -10.35 KCAL/MOL
REMARK 924 INTRA-LIGAND FREE ENERGY PREDICTED BY IDOCK:   -2.85 KCAL/MOL
REMARK 927      BINDING AFFINITY PREDICTED BY RF-SCORE:    0.00 PKD
ROOT
HETATM    1  C   UNL     1      -5.550   5.143  64.690  1.00  0.00    -0.017 C  
HETATM    2  C   UNL     1      -6.379   4.851  65.928  1.00  0.00    -0.039 C  
ENDROOT
BRANCH   2   3
HETATM    3  O   UNL     1      -6.679   6.077  66.599  1.00  0.00    -0.057 OA 
BRANCH   3   4
HETATM    4  C   UNL     1      -6.957   5.933  67.895  1.00  0.00    -0.065 A  
HETATM    5  N   UNL     1      -7.074   4.788  68.517  1.00  0.00    -0.056 NA 
HETATM    6  C   UNL     1      -7.341   5.115  69.817  1.00  0.00    -0.060 A  
HETATM    7  C   UNL     1      -7.405   6.502  70.009  1.00  0.00    -0.089 A  
HETATM    8  N   UNL     1      -7.106   7.001  68.751  1.00  0.00    -0.086 NA 
HETATM    9  C   UNL     1      -7.716   7.043  71.283  1.00  0.00    -0.091 A  
HETATM   10  C   UNL     1      -7.889   6.134  72.349  1.00  0.00    -0.104 A  
HETATM   11  C   UNL     1      -7.514   4.240  70.901  1.00  0.00    -0.051 A  
HETATM   12  C   UNL     1      -7.774   4.760  72.167  1.00  0.00    -0.092 A  
BRANCH   9  13
HETATM   13  C   UNL     1      -7.777   8.492  71.586  1.00  0.00    -0.117 C  
HETATM   14  O   UNL     1      -6.812   9.233  71.536  1.00  0.00    -0.260 OA 
BRANCH  13  15
HETATM   15  O   UNL     1      -9.029   8.840  71.989  1.00  0.00    -0.304 OA 
BRANCH  15  16
HETATM   16  C   UNL     1      -9.919   9.273  70.947  1.00  0.00    -0.297 C  
BRANCH  16  17
HETATM   17  C   UNL     1     -11.291   8.762  71.213  1.00  0.00    -0.291 C  
HETATM   18  O   UNL     1     -13.127   7.495  71.346  1.00  0.00    -0.351 OA 
HETATM   19  C   UNL     1     -11.823   7.595  70.919  1.00  0.00    -0.250 C  
HETATM   20  O   UNL     1     -12.216   9.578  71.844  1.00  0.00    -0.374 OA 
HETATM   21  C   UNL     1     -11.213   6.400  70.327  1.00  0.00    -0.445 C  
HETATM   22  C   UNL     1     -13.319   8.735  71.927  1.00  0.00    -0.389 C  
HETATM   23  O   UNL     1     -14.375   9.060  72.457  1.00  0.00    -0.570 OA 
ENDBRANCH  16  17
ENDBRANCH  15  16
ENDBRANCH  13  15
ENDBRANCH   9  13
BRANCH   8  24
HETATM   24  C   UNL     1      -6.764   8.362  68.372  1.00  0.00    -0.064 C  
BRANCH  24  25
HETATM   25  C   UNL     1      -7.865   9.152  67.702  1.00  0.00    -0.096 A  
HETATM   26  C   UNL     1      -9.172   8.695  67.539  1.00  0.00    -0.151 A  
HETATM   27  C   UNL     1      -8.511  11.217  66.563  1.00  0.00    -0.165 A  
HETATM   28  C   UNL     1      -9.827  10.767  66.377  1.00  0.00    -0.254 A  
HETATM   29  C   UNL     1      -7.554  10.433  67.222  1.00  0.00    -0.095 A  
HETATM   30  C   UNL     1     -10.141   9.515  66.946  1.00  0.00    -0.295 A  
BRANCH  28  31
HETATM   31  C   UNL     1     -10.862  11.602  65.687  1.00  0.00    -0.330 A  
HETATM   32  C   UNL     1     -11.686  12.504  63.539  1.00  0.00    -0.595 A  
HETATM   33  C   UNL     1     -10.957  11.560  64.272  1.00  0.00    -0.406 A  
HETATM   34  C   UNL     1     -12.411  13.480  64.200  1.00  0.00    -0.387 A  
HETATM   35  C   UNL     1     -12.433  13.486  65.591  1.00  0.00    -0.528 A  
HETATM   36  C   UNL     1     -11.688  12.549  66.336  1.00  0.00    -0.458 A  
BRANCH  36  37
HETATM   37  C   UNL     1     -11.874  12.633  67.796  1.00  0.00    -0.323 C  
HETATM   38  N   UNL     1     -12.074  11.625  68.579  1.00  0.00    -0.499 NA 
HETATM   39  O   UNL     1     -12.176  12.187  69.890  1.00  0.00    -0.251 OA 
HETATM   40  C   UNL     1     -12.005  13.539  69.744  1.00  0.00    -0.340 C  
HETATM   41  N   UNL     1     -11.803  13.803  68.444  1.00  0.00    -0.361 NA 
HETATM   42  O   UNL     1     -12.054  14.365  70.644  1.00  0.00    -0.293 OA 
ENDBRANCH  36  37
ENDBRANCH  28  31
ENDBRANCH  24  25
ENDBRANCH   8  24
ENDBRANCH   3   4
ENDBRANCH   2   3
TORSDOF 10
ENDMDL
MODEL       31
REMARK 921   NORMALIZED FREE ENERGY PREDICTED BY IDOCK:   -6.45 KCAL/MOL
REMARK 922        TOTAL FREE ENERGY PREDICTED BY IDOCK:  -13.14 KCAL/MOL
REMARK 923 INTER-LIGAND FREE ENERGY PREDICTED BY IDOCK:  -10.80 KCAL/MOL
REMARK 924 INTRA-LIGAND FREE ENERGY PREDICTED BY IDOCK:   -2.34 KCAL/MOL
REMARK 927      BINDING AFFINITY PREDICTED BY RF-SCORE:    0.00 PKD
ROOT
HETATM    1  C   UNL     1      -8.244   7.347  74.078  1.00  0.00    -0.198 C  
HETATM    2  C   UNL     1      -9.191   8.242  73.297  1.00  0.00    -0.193 C  
ENDROOT
BRANCH   2   3
HETATM    3  O   UNL     1      -8.531   8.721  72.123  1.00  0.00    -0.351 OA 
BRANCH   3   4
HETATM    4  C   UNL     1      -9.013   8.219  70.985  1.00  0.00    -0.154 A  
HETATM    5  N   UNL     1     -10.003   7.370  70.898  1.00  0.00    -0.185 NA 
HETATM    6  C   UNL     1     -10.164   7.147  69.560  1.00  0.00    -0.195 A  
HETATM    7  C   UNL     1      -9.240   7.867  68.791  1.00  0.00    -0.143 A  
HETATM    8  N   UNL     1      -8.539   8.585  69.746  1.00  0.00    -0.129 NA 
HETATM    9  C   UNL     1      -9.215   7.736  67.378  1.00  0.00    -0.156 A  
HETATM   10  C   UNL     1     -10.194   6.910  66.786  1.00  0.00    -0.276 A  
HETATM   11  C   UNL     1     -11.128   6.338  68.937  1.00  0.00    -0.434 A  
HETATM   12  C   UNL     1     -11.144   6.236  67.548  1.00  0.00    -0.379 A  
BRANCH   9  13
HETATM   13  C   UNL     1      -8.295   8.477  66.484  1.00  0.00    -0.113 C  
HETATM   14  O   UNL     1      -7.087   8.518  66.642  1.00  0.00    -0.075 OA 
BRANCH  13  15
HETATM   15  O   UNL     1      -8.997   9.147  65.531  1.00  0.00    -0.180 OA 
BRANCH  15  16
HETATM   16  C   UNL     1      -8.889  10.580  65.573  1.00  0.00    -0.184 C  
BRANCH  16  17
HETATM   17  C   UNL     1      -9.981  11.190  64.767  1.00  0.00    -0.287 C  
HETATM   18  O   UNL     1     -11.233  11.995  63.099  1.00  0.00    -0.324 OA 
HETATM   19  C   UNL     1     -10.038  11.425  63.473  1.00  0.00    -0.395 C  
HETATM   20  O   UNL     1     -11.138  11.620  65.395  1.00  0.00    -0.294 OA 
HETATM   21  C   UNL     1      -9.093  11.077  62.407  1.00  0.00    -0.328 C  
HETATM   22  C   UNL     1     -11.887  12.078  64.316  1.00  0.00    -0.346 C  
HETATM   23  O   UNL     1     -13.021  12.528  64.426  1.00  0.00    -0.748 OA 
ENDBRANCH  16  17
ENDBRANCH  15  16
ENDBRANCH  13  15
ENDBRANCH   9  13
BRANCH   8  24
HETATM   24  C   UNL     1      -7.629   9.703  69.554  1.00  0.00    -0.104 C  
BRANCH  24  25
HETATM   25  C   UNL     1      -8.261  10.987  69.065  1.00  0.00    -0.101 A  
HETATM   26  C   UNL     1      -9.631  11.167  68.881  1.00  0.00    -0.154 A  
HETATM   27  C   UNL     1      -7.919  13.285  68.305  1.00  0.00    -0.144 A  
HETATM   28  C   UNL     1      -9.294  13.479  68.100  1.00  0.00    -0.213 A  
HETATM   29  C   UNL     1      -7.415  12.070  68.789  1.00  0.00    -0.086 A  
HETATM   30  C   UNL     1     -10.133  12.407  68.468  1.00  0.00    -0.190 A  
BRANCH  28  31
HETATM   31  C   UNL     1      -9.847  14.778  67.597  1.00  0.00    -0.218 A  
HETATM   32  C   UNL     1      -9.681  16.570  65.904  1.00  0.00    -0.303 A  
HETATM   33  C   UNL     1      -9.445  15.256  66.323  1.00  0.00    -0.341 A  
HETATM   34  C   UNL     1     -10.396  17.434  66.715  1.00  0.00    -0.305 A  
HETATM   35  C   UNL     1     -10.904  16.969  67.923  1.00  0.00    -0.302 A  
HETATM   36  C   UNL     1     -10.655  15.651  68.360  1.00  0.00    -0.252 A  
BRANCH  36  37
HETATM   37  C   UNL     1     -11.323  15.283  69.622  1.00  0.00    -0.290 C  
HETATM   38  N   UNL     1     -12.400  14.575  69.713  1.00  0.00    -0.302 NA 
HETATM   39  O   UNL     1     -12.655  14.465  71.117  1.00  0.00    -0.308 OA 
HETATM   40  C   UNL     1     -11.644  15.146  71.745  1.00  0.00    -0.408 C  
HETATM   41  N   UNL     1     -10.816  15.634  70.810  1.00  0.00    -0.304 NA 
HETATM   42  O   UNL     1     -11.532  15.299  72.953  1.00  0.00    -0.413 OA 
ENDBRANCH  36  37
ENDBRANCH  28  31
ENDBRANCH  24  25
ENDBRANCH   8  24
ENDBRANCH   3   4
ENDBRANCH   2   3
TORSDOF 10
ENDMDL
MODEL       32
REMARK 921   NORMALIZED FREE ENERGY PREDICTED BY IDOCK:   -6.44 KCAL/MOL
REMARK 922        TOTAL FREE ENERGY PREDICTED BY IDOCK:  -13.13 KCAL/MOL
REMARK 923 INTER-LIGAND FREE ENERGY PREDICTED BY IDOCK:  -10.94 KCAL/MOL
REMARK 924 INTRA-LIGAND FREE ENERGY PREDICTED BY IDOCK:   -2.19 KCAL/MOL
REMARK 927      BINDING AFFINITY PREDICTED BY RF-SCORE:    0.00 PKD
ROOT
HETATM    1  C   UNL     1      -5.414   6.209  65.723  1.00  0.00    -0.013 C  
HETATM    2  C   UNL     1      -6.906   6.185  65.437  1.00  0.00    -0.048 C  
ENDROOT
BRANCH   2   3
HETATM    3  O   UNL     1      -7.496   7.405  65.894  1.00  0.00    -0.076 OA 
BRANCH   3   4
HETATM    4  C   UNL     1      -8.377   7.244  66.883  1.00  0.00    -0.118 A  
HETATM    5  N   UNL     1      -9.214   6.245  66.990  1.00  0.00    -0.121 NA 
HETATM    6  C   UNL     1      -9.901   6.479  68.148  1.00  0.00    -0.131 A  
HETATM    7  C   UNL     1      -9.490   7.665  68.774  1.00  0.00    -0.152 A  
HETATM    8  N   UNL     1      -8.470   8.110  67.949  1.00  0.00    -0.131 NA 
HETATM    9  C   UNL     1     -10.115   8.107  69.968  1.00  0.00    -0.196 A  
HETATM   10  C   UNL     1     -11.109   7.275  70.526  1.00  0.00    -0.290 A  
HETATM   11  C   UNL     1     -10.890   5.674  68.733  1.00  0.00    -0.210 A  
HETATM   12  C   UNL     1     -11.480   6.074  69.930  1.00  0.00    -0.225 A  
BRANCH   9  13
HETATM   13  C   UNL     1      -9.729   9.328  70.713  1.00  0.00    -0.282 C  
HETATM   14  O   UNL     1      -8.586   9.579  71.051  1.00  0.00    -0.273 OA 
BRANCH  13  15
HETATM   15  O   UNL     1     -10.830  10.067  71.016  1.00  0.00    -0.298 OA 
BRANCH  15  16
HETATM   16  C   UNL     1     -11.312  10.922  69.966  1.00  0.00    -0.307 C  
BRANCH  16  17
HETATM   17  C   UNL     1     -12.102  12.040  70.551  1.00  0.00    -0.311 C  
HETATM   18  O   UNL     1     -13.013  14.034  70.987  1.00  0.00    -0.329 OA 
HETATM   19  C   UNL     1     -12.138  13.310  70.210  1.00  0.00    -0.335 C  
HETATM   20  O   UNL     1     -12.938  11.797  71.629  1.00  0.00    -0.425 OA 
HETATM   21  C   UNL     1     -11.490  14.008  69.095  1.00  0.00    -0.340 C  
HETATM   22  C   UNL     1     -13.496  13.054  71.836  1.00  0.00    -0.408 C  
HETATM   23  O   UNL     1     -14.334  13.284  72.700  1.00  0.00    -0.679 OA 
ENDBRANCH  16  17
ENDBRANCH  15  16
ENDBRANCH  13  15
ENDBRANCH   9  13
BRANCH   8  24
HETATM   24  C   UNL     1      -7.482   9.146  68.206  1.00  0.00    -0.083 C  
BRANCH  24  25
HETATM   25  C   UNL     1      -7.852  10.535  67.739  1.00  0.00    -0.104 A  
HETATM   26  C   UNL     1      -6.982  11.625  67.747  1.00  0.00    -0.084 A  
HETATM   27  C   UNL     1      -9.582  12.004  66.830  1.00  0.00    -0.215 A  
HETATM   28  C   UNL     1      -8.724  13.115  66.846  1.00  0.00    -0.156 A  
HETATM   29  C   UNL     1      -9.152  10.739  67.255  1.00  0.00    -0.151 A  
HETATM   30  C   UNL     1      -7.397  12.867  67.252  1.00  0.00    -0.077 A  
BRANCH  28  31
HETATM   31  C   UNL     1      -9.168  14.468  66.381  1.00  0.00    -0.264 A  
HETATM   32  C   UNL     1      -9.111  16.906  66.782  1.00  0.00    -0.266 A  
HETATM   33  C   UNL     1      -8.570  15.626  66.943  1.00  0.00    -0.281 A  
HETATM   34  C   UNL     1     -10.231  17.086  65.987  1.00  0.00    -0.337 A  
HETATM   35  C   UNL     1     -10.780  15.992  65.328  1.00  0.00    -0.417 A  
HETATM   36  C   UNL     1     -10.250  14.696  65.500  1.00  0.00    -0.395 A  
BRANCH  36  37
HETATM   37  C   UNL     1     -10.891  13.653  64.677  1.00  0.00    -0.407 C  
HETATM   38  N   UNL     1     -10.305  12.978  63.744  1.00  0.00    -0.297 NA 
HETATM   39  O   UNL     1     -11.305  12.084  63.248  1.00  0.00    -0.381 OA 
HETATM   40  C   UNL     1     -12.436  12.326  63.983  1.00  0.00    -0.458 C  
HETATM   41  N   UNL     1     -12.164  13.288  64.876  1.00  0.00    -0.397 NA 
HETATM   42  O   UNL     1     -13.516  11.773  63.831  1.00  0.00    -0.474 OA 
ENDBRANCH  36  37
ENDBRANCH  28  31
ENDBRANCH  24  25
ENDBRANCH   8  24
ENDBRANCH   3   4
ENDBRANCH   2   3
TORSDOF 10
ENDMDL
MODEL       33
REMARK 921   NORMALIZED FREE ENERGY PREDICTED BY IDOCK:   -6.42 KCAL/MOL
REMARK 922        TOTAL FREE ENERGY PREDICTED BY IDOCK:  -13.09 KCAL/MOL
REMARK 923 INTER-LIGAND FREE ENERGY PREDICTED BY IDOCK:  -11.38 KCAL/MOL
REMARK 924 INTRA-LIGAND FREE ENERGY PREDICTED BY IDOCK:   -1.71 KCAL/MOL
REMARK 927      BINDING AFFINITY PREDICTED BY RF-SCORE:    0.00 PKD
ROOT
HETATM    1  C   UNL     1      -8.484   7.160  74.483  1.00  0.00    -0.224 C  
HETATM    2  C   UNL     1      -9.384   7.658  73.366  1.00  0.00    -0.268 C  
ENDROOT
BRANCH   2   3
HETATM    3  O   UNL     1      -9.713   6.569  72.499  1.00  0.00    -0.159 OA 
BRANCH   3   4
HETATM    4  C   UNL     1      -9.098   6.611  71.317  1.00  0.00    -0.151 A  
HETATM    5  N   UNL     1      -7.889   6.174  71.081  1.00  0.00    -0.109 NA 
HETATM    6  C   UNL     1      -7.681   6.401  69.749  1.00  0.00    -0.109 A  
HETATM    7  C   UNL     1      -8.788   7.009  69.140  1.00  0.00    -0.135 A  
HETATM    8  N   UNL     1      -9.704   7.089  70.176  1.00  0.00    -0.175 NA 
HETATM    9  C   UNL     1      -8.752   7.368  67.768  1.00  0.00    -0.126 A  
HETATM   10  C   UNL     1      -7.593   7.026  67.038  1.00  0.00    -0.102 A  
HETATM   11  C   UNL     1      -6.546   6.072  68.992  1.00  0.00    -0.051 A  
HETATM   12  C   UNL     1      -6.516   6.376  67.634  1.00  0.00    -0.052 A  
BRANCH   9  13
HETATM   13  C   UNL     1      -9.880   7.986  67.034  1.00  0.00    -0.227 C  
HETATM   14  O   UNL     1     -10.895   7.386  66.727  1.00  0.00    -0.303 OA 
BRANCH  13  15
HETATM   15  O   UNL     1      -9.583   9.271  66.701  1.00  0.00    -0.173 OA 
BRANCH  15  16
HETATM   16  C   UNL     1      -9.247   9.492  65.321  1.00  0.00    -0.247 C  
BRANCH  16  17
HETATM   17  C   UNL     1     -10.155  10.518  64.740  1.00  0.00    -0.336 C  
HETATM   18  O   UNL     1     -11.122  12.030  63.408  1.00  0.00    -0.410 OA 
HETATM   19  C   UNL     1     -10.070  11.163  63.596  1.00  0.00    -0.379 C  
HETATM   20  O   UNL     1     -11.272  10.925  65.451  1.00  0.00     0.055 OA 
HETATM   21  C   UNL     1      -9.115  11.011  62.494  1.00  0.00    -0.362 C  
HETATM   22  C   UNL     1     -11.847  11.835  64.570  1.00  0.00    -0.152 C  
HETATM   23  O   UNL     1     -12.896  12.424  64.800  1.00  0.00    -0.728 OA 
ENDBRANCH  16  17
ENDBRANCH  15  16
ENDBRANCH  13  15
ENDBRANCH   9  13
BRANCH   8  24
HETATM   24  C   UNL     1     -11.126   7.386  70.109  1.00  0.00    -0.246 C  
BRANCH  24  25
HETATM   25  C   UNL     1     -11.506   8.830  70.343  1.00  0.00    -0.163 A  
HETATM   26  C   UNL     1     -10.916   9.913  69.692  1.00  0.00    -0.285 A  
HETATM   27  C   UNL     1     -12.918  10.411  71.560  1.00  0.00    -0.562 A  
HETATM   28  C   UNL     1     -12.325  11.514  70.926  1.00  0.00    -0.460 A  
HETATM   29  C   UNL     1     -12.527   9.098  71.266  1.00  0.00    -0.366 A  
HETATM   30  C   UNL     1     -11.364  11.217  69.937  1.00  0.00    -0.348 A  
BRANCH  28  31
HETATM   31  C   UNL     1     -12.745  12.921  71.220  1.00  0.00    -0.371 A  
HETATM   32  C   UNL     1     -14.153  14.403  72.609  1.00  0.00    -0.276 A  
HETATM   33  C   UNL     1     -13.485  13.191  72.401  1.00  0.00    -0.643 A  
HETATM   34  C   UNL     1     -14.044  15.420  71.676  1.00  0.00    -0.618 A  
HETATM   35  C   UNL     1     -13.236  15.234  70.559  1.00  0.00    -0.278 A  
HETATM   36  C   UNL     1     -12.573  14.009  70.334  1.00  0.00    -0.374 A  
BRANCH  36  37
HETATM   37  C   UNL     1     -11.694  13.991  69.150  1.00  0.00    -0.333 C  
HETATM   38  N   UNL     1     -12.074  13.709  67.947  1.00  0.00    -0.337 NA 
HETATM   39  O   UNL     1     -10.896  13.838  67.146  1.00  0.00    -0.279 OA 
HETATM   40  C   UNL     1      -9.890  14.212  67.998  1.00  0.00    -0.223 C  
HETATM   41  N   UNL     1     -10.399  14.321  69.234  1.00  0.00    -0.124 NA 
HETATM   42  O   UNL     1      -8.722  14.394  67.686  1.00  0.00    -0.170 OA 
ENDBRANCH  36  37
ENDBRANCH  28  31
ENDBRANCH  24  25
ENDBRANCH   8  24
ENDBRANCH   3   4
ENDBRANCH   2   3
TORSDOF 10
ENDMDL
MODEL       34
REMARK 921   NORMALIZED FREE ENERGY PREDICTED BY IDOCK:   -6.42 KCAL/MOL
REMARK 922        TOTAL FREE ENERGY PREDICTED BY IDOCK:  -13.09 KCAL/MOL
REMARK 923 INTER-LIGAND FREE ENERGY PREDICTED BY IDOCK:   -9.39 KCAL/MOL
REMARK 924 INTRA-LIGAND FREE ENERGY PREDICTED BY IDOCK:   -3.69 KCAL/MOL
REMARK 927      BINDING AFFINITY PREDICTED BY RF-SCORE:    0.00 PKD
ROOT
HETATM    1  C   UNL     1     -12.325  11.604  69.830  1.00  0.00    -0.226 C  
HETATM    2  C   UNL     1     -12.736  10.476  70.760  1.00  0.00    -0.381 C  
ENDROOT
BRANCH   2   3
HETATM    3  O   UNL     1     -11.678  10.215  71.687  1.00  0.00    -0.307 OA 
BRANCH   3   4
HETATM    4  C   UNL     1     -11.368   8.924  71.806  1.00  0.00    -0.361 A  
HETATM    5  N   UNL     1     -12.202   7.978  72.151  1.00  0.00    -0.327 NA 
HETATM    6  C   UNL     1     -11.465   6.827  72.128  1.00  0.00    -0.282 A  
HETATM    7  C   UNL     1     -10.130   7.064  71.772  1.00  0.00    -0.184 A  
HETATM    8  N   UNL     1     -10.114   8.427  71.527  1.00  0.00    -0.207 NA 
HETATM    9  C   UNL     1      -9.192   6.001  71.735  1.00  0.00    -0.151 A  
HETATM   10  C   UNL     1      -9.673   4.701  72.003  1.00  0.00    -0.225 A  
HETATM   11  C   UNL     1     -11.911   5.521  72.385  1.00  0.00    -0.117 A  
HETATM   12  C   UNL     1     -11.010   4.462  72.307  1.00  0.00     0.104 A  
BRANCH   9  13
HETATM   13  C   UNL     1      -7.771   6.150  71.343  1.00  0.00    -0.100 C  
HETATM   14  O   UNL     1      -6.841   6.041  72.122  1.00  0.00    -0.069 OA 
BRANCH  13  15
HETATM   15  O   UNL     1      -7.674   6.493  70.030  1.00  0.00    -0.097 OA 
BRANCH  15  16
HETATM   16  C   UNL     1      -7.390   5.413  69.126  1.00  0.00    -0.066 C  
BRANCH  16  17
HETATM   17  C   UNL     1      -8.207   5.562  67.891  1.00  0.00    -0.100 C  
HETATM   18  O   UNL     1      -9.006   6.199  65.903  1.00  0.00    -0.157 OA 
HETATM   19  C   UNL     1      -8.039   6.372  66.867  1.00  0.00    -0.109 C  
HETATM   20  O   UNL     1      -9.340   4.783  67.721  1.00  0.00    -0.123 OA 
HETATM   21  C   UNL     1      -6.952   7.310  66.572  1.00  0.00    -0.073 C  
HETATM   22  C   UNL     1      -9.775   5.196  66.466  1.00  0.00    -0.171 C  
HETATM   23  O   UNL     1     -10.758   4.725  65.906  1.00  0.00    -0.318 OA 
ENDBRANCH  16  17
ENDBRANCH  15  16
ENDBRANCH  13  15
ENDBRANCH   9  13
BRANCH   8  24
HETATM   24  C   UNL     1      -9.085   9.220  70.873  1.00  0.00    -0.222 C  
BRANCH  24  25
HETATM   25  C   UNL     1      -9.281   9.458  69.393  1.00  0.00    -0.167 A  
HETATM   26  C   UNL     1     -10.181   8.750  68.597  1.00  0.00    -0.214 A  
HETATM   27  C   UNL     1      -8.620  10.727  67.412  1.00  0.00    -0.126 A  
HETATM   28  C   UNL     1      -9.509  10.014  66.592  1.00  0.00    -0.215 A  
HETATM   29  C   UNL     1      -8.518  10.464  68.785  1.00  0.00    -0.132 A  
HETATM   30  C   UNL     1     -10.331   9.070  67.242  1.00  0.00    -0.342 A  
BRANCH  28  31
HETATM   31  C   UNL     1      -9.638  10.297  65.126  1.00  0.00    -0.337 A  
HETATM   32  C   UNL     1      -8.857   9.752  62.846  1.00  0.00    -0.255 A  
HETATM   33  C   UNL     1      -9.029   9.417  64.194  1.00  0.00    -0.187 A  
HETATM   34  C   UNL     1      -9.357  10.949  62.363  1.00  0.00    -0.252 A  
HETATM   35  C   UNL     1     -10.059  11.788  63.222  1.00  0.00    -0.448 A  
HETATM   36  C   UNL     1     -10.221  11.466  64.585  1.00  0.00    -0.347 A  
BRANCH  36  37
HETATM   37  C   UNL     1     -11.053  12.414  65.349  1.00  0.00    -0.306 C  
HETATM   38  N   UNL     1     -12.329  12.309  65.524  1.00  0.00    -0.566 NA 
HETATM   39  O   UNL     1     -12.687  13.433  66.333  1.00  0.00    -0.232 OA 
HETATM   40  C   UNL     1     -11.525  14.118  66.576  1.00  0.00    -0.358 C  
HETATM   41  N   UNL     1     -10.516  13.468  65.976  1.00  0.00    -0.293 NA 
HETATM   42  O   UNL     1     -11.430  15.157  67.213  1.00  0.00    -0.345 OA 
ENDBRANCH  36  37
ENDBRANCH  28  31
ENDBRANCH  24  25
ENDBRANCH   8  24
ENDBRANCH   3   4
ENDBRANCH   2   3
TORSDOF 10
ENDMDL
MODEL       35
REMARK 921   NORMALIZED FREE ENERGY PREDICTED BY IDOCK:   -6.42 KCAL/MOL
REMARK 922        TOTAL FREE ENERGY PREDICTED BY IDOCK:  -13.09 KCAL/MOL
REMARK 923 INTER-LIGAND FREE ENERGY PREDICTED BY IDOCK:  -10.49 KCAL/MOL
REMARK 924 INTRA-LIGAND FREE ENERGY PREDICTED BY IDOCK:   -2.60 KCAL/MOL
REMARK 927      BINDING AFFINITY PREDICTED BY RF-SCORE:    0.00 PKD
ROOT
HETATM    1  C   UNL     1      -5.307   7.471  66.082  1.00  0.00    -0.025 C  
HETATM    2  C   UNL     1      -6.309   6.481  65.514  1.00  0.00    -0.038 C  
ENDROOT
BRANCH   2   3
HETATM    3  O   UNL     1      -7.626   6.843  65.934  1.00  0.00    -0.084 OA 
BRANCH   3   4
HETATM    4  C   UNL     1      -8.088   6.122  66.956  1.00  0.00    -0.106 A  
HETATM    5  N   UNL     1      -8.219   4.820  66.960  1.00  0.00    -0.106 NA 
HETATM    6  C   UNL     1      -8.704   4.515  68.201  1.00  0.00    -0.103 A  
HETATM    7  C   UNL     1      -8.892   5.659  68.989  1.00  0.00    -0.106 A  
HETATM    8  N   UNL     1      -8.440   6.677  68.166  1.00  0.00    -0.117 NA 
HETATM    9  C   UNL     1      -9.431   5.556  70.297  1.00  0.00    -0.211 A  
HETATM   10  C   UNL     1      -9.702   4.260  70.787  1.00  0.00    -0.274 A  
HETATM   11  C   UNL     1      -8.980   3.241  68.721  1.00  0.00    -0.186 A  
HETATM   12  C   UNL     1      -9.466   3.122  70.021  1.00  0.00    -0.219 A  
BRANCH   9  13
HETATM   13  C   UNL     1      -9.638   6.704  71.211  1.00  0.00    -0.169 C  
HETATM   14  O   UNL     1      -8.754   7.477  71.533  1.00  0.00    -0.116 OA 
BRANCH  13  15
HETATM   15  O   UNL     1     -10.915   6.714  71.680  1.00  0.00    -0.230 OA 
BRANCH  15  16
HETATM   16  C   UNL     1     -11.228   7.768  72.604  1.00  0.00    -0.381 C  
BRANCH  16  17
HETATM   17  C   UNL     1     -11.961   8.855  71.899  1.00  0.00    -0.371 C  
HETATM   18  O   UNL     1     -13.528  10.101  70.905  1.00  0.00    -0.345 OA 
HETATM   19  C   UNL     1     -13.221   8.911  71.523  1.00  0.00    -0.327 C  
HETATM   20  O   UNL     1     -11.287  10.007  71.530  1.00  0.00    -0.301 OA 
HETATM   21  C   UNL     1     -14.321   7.970  71.761  1.00  0.00    -0.583 C  
HETATM   22  C   UNL     1     -12.308  10.753  70.949  1.00  0.00    -0.396 C  
HETATM   23  O   UNL     1     -12.146  11.882  70.504  1.00  0.00    -0.366 OA 
ENDBRANCH  16  17
ENDBRANCH  15  16
ENDBRANCH  13  15
ENDBRANCH   9  13
BRANCH   8  24
HETATM   24  C   UNL     1      -8.139   8.057  68.511  1.00  0.00    -0.125 C  
BRANCH  24  25
HETATM   25  C   UNL     1      -8.981   9.105  67.820  1.00  0.00    -0.132 A  
HETATM   26  C   UNL     1     -10.336   9.317  68.075  1.00  0.00    -0.270 A  
HETATM   27  C   UNL     1      -9.075  10.901  66.165  1.00  0.00    -0.201 A  
HETATM   28  C   UNL     1     -10.443  11.117  66.397  1.00  0.00    -0.311 A  
HETATM   29  C   UNL     1      -8.357   9.925  66.869  1.00  0.00    -0.124 A  
HETATM   30  C   UNL     1     -11.028  10.343  67.420  1.00  0.00    -0.335 A  
BRANCH  28  31
HETATM   31  C   UNL     1     -11.217  12.167  65.660  1.00  0.00    -0.381 A  
HETATM   32  C   UNL     1     -12.305  12.817  63.539  1.00  0.00    -0.559 A  
HETATM   33  C   UNL     1     -11.817  11.842  64.416  1.00  0.00    -0.336 A  
HETATM   34  C   UNL     1     -12.281  14.151  63.907  1.00  0.00    -0.288 A  
HETATM   35  C   UNL     1     -11.804  14.500  65.167  1.00  0.00    -0.374 A  
HETATM   36  C   UNL     1     -11.294  13.525  66.049  1.00  0.00    -0.327 A  
BRANCH  36  37
HETATM   37  C   UNL     1     -10.898  14.038  67.374  1.00  0.00    -0.282 C  
HETATM   38  N   UNL     1      -9.681  14.156  67.790  1.00  0.00    -0.219 NA 
HETATM   39  O   UNL     1      -9.790  14.707  69.106  1.00  0.00    -0.202 OA 
HETATM   40  C   UNL     1     -11.130  14.875  69.342  1.00  0.00    -0.280 C  
HETATM   41  N   UNL     1     -11.806  14.473  68.256  1.00  0.00    -0.326 NA 
HETATM   42  O   UNL     1     -11.624  15.299  70.378  1.00  0.00    -0.261 OA 
ENDBRANCH  36  37
ENDBRANCH  28  31
ENDBRANCH  24  25
ENDBRANCH   8  24
ENDBRANCH   3   4
ENDBRANCH   2   3
TORSDOF 10
ENDMDL
MODEL       36
REMARK 921   NORMALIZED FREE ENERGY PREDICTED BY IDOCK:   -6.40 KCAL/MOL
REMARK 922        TOTAL FREE ENERGY PREDICTED BY IDOCK:  -13.07 KCAL/MOL
REMARK 923 INTER-LIGAND FREE ENERGY PREDICTED BY IDOCK:  -10.16 KCAL/MOL
REMARK 924 INTRA-LIGAND FREE ENERGY PREDICTED BY IDOCK:   -2.91 KCAL/MOL
REMARK 927      BINDING AFFINITY PREDICTED BY RF-SCORE:    0.00 PKD
ROOT
HETATM    1  C   UNL     1     -13.257  10.341  71.901  1.00  0.00    -0.550 C  
HETATM    2  C   UNL     1     -13.258   8.869  72.274  1.00  0.00    -0.447 C  
ENDROOT
BRANCH   2   3
HETATM    3  O   UNL     1     -12.412   8.150  71.374  1.00  0.00    -0.306 OA 
BRANCH   3   4
HETATM    4  C   UNL     1     -11.123   8.158  71.717  1.00  0.00    -0.270 A  
HETATM    5  N   UNL     1     -10.670   8.087  72.942  1.00  0.00    -0.368 NA 
HETATM    6  C   UNL     1      -9.309   8.110  72.820  1.00  0.00    -0.274 A  
HETATM    7  C   UNL     1      -8.902   8.211  71.482  1.00  0.00    -0.154 A  
HETATM    8  N   UNL     1     -10.103   8.195  70.793  1.00  0.00    -0.188 NA 
HETATM    9  C   UNL     1      -7.525   8.295  71.149  1.00  0.00    -0.076 A  
HETATM   10  C   UNL     1      -6.595   8.204  72.207  1.00  0.00    -0.075 A  
HETATM   11  C   UNL     1      -8.356   8.018  73.847  1.00  0.00    -0.319 A  
HETATM   12  C   UNL     1      -7.001   8.052  73.530  1.00  0.00    -0.145 A  
BRANCH   9  13
HETATM   13  C   UNL     1      -7.001   8.375  69.766  1.00  0.00    -0.047 C  
HETATM   14  O   UNL     1      -7.011   7.439  68.985  1.00  0.00    -0.072 OA 
BRANCH  13  15
HETATM   15  O   UNL     1      -6.455   9.599  69.535  1.00  0.00    -0.043 OA 
BRANCH  15  16
HETATM   16  C   UNL     1      -7.388  10.691  69.464  1.00  0.00    -0.141 C  
BRANCH  16  17
HETATM   17  C   UNL     1      -6.800  11.803  68.668  1.00  0.00    -0.081 C  
HETATM   18  O   UNL     1      -6.021  13.088  67.014  1.00  0.00    -0.267 OA 
HETATM   19  C   UNL     1      -6.564  11.877  67.376  1.00  0.00    -0.124 C  
HETATM   20  O   UNL     1      -6.399  12.964  69.308  1.00  0.00    -0.097 OA 
HETATM   21  C   UNL     1      -6.889  10.934  66.300  1.00  0.00    -0.123 C  
HETATM   22  C   UNL     1      -5.955  13.733  68.236  1.00  0.00    -0.108 C  
HETATM   23  O   UNL     1      -5.532  14.876  68.358  1.00  0.00    -0.095 OA 
ENDBRANCH  16  17
ENDBRANCH  15  16
ENDBRANCH  13  15
ENDBRANCH   9  13
BRANCH   8  24
HETATM   24  C   UNL     1     -10.330   8.010  69.369  1.00  0.00    -0.217 C  
BRANCH  24  25
HETATM   25  C   UNL     1     -10.681   9.259  68.593  1.00  0.00    -0.180 A  
HETATM   26  C   UNL     1     -11.437  10.313  69.103  1.00  0.00    -0.210 A  
HETATM   27  C   UNL     1     -10.510  10.482  66.484  1.00  0.00    -0.276 A  
HETATM   28  C   UNL     1     -11.283  11.546  66.975  1.00  0.00    -0.365 A  
HETATM   29  C   UNL     1     -10.205   9.369  67.279  1.00  0.00    -0.308 A  
HETATM   30  C   UNL     1     -11.675  11.454  68.327  1.00  0.00    -0.359 A  
BRANCH  28  31
HETATM   31  C   UNL     1     -11.603  12.748  66.140  1.00  0.00    -0.431 A  
HETATM   32  C   UNL     1     -12.358  13.587  63.942  1.00  0.00    -0.397 A  
HETATM   33  C   UNL     1     -12.276  12.573  64.902  1.00  0.00    -0.534 A  
HETATM   34  C   UNL     1     -11.836  14.840  64.215  1.00  0.00    -0.335 A  
HETATM   35  C   UNL     1     -11.269  15.083  65.461  1.00  0.00    -0.344 A  
HETATM   36  C   UNL     1     -11.167  14.061  66.428  1.00  0.00    -0.321 A  
BRANCH  36  37
HETATM   37  C   UNL     1     -10.612  14.492  67.725  1.00  0.00    -0.250 C  
HETATM   38  N   UNL     1      -9.356  14.511  68.026  1.00  0.00    -0.196 NA 
HETATM   39  O   UNL     1      -9.302  15.013  69.365  1.00  0.00    -0.190 OA 
HETATM   40  C   UNL     1     -10.599  15.261  69.734  1.00  0.00    -0.282 C  
HETATM   41  N   UNL     1     -11.400  14.950  68.705  1.00  0.00    -0.272 NA 
HETATM   42  O   UNL     1     -10.962  15.674  70.827  1.00  0.00    -0.324 OA 
ENDBRANCH  36  37
ENDBRANCH  28  31
ENDBRANCH  24  25
ENDBRANCH   8  24
ENDBRANCH   3   4
ENDBRANCH   2   3
TORSDOF 10
ENDMDL
MODEL       37
REMARK 921   NORMALIZED FREE ENERGY PREDICTED BY IDOCK:   -6.38 KCAL/MOL
REMARK 922        TOTAL FREE ENERGY PREDICTED BY IDOCK:  -13.03 KCAL/MOL
REMARK 923 INTER-LIGAND FREE ENERGY PREDICTED BY IDOCK:  -10.65 KCAL/MOL
REMARK 924 INTRA-LIGAND FREE ENERGY PREDICTED BY IDOCK:   -2.38 KCAL/MOL
REMARK 927      BINDING AFFINITY PREDICTED BY RF-SCORE:    0.00 PKD
ROOT
HETATM    1  C   UNL     1      -5.922   8.797  64.793  1.00  0.00    -0.064 C  
HETATM    2  C   UNL     1      -7.397   9.039  65.063  1.00  0.00    -0.096 C  
ENDROOT
BRANCH   2   3
HETATM    3  O   UNL     1      -7.556  10.281  65.753  1.00  0.00    -0.131 OA 
BRANCH   3   4
HETATM    4  C   UNL     1      -8.624  10.982  65.370  1.00  0.00    -0.068 A  
HETATM    5  N   UNL     1      -9.279  10.805  64.253  1.00  0.00    -0.211 NA 
HETATM    6  C   UNL     1     -10.295  11.719  64.287  1.00  0.00    -0.314 A  
HETATM    7  C   UNL     1     -10.264  12.498  65.452  1.00  0.00    -0.283 A  
HETATM    8  N   UNL     1      -9.195  11.962  66.151  1.00  0.00    -0.221 NA 
HETATM    9  C   UNL     1     -11.210  13.535  65.655  1.00  0.00    -0.304 A  
HETATM   10  C   UNL     1     -12.211  13.701  64.674  1.00  0.00    -0.448 A  
HETATM   11  C   UNL     1     -11.308  11.908  63.334  1.00  0.00    -0.465 A  
HETATM   12  C   UNL     1     -12.270  12.893  63.543  1.00  0.00    -0.595 A  
BRANCH   9  13
HETATM   13  C   UNL     1     -11.272  14.388  66.865  1.00  0.00    -0.334 C  
HETATM   14  O   UNL     1     -11.881  14.083  67.875  1.00  0.00    -0.344 OA 
BRANCH  13  15
HETATM   15  O   UNL     1     -10.623  15.565  66.651  1.00  0.00    -0.299 OA 
BRANCH  15  16
HETATM   16  C   UNL     1     -10.624  16.483  67.756  1.00  0.00    -0.332 C  
BRANCH  16  17
HETATM   17  C   UNL     1      -9.249  16.598  68.315  1.00  0.00    -0.217 C  
HETATM   18  O   UNL     1      -7.246  17.345  68.967  1.00  0.00    -0.251 OA 
HETATM   19  C   UNL     1      -8.438  17.633  68.343  1.00  0.00    -0.287 C  
HETATM   20  O   UNL     1      -8.653  15.491  68.897  1.00  0.00    -0.175 OA 
HETATM   21  C   UNL     1      -8.661  19.020  67.922  1.00  0.00    -0.333 C  
HETATM   22  C   UNL     1      -7.432  16.017  69.308  1.00  0.00    -0.228 C  
HETATM   23  O   UNL     1      -6.587  15.365  69.909  1.00  0.00    -0.168 OA 
ENDBRANCH  16  17
ENDBRANCH  15  16
ENDBRANCH  13  15
ENDBRANCH   9  13
BRANCH   8  24
HETATM   24  C   UNL     1      -8.824  12.170  67.542  1.00  0.00    -0.175 C  
BRANCH  24  25
HETATM   25  C   UNL     1      -9.171  11.044  68.489  1.00  0.00    -0.177 A  
HETATM   26  C   UNL     1      -8.230  10.265  69.161  1.00  0.00    -0.152 A  
HETATM   27  C   UNL     1     -10.932   9.728  69.558  1.00  0.00    -0.256 A  
HETATM   28  C   UNL     1      -9.998   8.924  70.230  1.00  0.00    -0.214 A  
HETATM   29  C   UNL     1     -10.528  10.773  68.716  1.00  0.00    -0.221 A  
HETATM   30  C   UNL     1      -8.642   9.272  70.057  1.00  0.00    -0.193 A  
BRANCH  28  31
HETATM   31  C   UNL     1     -10.418   7.813  71.144  1.00  0.00    -0.227 A  
HETATM   32  C   UNL     1     -10.777   7.091  73.480  1.00  0.00    -0.368 A  
HETATM   33  C   UNL     1     -10.662   8.096  72.512  1.00  0.00    -0.419 A  
HETATM   34  C   UNL     1     -10.726   5.761  73.101  1.00  0.00    -0.292 A  
HETATM   35  C   UNL     1     -10.600   5.442  71.753  1.00  0.00    -0.286 A  
HETATM   36  C   UNL     1     -10.467   6.449  70.774  1.00  0.00    -0.270 A  
BRANCH  36  37
HETATM   37  C   UNL     1     -10.420   5.958  69.385  1.00  0.00    -0.275 C  
HETATM   38  N   UNL     1     -11.182   6.368  68.425  1.00  0.00    -0.288 NA 
HETATM   39  O   UNL     1     -10.762   5.629  67.275  1.00  0.00    -0.256 OA 
HETATM   40  C   UNL     1      -9.734   4.823  67.690  1.00  0.00    -0.160 C  
HETATM   41  N   UNL     1      -9.520   5.047  68.995  1.00  0.00    -0.127 NA 
HETATM   42  O   UNL     1      -9.132   4.019  66.992  1.00  0.00    -0.127 OA 
ENDBRANCH  36  37
ENDBRANCH  28  31
ENDBRANCH  24  25
ENDBRANCH   8  24
ENDBRANCH   3   4
ENDBRANCH   2   3
TORSDOF 10
ENDMDL
MODEL       38
REMARK 921   NORMALIZED FREE ENERGY PREDICTED BY IDOCK:   -6.34 KCAL/MOL
REMARK 922        TOTAL FREE ENERGY PREDICTED BY IDOCK:  -12.97 KCAL/MOL
REMARK 923 INTER-LIGAND FREE ENERGY PREDICTED BY IDOCK:  -10.77 KCAL/MOL
REMARK 924 INTRA-LIGAND FREE ENERGY PREDICTED BY IDOCK:   -2.20 KCAL/MOL
REMARK 927      BINDING AFFINITY PREDICTED BY RF-SCORE:    0.00 PKD
ROOT
HETATM    1  C   UNL     1     -12.168  11.862  63.560  1.00  0.00    -0.591 C  
HETATM    2  C   UNL     1     -11.788  13.247  63.067  1.00  0.00     0.276 C  
ENDROOT
BRANCH   2   3
HETATM    3  O   UNL     1     -12.654  14.217  63.661  1.00  0.00    -0.831 OA 
BRANCH   3   4
HETATM    4  C   UNL     1     -12.028  15.094  64.447  1.00  0.00    -0.310 A  
HETATM    5  N   UNL     1     -11.634  16.286  64.079  1.00  0.00    -1.007 NA 
HETATM    6  C   UNL     1     -11.066  16.833  65.196  1.00  0.00    -0.033 A  
HETATM    7  C   UNL     1     -11.095  15.952  66.286  1.00  0.00    -0.014 A  
HETATM    8  N   UNL     1     -11.766  14.853  65.777  1.00  0.00    -0.245 NA 
HETATM    9  C   UNL     1     -10.512  16.318  67.527  1.00  0.00    -0.302 A  
HETATM   10  C   UNL     1      -9.971  17.618  67.632  1.00  0.00    -0.323 A  
HETATM   11  C   UNL     1     -10.523  18.120  65.336  1.00  0.00     0.228 A  
HETATM   12  C   UNL     1      -9.989  18.508  66.563  1.00  0.00    -0.401 A  
BRANCH   9  13
HETATM   13  C   UNL     1     -10.520  15.467  68.740  1.00  0.00    -0.234 C  
HETATM   14  O   UNL     1      -9.531  14.907  69.177  1.00  0.00    -0.202 OA 
BRANCH  13  15
HETATM   15  O   UNL     1     -11.784  15.353  69.231  1.00  0.00    -0.310 OA 
BRANCH  15  16
HETATM   16  C   UNL     1     -11.955  15.754  70.601  1.00  0.00    -0.393 C  
BRANCH  16  17
HETATM   17  C   UNL     1     -12.588  14.650  71.373  1.00  0.00    -0.335 C  
HETATM   18  O   UNL     1     -13.787  13.458  72.834  1.00  0.00    -0.624 OA 
HETATM   19  C   UNL     1     -13.404  14.707  72.403  1.00  0.00    -0.417 C  
HETATM   20  O   UNL     1     -12.316  13.335  71.034  1.00  0.00    -0.362 OA 
HETATM   21  C   UNL     1     -14.024  15.866  73.055  1.00  0.00    -0.353 C  
HETATM   22  C   UNL     1     -13.105  12.644  71.947  1.00  0.00    -0.366 C  
HETATM   23  O   UNL     1     -13.186  11.421  71.977  1.00  0.00    -0.503 OA 
ENDBRANCH  16  17
ENDBRANCH  15  16
ENDBRANCH  13  15
ENDBRANCH   9  13
BRANCH   8  24
HETATM   24  C   UNL     1     -12.333  13.723  66.495  1.00  0.00    -0.386 C  
BRANCH  24  25
HETATM   25  C   UNL     1     -11.408  12.544  66.698  1.00  0.00    -0.389 A  
HETATM   26  C   UNL     1     -11.765  11.372  67.363  1.00  0.00    -0.172 A  
HETATM   27  C   UNL     1      -9.184  11.593  66.343  1.00  0.00    -0.219 A  
HETATM   28  C   UNL     1      -9.521  10.413  67.024  1.00  0.00    -0.189 A  
HETATM   29  C   UNL     1     -10.111  12.631  66.173  1.00  0.00    -0.268 A  
HETATM   30  C   UNL     1     -10.857  10.311  67.464  1.00  0.00    -0.355 A  
BRANCH  28  31
HETATM   31  C   UNL     1      -8.544   9.291  67.200  1.00  0.00    -0.130 A  
HETATM   32  C   UNL     1      -8.168   6.850  67.094  1.00  0.00    -0.118 A  
HETATM   33  C   UNL     1      -8.881   7.996  66.725  1.00  0.00    -0.157 A  
HETATM   34  C   UNL     1      -7.042   6.966  67.892  1.00  0.00    -0.086 A  
HETATM   35  C   UNL     1      -6.615   8.230  68.285  1.00  0.00    -0.060 A  
HETATM   36  C   UNL     1      -7.338   9.387  67.932  1.00  0.00    -0.083 A  
BRANCH  36  37
HETATM   37  C   UNL     1      -6.718  10.656  68.357  1.00  0.00    -0.060 C  
HETATM   38  N   UNL     1      -5.950  11.391  67.621  1.00  0.00    -0.050 NA 
HETATM   39  O   UNL     1      -5.612  12.513  68.442  1.00  0.00    -0.054 OA 
HETATM   40  C   UNL     1      -6.257  12.323  69.637  1.00  0.00    -0.131 C  
HETATM   41  N   UNL     1      -6.952  11.178  69.567  1.00  0.00    -0.126 NA 
HETATM   42  O   UNL     1      -6.188  13.062  70.609  1.00  0.00    -0.088 OA 
ENDBRANCH  36  37
ENDBRANCH  28  31
ENDBRANCH  24  25
ENDBRANCH   8  24
ENDBRANCH   3   4
ENDBRANCH   2   3
TORSDOF 10
ENDMDL
MODEL       39
REMARK 921   NORMALIZED FREE ENERGY PREDICTED BY IDOCK:   -6.31 KCAL/MOL
REMARK 922        TOTAL FREE ENERGY PREDICTED BY IDOCK:  -12.92 KCAL/MOL
REMARK 923 INTER-LIGAND FREE ENERGY PREDICTED BY IDOCK:  -10.66 KCAL/MOL
REMARK 924 INTRA-LIGAND FREE ENERGY PREDICTED BY IDOCK:   -2.26 KCAL/MOL
REMARK 927      BINDING AFFINITY PREDICTED BY RF-SCORE:    0.00 PKD
ROOT
HETATM    1  C   UNL     1     -11.980   8.293  71.707  1.00  0.00    -0.364 C  
HETATM    2  C   UNL     1     -12.720   9.616  71.797  1.00  0.00    -0.420 C  
ENDROOT
BRANCH   2   3
HETATM    3  O   UNL     1     -12.879  10.162  70.486  1.00  0.00    -0.282 OA 
BRANCH   3   4
HETATM    4  C   UNL     1     -12.636  11.471  70.409  1.00  0.00    -0.157 A  
HETATM    5  N   UNL     1     -12.730  12.313  71.406  1.00  0.00    -0.315 NA 
HETATM    6  C   UNL     1     -12.379  13.525  70.882  1.00  0.00    -0.356 A  
HETATM    7  C   UNL     1     -12.071  13.440  69.517  1.00  0.00    -0.278 A  
HETATM    8  N   UNL     1     -12.205  12.086  69.255  1.00  0.00    -0.159 NA 
HETATM    9  C   UNL     1     -11.726  14.601  68.778  1.00  0.00    -0.357 A  
HETATM   10  C   UNL     1     -11.641  15.819  69.487  1.00  0.00    -0.368 A  
HETATM   11  C   UNL     1     -12.281  14.753  71.556  1.00  0.00    -0.407 A  
HETATM   12  C   UNL     1     -11.898  15.892  70.852  1.00  0.00    -0.453 A  
BRANCH   9  13
HETATM   13  C   UNL     1     -11.358  14.603  67.343  1.00  0.00    -0.356 C  
HETATM   14  O   UNL     1     -12.144  14.362  66.444  1.00  0.00    -0.414 OA 
BRANCH  13  15
HETATM   15  O   UNL     1     -10.025  14.835  67.195  1.00  0.00    -0.233 OA 
BRANCH  15  16
HETATM   16  C   UNL     1      -9.653  15.586  66.027  1.00  0.00    -0.345 C  
BRANCH  16  17
HETATM   17  C   UNL     1      -9.768  17.043  66.309  1.00  0.00    -0.283 C  
HETATM   18  O   UNL     1      -9.603  19.080  67.214  1.00  0.00    -0.304 OA 
HETATM   19  C   UNL     1      -9.296  17.743  67.319  1.00  0.00    -0.254 C  
HETATM   20  O   UNL     1     -10.476  17.855  65.438  1.00  0.00    -0.635 OA 
HETATM   21  C   UNL     1      -8.432  17.333  68.431  1.00  0.00    -0.254 C  
HETATM   22  C   UNL     1     -10.315  19.104  66.028  1.00  0.00    -0.463 C  
HETATM   23  O   UNL     1     -10.771  20.137  65.553  1.00  0.00    -0.371 OA 
ENDBRANCH  16  17
ENDBRANCH  15  16
ENDBRANCH  13  15
ENDBRANCH   9  13
BRANCH   8  24
HETATM   24  C   UNL     1     -11.769  11.340  68.086  1.00  0.00    -0.253 C  
BRANCH  24  25
HETATM   25  C   UNL     1     -10.660  10.340  68.322  1.00  0.00    -0.255 A  
HETATM   26  C   UNL     1      -9.684  10.468  69.311  1.00  0.00    -0.215 A  
HETATM   27  C   UNL     1      -9.604   8.244  67.638  1.00  0.00    -0.187 A  
HETATM   28  C   UNL     1      -8.605   8.364  68.617  1.00  0.00    -0.132 A  
HETATM   29  C   UNL     1     -10.616   9.204  67.502  1.00  0.00    -0.317 A  
HETATM   30  C   UNL     1      -8.721   9.467  69.488  1.00  0.00    -0.178 A  
BRANCH  28  31
HETATM   31  C   UNL     1      -7.526   7.338  68.782  1.00  0.00    -0.102 A  
HETATM   32  C   UNL     1      -5.312   6.537  68.033  1.00  0.00    -0.008 A  
HETATM   33  C   UNL     1      -6.264   7.553  68.170  1.00  0.00    -0.040 A  
HETATM   34  C   UNL     1      -5.556   5.285  68.571  1.00  0.00    -0.015 A  
HETATM   35  C   UNL     1      -6.735   5.067  69.277  1.00  0.00    -0.052 A  
HETATM   36  C   UNL     1      -7.707   6.081  69.405  1.00  0.00    -0.098 A  
BRANCH  36  37
HETATM   37  C   UNL     1      -8.865   5.724  70.245  1.00  0.00    -0.141 C  
HETATM   38  N   UNL     1     -10.042   5.428  69.800  1.00  0.00    -0.225 NA 
HETATM   39  O   UNL     1     -10.817   5.137  70.967  1.00  0.00    -0.129 OA 
HETATM   40  C   UNL     1      -9.974   5.289  72.037  1.00  0.00    -0.187 C  
HETATM   41  N   UNL     1      -8.763   5.636  71.577  1.00  0.00    -0.132 NA 
HETATM   42  O   UNL     1     -10.282   5.153  73.212  1.00  0.00    -0.168 OA 
ENDBRANCH  36  37
ENDBRANCH  28  31
ENDBRANCH  24  25
ENDBRANCH   8  24
ENDBRANCH   3   4
ENDBRANCH   2   3
TORSDOF 10
ENDMDL
MODEL       40
REMARK 921   NORMALIZED FREE ENERGY PREDICTED BY IDOCK:   -6.29 KCAL/MOL
REMARK 922        TOTAL FREE ENERGY PREDICTED BY IDOCK:  -12.88 KCAL/MOL
REMARK 923 INTER-LIGAND FREE ENERGY PREDICTED BY IDOCK:  -11.64 KCAL/MOL
REMARK 924 INTRA-LIGAND FREE ENERGY PREDICTED BY IDOCK:   -1.24 KCAL/MOL
REMARK 927      BINDING AFFINITY PREDICTED BY RF-SCORE:    0.00 PKD
ROOT
HETATM    1  C   UNL     1     -12.356   7.623  72.298  1.00  0.00    -0.227 C  
HETATM    2  C   UNL     1     -13.053   8.969  72.207  1.00  0.00    -0.445 C  
ENDROOT
BRANCH   2   3
HETATM    3  O   UNL     1     -12.595   9.663  71.044  1.00  0.00    -0.312 OA 
BRANCH   3   4
HETATM    4  C   UNL     1     -12.690  10.990  71.130  1.00  0.00    -0.419 A  
HETATM    5  N   UNL     1     -13.352  11.638  72.054  1.00  0.00    -0.429 NA 
HETATM    6  C   UNL     1     -13.163  12.961  71.765  1.00  0.00    -0.384 A  
HETATM    7  C   UNL     1     -12.372  13.142  70.622  1.00  0.00    -0.326 A  
HETATM    8  N   UNL     1     -12.047  11.844  70.263  1.00  0.00    -0.344 NA 
HETATM    9  C   UNL     1     -12.098  14.445  70.131  1.00  0.00    -0.397 A  
HETATM   10  C   UNL     1     -12.594  15.536  70.875  1.00  0.00    -0.512 A  
HETATM   11  C   UNL     1     -13.637  14.069  72.483  1.00  0.00    -0.670 A  
HETATM   12  C   UNL     1     -13.336  15.354  72.038  1.00  0.00    -0.545 A  
BRANCH   9  13
HETATM   13  C   UNL     1     -11.250  14.734  68.950  1.00  0.00    -0.266 C  
HETATM   14  O   UNL     1     -10.086  15.083  69.025  1.00  0.00    -0.227 OA 
BRANCH  13  15
HETATM   15  O   UNL     1     -11.977  14.624  67.806  1.00  0.00    -0.348 OA 
BRANCH  15  16
HETATM   16  C   UNL     1     -11.245  14.818  66.584  1.00  0.00    -0.346 C  
BRANCH  16  17
HETATM   17  C   UNL     1     -11.464  13.658  65.677  1.00  0.00    -0.308 C  
HETATM   18  O   UNL     1     -11.275  11.727  64.568  1.00  0.00    -0.323 OA 
HETATM   19  C   UNL     1     -10.723  12.588  65.488  1.00  0.00    -0.271 C  
HETATM   20  O   UNL     1     -12.584  13.630  64.862  1.00  0.00    -0.567 OA 
HETATM   21  C   UNL     1      -9.502  12.151  66.174  1.00  0.00    -0.231 C  
HETATM   22  C   UNL     1     -12.432  12.404  64.223  1.00  0.00    -0.437 C  
HETATM   23  O   UNL     1     -13.241  11.960  63.417  1.00  0.00    -0.649 OA 
ENDBRANCH  16  17
ENDBRANCH  15  16
ENDBRANCH  13  15
ENDBRANCH   9  13
BRANCH   8  24
HETATM   24  C   UNL     1     -11.040  11.389  69.318  1.00  0.00    -0.254 C  
BRANCH  24  25
HETATM   25  C   UNL     1     -10.545   9.974  69.517  1.00  0.00    -0.267 A  
HETATM   26  C   UNL     1      -9.657   9.587  70.520  1.00  0.00    -0.312 A  
HETATM   27  C   UNL     1     -10.587   7.656  68.745  1.00  0.00    -0.169 A  
HETATM   28  C   UNL     1      -9.681   7.251  69.738  1.00  0.00    -0.166 A  
HETATM   29  C   UNL     1     -11.020   8.985  68.644  1.00  0.00     0.034 A  
HETATM   30  C   UNL     1      -9.288   8.243  70.659  1.00  0.00    -0.172 A  
BRANCH  28  31
HETATM   31  C   UNL     1      -9.224   5.830  69.864  1.00  0.00    -0.166 A  
HETATM   32  C   UNL     1      -9.039   3.848  71.328  1.00  0.00    -0.177 A  
HETATM   33  C   UNL     1      -9.637   5.065  70.986  1.00  0.00    -0.232 A  
HETATM   34  C   UNL     1      -8.054   3.311  70.516  1.00  0.00    -0.064 A  
HETATM   35  C   UNL     1      -7.699   3.977  69.347  1.00  0.00    -0.053 A  
HETATM   36  C   UNL     1      -8.286   5.213  69.005  1.00  0.00    -0.088 A  
BRANCH  36  37
HETATM   37  C   UNL     1      -7.864   5.756  67.700  1.00  0.00    -0.098 C  
HETATM   38  N   UNL     1      -6.884   6.578  67.520  1.00  0.00    -0.073 NA 
HETATM   39  O   UNL     1      -6.843   6.804  66.108  1.00  0.00    -0.057 OA 
HETATM   40  C   UNL     1      -7.849   6.045  65.568  1.00  0.00    -0.105 C  
HETATM   41  N   UNL     1      -8.464   5.387  66.562  1.00  0.00    -0.112 NA 
HETATM   42  O   UNL     1      -8.147   5.996  64.383  1.00  0.00    -0.129 OA 
ENDBRANCH  36  37
ENDBRANCH  28  31
ENDBRANCH  24  25
ENDBRANCH   8  24
ENDBRANCH   3   4
ENDBRANCH   2   3
TORSDOF 10
ENDMDL
MODEL       41
REMARK 921   NORMALIZED FREE ENERGY PREDICTED BY IDOCK:   -6.28 KCAL/MOL
REMARK 922        TOTAL FREE ENERGY PREDICTED BY IDOCK:  -12.88 KCAL/MOL
REMARK 923 INTER-LIGAND FREE ENERGY PREDICTED BY IDOCK:   -9.97 KCAL/MOL
REMARK 924 INTRA-LIGAND FREE ENERGY PREDICTED BY IDOCK:   -2.91 KCAL/MOL
REMARK 927      BINDING AFFINITY PREDICTED BY RF-SCORE:    0.00 PKD
ROOT
HETATM    1  C   UNL     1     -13.189  10.994  71.945  1.00  0.00    -0.503 C  
HETATM    2  C   UNL     1     -13.595   9.536  72.068  1.00  0.00    -0.415 C  
ENDROOT
BRANCH   2   3
HETATM    3  O   UNL     1     -12.816   8.748  71.164  1.00  0.00    -0.240 OA 
BRANCH   3   4
HETATM    4  C   UNL     1     -11.604   8.434  71.622  1.00  0.00    -0.289 A  
HETATM    5  N   UNL     1     -11.337   8.055  72.845  1.00  0.00    -0.382 NA 
HETATM    6  C   UNL     1      -9.990   7.825  72.860  1.00  0.00    -0.279 A  
HETATM    7  C   UNL     1      -9.398   8.080  71.615  1.00  0.00    -0.160 A  
HETATM    8  N   UNL     1     -10.481   8.429  70.826  1.00  0.00    -0.194 NA 
HETATM    9  C   UNL     1      -7.997   7.943  71.439  1.00  0.00    -0.099 A  
HETATM   10  C   UNL     1      -7.247   7.478  72.540  1.00  0.00    -0.078 A  
HETATM   11  C   UNL     1      -9.214   7.360  73.934  1.00  0.00    -0.312 A  
HETATM   12  C   UNL     1      -7.844   7.176  73.760  1.00  0.00    -0.125 A  
BRANCH   9  13
HETATM   13  C   UNL     1      -7.289   8.162  70.156  1.00  0.00    -0.060 C  
HETATM   14  O   UNL     1      -7.227   7.330  69.268  1.00  0.00    -0.077 OA 
BRANCH  13  15
HETATM   15  O   UNL     1      -6.673   9.375  70.155  1.00  0.00    -0.050 OA 
BRANCH  15  16
HETATM   16  C   UNL     1      -5.837   9.645  69.018  1.00  0.00    -0.035 C  
BRANCH  16  17
HETATM   17  C   UNL     1      -5.830  11.106  68.734  1.00  0.00    -0.043 C  
HETATM   18  O   UNL     1      -5.688  13.106  67.746  1.00  0.00    -0.120 OA 
HETATM   19  C   UNL     1      -5.580  11.742  67.609  1.00  0.00    -0.067 C  
HETATM   20  O   UNL     1      -6.099  12.003  69.755  1.00  0.00    -0.118 OA 
HETATM   21  C   UNL     1      -5.324  11.216  66.264  1.00  0.00    -0.136 C  
HETATM   22  C   UNL     1      -6.029  13.219  69.083  1.00  0.00    -0.088 C  
HETATM   23  O   UNL     1      -6.237  14.299  69.622  1.00  0.00    -0.110 OA 
ENDBRANCH  16  17
ENDBRANCH  15  16
ENDBRANCH  13  15
ENDBRANCH   9  13
BRANCH   8  24
HETATM   24  C   UNL     1     -10.547   8.552  69.378  1.00  0.00    -0.195 C  
BRANCH  24  25
HETATM   25  C   UNL     1     -10.490   9.963  68.837  1.00  0.00    -0.229 A  
HETATM   26  C   UNL     1     -11.469  10.930  69.060  1.00  0.00    -0.371 A  
HETATM   27  C   UNL     1      -9.259  11.604  67.508  1.00  0.00    -0.172 A  
HETATM   28  C   UNL     1     -10.243  12.585  67.709  1.00  0.00    -0.217 A  
HETATM   29  C   UNL     1      -9.374  10.325  68.069  1.00  0.00    -0.145 A  
HETATM   30  C   UNL     1     -11.311  12.227  68.557  1.00  0.00    -0.332 A  
BRANCH  28  31
HETATM   31  C   UNL     1     -10.124  13.960  67.126  1.00  0.00    -0.252 A  
HETATM   32  C   UNL     1      -9.728  16.359  67.569  1.00  0.00    -0.231 A  
HETATM   33  C   UNL     1      -9.609  15.012  67.928  1.00  0.00    -0.203 A  
HETATM   34  C   UNL     1     -10.301  16.702  66.356  1.00  0.00    -0.310 A  
HETATM   35  C   UNL     1     -10.717  15.694  65.492  1.00  0.00    -0.403 A  
HETATM   36  C   UNL     1     -10.616  14.335  65.854  1.00  0.00    -0.306 A  
BRANCH  36  37
HETATM   37  C   UNL     1     -11.026  13.384  64.804  1.00  0.00    -0.360 C  
HETATM   38  N   UNL     1     -10.217  12.713  64.053  1.00  0.00    -0.386 NA 
HETATM   39  O   UNL     1     -11.061  11.921  63.212  1.00  0.00    -0.371 OA 
HETATM   40  C   UNL     1     -12.350  12.213  63.577  1.00  0.00    -0.574 C  
HETATM   41  N   UNL     1     -12.316  13.108  64.576  1.00  0.00    -0.529 NA 
HETATM   42  O   UNL     1     -13.359  11.751  63.062  1.00  0.00    -0.405 OA 
ENDBRANCH  36  37
ENDBRANCH  28  31
ENDBRANCH  24  25
ENDBRANCH   8  24
ENDBRANCH   3   4
ENDBRANCH   2   3
TORSDOF 10
ENDMDL
MODEL       42
REMARK 921   NORMALIZED FREE ENERGY PREDICTED BY IDOCK:   -6.25 KCAL/MOL
REMARK 922        TOTAL FREE ENERGY PREDICTED BY IDOCK:  -12.83 KCAL/MOL
REMARK 923 INTER-LIGAND FREE ENERGY PREDICTED BY IDOCK:   -9.59 KCAL/MOL
REMARK 924 INTRA-LIGAND FREE ENERGY PREDICTED BY IDOCK:   -3.24 KCAL/MOL
REMARK 927      BINDING AFFINITY PREDICTED BY RF-SCORE:    0.00 PKD
ROOT
HETATM    1  C   UNL     1      -9.532  11.109  64.615  1.00  0.00    -0.245 C  
HETATM    2  C   UNL     1      -9.352   9.635  64.300  1.00  0.00    -0.114 C  
ENDROOT
BRANCH   2   3
HETATM    3  O   UNL     1      -8.310   9.098  65.118  1.00  0.00    -0.136 OA 
BRANCH   3   4
HETATM    4  C   UNL     1      -8.735   8.241  66.047  1.00  0.00    -0.155 A  
HETATM    5  N   UNL     1      -9.444   7.167  65.811  1.00  0.00     0.197 NA 
HETATM    6  C   UNL     1      -9.634   6.590  67.035  1.00  0.00    -0.144 A  
HETATM    7  C   UNL     1      -9.037   7.332  68.065  1.00  0.00    -0.133 A  
HETATM    8  N   UNL     1      -8.426   8.370  67.382  1.00  0.00    -0.124 NA 
HETATM    9  C   UNL     1      -9.161   6.921  69.417  1.00  0.00    -0.141 A  
HETATM   10  C   UNL     1      -9.843   5.711  69.668  1.00  0.00    -0.243 A  
HETATM   11  C   UNL     1     -10.302   5.389  67.321  1.00  0.00    -0.273 A  
HETATM   12  C   UNL     1     -10.390   4.950  68.640  1.00  0.00    -0.041 A  
BRANCH   9  13
HETATM   13  C   UNL     1      -8.542   7.623  70.566  1.00  0.00    -0.137 C  
HETATM   14  O   UNL     1      -7.629   7.160  71.228  1.00  0.00    -0.080 OA 
BRANCH  13  15
HETATM   15  O   UNL     1      -9.184   8.798  70.806  1.00  0.00    -0.164 OA 
BRANCH  15  16
HETATM   16  C   UNL     1      -9.870   8.884  72.065  1.00  0.00    -0.255 C  
BRANCH  16  17
HETATM   17  C   UNL     1     -11.337   8.752  71.849  1.00  0.00    -0.361 C  
HETATM   18  O   UNL     1     -13.474   9.119  71.307  1.00  0.00    -0.319 OA 
HETATM   19  C   UNL     1     -12.196   9.624  71.366  1.00  0.00    -0.385 C  
HETATM   20  O   UNL     1     -11.977   7.574  72.196  1.00  0.00    -0.290 OA 
HETATM   21  C   UNL     1     -11.972  10.960  70.803  1.00  0.00    -0.449 C  
HETATM   22  C   UNL     1     -13.286   7.844  71.812  1.00  0.00    -0.329 C  
HETATM   23  O   UNL     1     -14.199   7.035  71.919  1.00  0.00    -0.343 OA 
ENDBRANCH  16  17
ENDBRANCH  15  16
ENDBRANCH  13  15
ENDBRANCH   9  13
BRANCH   8  24
HETATM   24  C   UNL     1      -7.438   9.319  67.869  1.00  0.00    -0.084 C  
BRANCH  24  25
HETATM   25  C   UNL     1      -7.863  10.770  67.863  1.00  0.00    -0.109 A  
HETATM   26  C   UNL     1      -9.113  11.224  68.284  1.00  0.00    -0.173 A  
HETATM   27  C   UNL     1      -7.264  13.084  67.351  1.00  0.00    -0.123 A  
HETATM   28  C   UNL     1      -8.522  13.557  67.756  1.00  0.00    -0.184 A  
HETATM   29  C   UNL     1      -6.937  11.722  67.415  1.00  0.00    -0.121 A  
HETATM   30  C   UNL     1      -9.405  12.593  68.287  1.00  0.00    -0.195 A  
BRANCH  28  31
HETATM   31  C   UNL     1      -8.878  15.011  67.707  1.00  0.00    -0.172 A  
HETATM   32  C   UNL     1      -8.609  17.235  68.751  1.00  0.00    -0.230 A  
HETATM   33  C   UNL     1      -8.164  15.928  68.521  1.00  0.00    -0.169 A  
HETATM   34  C   UNL     1      -9.746  17.698  68.112  1.00  0.00    -0.310 A  
HETATM   35  C   UNL     1     -10.412  16.865  67.219  1.00  0.00    -0.301 A  
HETATM   36  C   UNL     1      -9.979  15.542  66.996  1.00  0.00    -0.240 A  
BRANCH  36  37
HETATM   37  C   UNL     1     -10.739  14.809  65.965  1.00  0.00    -0.312 C  
HETATM   38  N   UNL     1     -10.387  14.689  64.728  1.00  0.00    -0.346 NA 
HETATM   39  O   UNL     1     -11.410  13.890  64.127  1.00  0.00    -0.329 OA 
HETATM   40  C   UNL     1     -12.304  13.596  65.123  1.00  0.00    -0.452 C  
HETATM   41  N   UNL     1     -11.869  14.156  66.262  1.00  0.00    -0.394 NA 
HETATM   42  O   UNL     1     -13.334  12.951  64.989  1.00  0.00    -0.682 OA 
ENDBRANCH  36  37
ENDBRANCH  28  31
ENDBRANCH  24  25
ENDBRANCH   8  24
ENDBRANCH   3   4
ENDBRANCH   2   3
TORSDOF 10
ENDMDL
MODEL       43
REMARK 921   NORMALIZED FREE ENERGY PREDICTED BY IDOCK:   -6.25 KCAL/MOL
REMARK 922        TOTAL FREE ENERGY PREDICTED BY IDOCK:  -12.82 KCAL/MOL
REMARK 923 INTER-LIGAND FREE ENERGY PREDICTED BY IDOCK:   -9.33 KCAL/MOL
REMARK 924 INTRA-LIGAND FREE ENERGY PREDICTED BY IDOCK:   -3.49 KCAL/MOL
REMARK 927      BINDING AFFINITY PREDICTED BY RF-SCORE:    0.00 PKD
ROOT
HETATM    1  C   UNL     1     -13.178   9.972  71.690  1.00  0.00    -0.518 C  
HETATM    2  C   UNL     1     -12.791   8.550  72.056  1.00  0.00    -0.374 C  
ENDROOT
BRANCH   2   3
HETATM    3  O   UNL     1     -11.463   8.540  72.584  1.00  0.00    -0.351 OA 
BRANCH   3   4
HETATM    4  C   UNL     1     -10.747   7.470  72.235  1.00  0.00    -0.250 A  
HETATM    5  N   UNL     1     -11.182   6.236  72.253  1.00  0.00    -0.268 NA 
HETATM    6  C   UNL     1     -10.132   5.483  71.806  1.00  0.00    -0.196 A  
HETATM    7  C   UNL     1      -9.008   6.268  71.514  1.00  0.00    -0.142 A  
HETATM    8  N   UNL     1      -9.457   7.554  71.761  1.00  0.00    -0.144 NA 
HETATM    9  C   UNL     1      -7.799   5.666  71.079  1.00  0.00    -0.105 A  
HETATM   10  C   UNL     1      -7.802   4.267  70.890  1.00  0.00    -0.063 A  
HETATM   11  C   UNL     1     -10.101   4.094  71.603  1.00  0.00    -0.198 A  
HETATM   12  C   UNL     1      -8.935   3.496  71.132  1.00  0.00    -0.158 A  
BRANCH   9  13
HETATM   13  C   UNL     1      -6.571   6.415  70.721  1.00  0.00    -0.053 C  
HETATM   14  O   UNL     1      -5.925   7.072  71.518  1.00  0.00    -0.036 OA 
BRANCH  13  15
HETATM   15  O   UNL     1      -6.329   6.318  69.386  1.00  0.00    -0.032 OA 
BRANCH  15  16
HETATM   16  C   UNL     1      -6.491   7.533  68.636  1.00  0.00    -0.044 C  
BRANCH  16  17
HETATM   17  C   UNL     1      -7.556   7.353  67.612  1.00  0.00    -0.106 C  
HETATM   18  O   UNL     1      -8.853   7.535  65.801  1.00  0.00    -0.158 OA 
HETATM   19  C   UNL     1      -7.762   8.010  66.491  1.00  0.00    -0.093 C  
HETATM   20  O   UNL     1      -8.527   6.383  67.797  1.00  0.00    -0.117 OA 
HETATM   21  C   UNL     1      -6.960   9.057  65.848  1.00  0.00    -0.088 C  
HETATM   22  C   UNL     1      -9.282   6.519  66.637  1.00  0.00    -0.153 C  
HETATM   23  O   UNL     1     -10.248   5.813  66.376  1.00  0.00    -0.180 OA 
ENDBRANCH  16  17
ENDBRANCH  15  16
ENDBRANCH  13  15
ENDBRANCH   9  13
BRANCH   8  24
HETATM   24  C   UNL     1      -8.838   8.818  71.395  1.00  0.00    -0.225 C  
BRANCH  24  25
HETATM   25  C   UNL     1      -9.290   9.413  70.081  1.00  0.00    -0.276 A  
HETATM   26  C   UNL     1     -10.415   8.991  69.373  1.00  0.00    -0.229 A  
HETATM   27  C   UNL     1      -8.872  11.053  68.317  1.00  0.00    -0.144 A  
HETATM   28  C   UNL     1      -9.991  10.630  67.583  1.00  0.00    -0.197 A  
HETATM   29  C   UNL     1      -8.536  10.466  69.545  1.00  0.00    -0.115 A  
HETATM   30  C   UNL     1     -10.786   9.632  68.185  1.00  0.00    -0.266 A  
BRANCH  28  31
HETATM   31  C   UNL     1     -10.369  11.259  66.277  1.00  0.00    -0.294 A  
HETATM   32  C   UNL     1     -10.310  11.086  63.813  1.00  0.00    -0.427 A  
HETATM   33  C   UNL     1     -10.255  10.501  65.083  1.00  0.00    -0.358 A  
HETATM   34  C   UNL     1     -10.558  12.442  63.688  1.00  0.00    -0.481 A  
HETATM   35  C   UNL     1     -10.787  13.199  64.832  1.00  0.00    -0.348 A  
HETATM   36  C   UNL     1     -10.716  12.621  66.116  1.00  0.00    -0.293 A  
BRANCH  36  37
HETATM   37  C   UNL     1     -11.058  13.532  67.224  1.00  0.00    -0.286 C  
HETATM   38  N   UNL     1     -10.642  14.750  67.339  1.00  0.00    -0.264 NA 
HETATM   39  O   UNL     1     -11.242  15.235  68.544  1.00  0.00    -0.271 OA 
HETATM   40  C   UNL     1     -11.998  14.205  69.038  1.00  0.00    -0.340 C  
HETATM   41  N   UNL     1     -11.891  13.160  68.204  1.00  0.00    -0.352 NA 
HETATM   42  O   UNL     1     -12.643  14.229  70.078  1.00  0.00    -0.335 OA 
ENDBRANCH  36  37
ENDBRANCH  28  31
ENDBRANCH  24  25
ENDBRANCH   8  24
ENDBRANCH   3   4
ENDBRANCH   2   3
TORSDOF 10
ENDMDL
MODEL       44
REMARK 921   NORMALIZED FREE ENERGY PREDICTED BY IDOCK:   -6.24 KCAL/MOL
REMARK 922        TOTAL FREE ENERGY PREDICTED BY IDOCK:  -12.81 KCAL/MOL
REMARK 923 INTER-LIGAND FREE ENERGY PREDICTED BY IDOCK:  -10.60 KCAL/MOL
REMARK 924 INTRA-LIGAND FREE ENERGY PREDICTED BY IDOCK:   -2.20 KCAL/MOL
REMARK 927      BINDING AFFINITY PREDICTED BY RF-SCORE:    0.00 PKD
ROOT
HETATM    1  C   UNL     1      -8.758  10.724  62.371  1.00  0.00    -0.331 C  
HETATM    2  C   UNL     1      -8.488  10.338  63.815  1.00  0.00    -0.179 C  
ENDROOT
BRANCH   2   3
HETATM    3  O   UNL     1      -9.730  10.152  64.498  1.00  0.00    -0.302 OA 
BRANCH   3   4
HETATM    4  C   UNL     1      -9.603   9.934  65.807  1.00  0.00    -0.250 A  
HETATM    5  N   UNL     1      -8.617   9.284  66.369  1.00  0.00    -0.128 NA 
HETATM    6  C   UNL     1      -8.885   9.319  67.708  1.00  0.00    -0.120 A  
HETATM    7  C   UNL     1     -10.079   9.998  67.989  1.00  0.00    -0.167 A  
HETATM    8  N   UNL     1     -10.493  10.422  66.737  1.00  0.00    -0.237 NA 
HETATM    9  C   UNL     1     -10.555  10.104  69.321  1.00  0.00    -0.254 A  
HETATM   10  C   UNL     1      -9.749   9.561  70.344  1.00  0.00    -0.328 A  
HETATM   11  C   UNL     1      -8.105   8.794  68.751  1.00  0.00    -0.115 A  
HETATM   12  C   UNL     1      -8.539   8.932  70.068  1.00  0.00    -0.145 A  
BRANCH   9  13
HETATM   13  C   UNL     1     -11.788  10.826  69.715  1.00  0.00    -0.335 C  
HETATM   14  O   UNL     1     -12.910  10.371  69.577  1.00  0.00    -0.044 OA 
BRANCH  13  15
HETATM   15  O   UNL     1     -11.484  12.070  70.172  1.00  0.00    -0.192 OA 
BRANCH  15  16
HETATM   16  C   UNL     1     -12.598  12.849  70.640  1.00  0.00    -0.177 C  
BRANCH  16  17
HETATM   17  C   UNL     1     -12.173  14.260  70.847  1.00  0.00    -0.355 C  
HETATM   18  O   UNL     1     -11.776  16.284  71.710  1.00  0.00    -0.486 OA 
HETATM   19  C   UNL     1     -12.320  15.035  71.901  1.00  0.00    -0.342 C  
HETATM   20  O   UNL     1     -11.537  14.941  69.823  1.00  0.00    -0.268 OA 
HETATM   21  C   UNL     1     -12.859  14.729  73.230  1.00  0.00    -0.621 C  
HETATM   22  C   UNL     1     -11.288  16.173  70.420  1.00  0.00    -0.363 C  
HETATM   23  O   UNL     1     -10.699  17.087  69.856  1.00  0.00    -0.208 OA 
ENDBRANCH  16  17
ENDBRANCH  15  16
ENDBRANCH  13  15
ENDBRANCH   9  13
BRANCH   8  24
HETATM   24  C   UNL     1     -11.522  11.393  66.401  1.00  0.00     0.020 C  
BRANCH  24  25
HETATM   25  C   UNL     1     -11.106  12.844  66.482  1.00  0.00    -0.318 A  
HETATM   26  C   UNL     1     -11.980  13.921  66.337  1.00  0.00    -0.467 A  
HETATM   27  C   UNL     1      -9.284  14.444  66.789  1.00  0.00    -0.287 A  
HETATM   28  C   UNL     1     -10.147  15.540  66.630  1.00  0.00    -0.275 A  
HETATM   29  C   UNL     1      -9.755  13.125  66.729  1.00  0.00    -0.246 A  
HETATM   30  C   UNL     1     -11.514  15.234  66.473  1.00  0.00    -0.095 A  
BRANCH  28  31
HETATM   31  C   UNL     1      -9.658  16.954  66.708  1.00  0.00    -0.273 A  
HETATM   32  C   UNL     1     -10.050  19.308  66.067  1.00  0.00    -0.459 A  
HETATM   33  C   UNL     1     -10.514  18.008  66.296  1.00  0.00    -0.340 A  
HETATM   34  C   UNL     1      -8.725  19.621  66.315  1.00  0.00    -0.401 A  
HETATM   35  C   UNL     1      -7.879  18.642  66.826  1.00  0.00    -0.258 A  
HETATM   36  C   UNL     1      -8.335  17.325  67.044  1.00  0.00    -0.231 A  
BRANCH  36  37
HETATM   37  C   UNL     1      -7.345  16.423  67.660  1.00  0.00    -0.135 C  
HETATM   38  N   UNL     1      -6.353  15.874  67.041  1.00  0.00    -0.306 NA 
HETATM   39  O   UNL     1      -5.668  15.111  68.038  1.00  0.00    -0.122 OA 
HETATM   40  C   UNL     1      -6.355  15.305  69.209  1.00  0.00    -0.126 C  
HETATM   41  N   UNL     1      -7.382  16.133  68.967  1.00  0.00    -0.190 NA 
HETATM   42  O   UNL     1      -6.087  14.790  70.286  1.00  0.00    -0.149 OA 
ENDBRANCH  36  37
ENDBRANCH  28  31
ENDBRANCH  24  25
ENDBRANCH   8  24
ENDBRANCH   3   4
ENDBRANCH   2   3
TORSDOF 10
ENDMDL
MODEL       45
REMARK 921   NORMALIZED FREE ENERGY PREDICTED BY IDOCK:   -6.23 KCAL/MOL
REMARK 922        TOTAL FREE ENERGY PREDICTED BY IDOCK:  -12.80 KCAL/MOL
REMARK 923 INTER-LIGAND FREE ENERGY PREDICTED BY IDOCK:  -10.39 KCAL/MOL
REMARK 924 INTRA-LIGAND FREE ENERGY PREDICTED BY IDOCK:   -2.41 KCAL/MOL
REMARK 927      BINDING AFFINITY PREDICTED BY RF-SCORE:    0.00 PKD
ROOT
HETATM    1  C   UNL     1     -12.061  13.198  63.533  1.00  0.00    -0.585 C  
HETATM    2  C   UNL     1     -11.469  11.802  63.604  1.00  0.00    -0.431 C  
ENDROOT
BRANCH   2   3
HETATM    3  O   UNL     1     -10.044  11.885  63.522  1.00  0.00    -0.386 OA 
BRANCH   3   4
HETATM    4  C   UNL     1      -9.404  10.925  64.190  1.00  0.00    -0.234 A  
HETATM    5  N   UNL     1      -9.203   9.710  63.750  1.00  0.00    -0.203 NA 
HETATM    6  C   UNL     1      -8.502   9.084  64.743  1.00  0.00    -0.180 A  
HETATM    7  C   UNL     1      -8.271   9.929  65.838  1.00  0.00    -0.124 A  
HETATM    8  N   UNL     1      -8.831  11.126  65.425  1.00  0.00    -0.150 NA 
HETATM    9  C   UNL     1      -7.597   9.451  66.991  1.00  0.00    -0.091 A  
HETATM   10  C   UNL     1      -7.116   8.124  66.959  1.00  0.00    -0.079 A  
HETATM   11  C   UNL     1      -8.006   7.771  64.743  1.00  0.00    -0.142 A  
HETATM   12  C   UNL     1      -7.302   7.304  65.850  1.00  0.00    -0.075 A  
BRANCH   9  13
HETATM   13  C   UNL     1      -7.284  10.276  68.181  1.00  0.00    -0.084 C  
HETATM   14  O   UNL     1      -6.370  11.081  68.222  1.00  0.00    -0.055 OA 
BRANCH  13  15
HETATM   15  O   UNL     1      -8.106   9.950  69.215  1.00  0.00    -0.105 OA 
BRANCH  15  16
HETATM   16  C   UNL     1      -7.448   9.531  70.422  1.00  0.00    -0.151 C  
BRANCH  16  17
HETATM   17  C   UNL     1      -8.284   8.520  71.125  1.00  0.00    -0.144 C  
HETATM   18  O   UNL     1      -9.219   6.618  71.835  1.00  0.00    -0.148 OA 
HETATM   19  C   UNL     1      -8.313   7.212  70.987  1.00  0.00    -0.124 C  
HETATM   20  O   UNL     1      -9.207   8.934  72.071  1.00  0.00    -0.348 OA 
HETATM   21  C   UNL     1      -7.473   6.329  70.171  1.00  0.00    -0.094 C  
HETATM   22  C   UNL     1      -9.733   7.719  72.497  1.00  0.00    -0.204 C  
HETATM   23  O   UNL     1     -10.584   7.624  73.373  1.00  0.00    -0.368 OA 
ENDBRANCH  16  17
ENDBRANCH  15  16
ENDBRANCH  13  15
ENDBRANCH   9  13
BRANCH   8  24
HETATM   24  C   UNL     1      -8.682  12.448  66.013  1.00  0.00     0.311 C  
BRANCH  24  25
HETATM   25  C   UNL     1      -9.671  12.797  67.102  1.00  0.00    -0.216 A  
HETATM   26  C   UNL     1     -11.035  12.515  67.043  1.00  0.00    -0.306 A  
HETATM   27  C   UNL     1     -10.039  13.818  69.292  1.00  0.00     0.229 A  
HETATM   28  C   UNL     1     -11.418  13.556  69.242  1.00  0.00    -0.345 A  
HETATM   29  C   UNL     1      -9.183  13.436  68.250  1.00  0.00    -0.198 A  
HETATM   30  C   UNL     1     -11.872  12.834  68.120  1.00  0.00    -0.372 A  
BRANCH  28  31
HETATM   31  C   UNL     1     -12.341  13.947  70.356  1.00  0.00    -0.433 A  
HETATM   32  C   UNL     1     -13.318  15.798  71.669  1.00  0.00    -0.428 A  
HETATM   33  C   UNL     1     -12.705  15.310  70.510  1.00  0.00    -0.440 A  
HETATM   34  C   UNL     1     -13.661  14.926  72.688  1.00  0.00    -0.563 A  
HETATM   35  C   UNL     1     -13.422  13.565  72.527  1.00  0.00    -0.660 A  
HETATM   36  C   UNL     1     -12.788  13.068  71.369  1.00  0.00    -0.385 A  
BRANCH  36  37
HETATM   37  C   UNL     1     -12.675  11.598  71.310  1.00  0.00    -0.340 C  
HETATM   38  N   UNL     1     -11.903  10.945  70.506  1.00  0.00    -0.338 NA 
HETATM   39  O   UNL     1     -12.116   9.567  70.825  1.00  0.00    -0.285 OA 
HETATM   40  C   UNL     1     -13.032   9.545  71.845  1.00  0.00    -0.425 C  
HETATM   41  N   UNL     1     -13.358  10.810  72.149  1.00  0.00    -0.356 NA 
HETATM   42  O   UNL     1     -13.489   8.540  72.371  1.00  0.00    -0.331 OA 
ENDBRANCH  36  37
ENDBRANCH  28  31
ENDBRANCH  24  25
ENDBRANCH   8  24
ENDBRANCH   3   4
ENDBRANCH   2   3
TORSDOF 10
ENDMDL
MODEL       46
REMARK 921   NORMALIZED FREE ENERGY PREDICTED BY IDOCK:   -6.22 KCAL/MOL
REMARK 922        TOTAL FREE ENERGY PREDICTED BY IDOCK:  -12.78 KCAL/MOL
REMARK 923 INTER-LIGAND FREE ENERGY PREDICTED BY IDOCK:  -10.36 KCAL/MOL
REMARK 924 INTRA-LIGAND FREE ENERGY PREDICTED BY IDOCK:   -2.42 KCAL/MOL
REMARK 927      BINDING AFFINITY PREDICTED BY RF-SCORE:    0.00 PKD
ROOT
HETATM    1  C   UNL     1      -9.510   7.803  73.590  1.00  0.00    -0.312 C  
HETATM    2  C   UNL     1     -10.137   6.600  74.273  1.00  0.00    -0.351 C  
ENDROOT
BRANCH   2   3
HETATM    3  O   UNL     1     -10.795   5.789  73.297  1.00  0.00    -0.252 OA 
BRANCH   3   4
HETATM    4  C   UNL     1     -10.058   5.537  72.214  1.00  0.00    -0.183 A  
HETATM    5  N   UNL     1      -8.943   4.854  72.205  1.00  0.00    -0.130 NA 
HETATM    6  C   UNL     1      -8.549   4.833  70.897  1.00  0.00    -0.111 A  
HETATM    7  C   UNL     1      -9.436   5.535  70.068  1.00  0.00    -0.159 A  
HETATM    8  N   UNL     1     -10.425   5.939  70.950  1.00  0.00    -0.232 NA 
HETATM    9  C   UNL     1      -9.178   5.668  68.680  1.00  0.00    -0.134 A  
HETATM   10  C   UNL     1      -8.039   5.012  68.166  1.00  0.00    -0.086 A  
HETATM   11  C   UNL     1      -7.427   4.190  70.351  1.00  0.00    -0.045 A  
HETATM   12  C   UNL     1      -7.187   4.274  68.982  1.00  0.00    -0.051 A  
BRANCH   9  13
HETATM   13  C   UNL     1     -10.071   6.364  67.724  1.00  0.00    -0.146 C  
HETATM   14  O   UNL     1     -11.273   6.175  67.663  1.00  0.00    -0.294 OA 
BRANCH  13  15
HETATM   15  O   UNL     1      -9.349   7.169  66.900  1.00  0.00    -0.142 OA 
BRANCH  15  16
HETATM   16  C   UNL     1      -9.934   8.451  66.615  1.00  0.00    -0.284 C  
BRANCH  16  17
HETATM   17  C   UNL     1      -9.005   9.252  65.772  1.00  0.00    -0.192 C  
HETATM   18  O   UNL     1      -7.362  10.582  65.045  1.00  0.00    -0.106 OA 
HETATM   19  C   UNL     1      -7.992  10.012  66.128  1.00  0.00    -0.113 C  
HETATM   20  O   UNL     1      -9.172   9.269  64.397  1.00  0.00    -0.154 OA 
HETATM   21  C   UNL     1      -7.398  10.237  67.450  1.00  0.00    -0.093 C  
HETATM   22  C   UNL     1      -8.114  10.079  63.998  1.00  0.00    -0.153 C  
HETATM   23  O   UNL     1      -7.869  10.338  62.826  1.00  0.00    -0.142 OA 
ENDBRANCH  16  17
ENDBRANCH  15  16
ENDBRANCH  13  15
ENDBRANCH   9  13
BRANCH   8  24
HETATM   24  C   UNL     1     -11.742   6.478  70.651  1.00  0.00    -0.374 C  
BRANCH  24  25
HETATM   25  C   UNL     1     -11.865   7.983  70.715  1.00  0.00    -0.171 A  
HETATM   26  C   UNL     1     -10.886   8.870  70.267  1.00  0.00    -0.265 A  
HETATM   27  C   UNL     1     -13.223   9.908  71.368  1.00  0.00    -0.487 A  
HETATM   28  C   UNL     1     -12.242  10.815  70.938  1.00  0.00    -0.487 A  
HETATM   29  C   UNL     1     -13.044   8.523  71.248  1.00  0.00    -0.167 A  
HETATM   30  C   UNL     1     -11.105  10.253  70.323  1.00  0.00    -0.388 A  
BRANCH  28  31
HETATM   31  C   UNL     1     -12.428  12.298  71.047  1.00  0.00    -0.361 A  
HETATM   32  C   UNL     1     -13.451  14.158  72.312  1.00  0.00    -0.578 A  
HETATM   33  C   UNL     1     -12.984  12.841  72.234  1.00  0.00    -0.289 A  
HETATM   34  C   UNL     1     -13.310  15.005  71.226  1.00  0.00    -0.510 A  
HETATM   35  C   UNL     1     -12.669  14.542  70.082  1.00  0.00    -0.264 A  
HETATM   36  C   UNL     1     -12.211  13.211  69.990  1.00  0.00    -0.323 A  
BRANCH  36  37
HETATM   37  C   UNL     1     -11.485  12.893  68.746  1.00  0.00    -0.303 C  
HETATM   38  N   UNL     1     -10.216  13.054  68.565  1.00  0.00    -0.237 NA 
HETATM   39  O   UNL     1      -9.970  12.596  67.232  1.00  0.00    -0.209 OA 
HETATM   40  C   UNL     1     -11.180  12.180  66.739  1.00  0.00    -0.322 C  
HETATM   41  N   UNL     1     -12.108  12.352  67.692  1.00  0.00    -0.449 NA 
HETATM   42  O   UNL     1     -11.379  11.747  65.613  1.00  0.00    -0.307 OA 
ENDBRANCH  36  37
ENDBRANCH  28  31
ENDBRANCH  24  25
ENDBRANCH   8  24
ENDBRANCH   3   4
ENDBRANCH   2   3
TORSDOF 10
ENDMDL
MODEL       47
REMARK 921   NORMALIZED FREE ENERGY PREDICTED BY IDOCK:   -6.21 KCAL/MOL
REMARK 922        TOTAL FREE ENERGY PREDICTED BY IDOCK:  -12.76 KCAL/MOL
REMARK 923 INTER-LIGAND FREE ENERGY PREDICTED BY IDOCK:   -9.80 KCAL/MOL
REMARK 924 INTRA-LIGAND FREE ENERGY PREDICTED BY IDOCK:   -2.96 KCAL/MOL
REMARK 927      BINDING AFFINITY PREDICTED BY RF-SCORE:    0.00 PKD
ROOT
HETATM    1  C   UNL     1     -10.743  11.199  63.871  1.00  0.00    -0.407 C  
HETATM    2  C   UNL     1     -12.039  11.978  63.731  1.00  0.00    -0.499 C  
ENDROOT
BRANCH   2   3
HETATM    3  O   UNL     1     -12.454  12.445  65.017  1.00  0.00    -0.549 OA 
BRANCH   3   4
HETATM    4  C   UNL     1     -11.932  13.623  65.361  1.00  0.00    -0.378 A  
HETATM    5  N   UNL     1     -11.775  14.641  64.555  1.00  0.00    -0.414 NA 
HETATM    6  C   UNL     1     -11.228  15.626  65.328  1.00  0.00    -0.234 A  
HETATM    7  C   UNL     1     -11.026  15.207  66.651  1.00  0.00    -0.318 A  
HETATM    8  N   UNL     1     -11.536  13.919  66.646  1.00  0.00    -0.340 NA 
HETATM    9  C   UNL     1     -10.426  16.073  67.601  1.00  0.00    -0.292 A  
HETATM   10  C   UNL     1     -10.108  17.381  67.176  1.00  0.00    -0.307 A  
HETATM   11  C   UNL     1     -10.903  16.936  64.941  1.00  0.00    -0.012 A  
HETATM   12  C   UNL     1     -10.356  17.811  65.876  1.00  0.00    -0.257 A  
BRANCH   9  13
HETATM   13  C   UNL     1     -10.200  15.728  69.024  1.00  0.00    -0.224 C  
HETATM   14  O   UNL     1     -10.814  16.234  69.947  1.00  0.00    -0.331 OA 
BRANCH  13  15
HETATM   15  O   UNL     1      -9.178  14.838  69.140  1.00  0.00    -0.170 OA 
BRANCH  15  16
HETATM   16  C   UNL     1      -7.856  15.395  69.044  1.00  0.00    -0.194 C  
BRANCH  16  17
HETATM   17  C   UNL     1      -6.880  14.320  68.719  1.00  0.00    -0.099 C  
HETATM   18  O   UNL     1      -5.290  12.753  68.825  1.00  0.00    -0.061 OA 
HETATM   19  C   UNL     1      -6.013  13.710  69.498  1.00  0.00    -0.108 C  
HETATM   20  O   UNL     1      -6.793  13.844  67.421  1.00  0.00    -0.186 OA 
HETATM   21  C   UNL     1      -5.798  13.825  70.945  1.00  0.00    -0.187 C  
HETATM   22  C   UNL     1      -5.819  12.859  67.551  1.00  0.00    -0.114 C  
HETATM   23  O   UNL     1      -5.449  12.151  66.621  1.00  0.00    -0.324 OA 
ENDBRANCH  16  17
ENDBRANCH  15  16
ENDBRANCH  13  15
ENDBRANCH   9  13
BRANCH   8  24
HETATM   24  C   UNL     1     -11.847  13.062  67.779  1.00  0.00    -0.347 C  
BRANCH  24  25
HETATM   25  C   UNL     1     -10.996  11.820  67.916  1.00  0.00    -0.272 A  
HETATM   26  C   UNL     1     -11.505  10.524  67.988  1.00  0.00    -0.230 A  
HETATM   27  C   UNL     1      -8.748  10.883  68.117  1.00  0.00    -0.133 A  
HETATM   28  C   UNL     1      -9.243   9.573  68.207  1.00  0.00    -0.132 A  
HETATM   29  C   UNL     1      -9.604  11.982  67.962  1.00  0.00    -0.199 A  
HETATM   30  C   UNL     1     -10.638   9.427  68.068  1.00  0.00    -0.278 A  
BRANCH  28  31
HETATM   31  C   UNL     1      -8.336   8.389  68.357  1.00  0.00    -0.131 A  
HETATM   32  C   UNL     1      -6.931   6.711  67.210  1.00  0.00    -0.078 A  
HETATM   33  C   UNL     1      -7.573   7.954  67.243  1.00  0.00    -0.101 A  
HETATM   34  C   UNL     1      -6.966   5.887  68.322  1.00  0.00    -0.072 A  
HETATM   35  C   UNL     1      -7.610   6.327  69.474  1.00  0.00    -0.094 A  
HETATM   36  C   UNL     1      -8.273   7.571  69.509  1.00  0.00    -0.130 A  
BRANCH  36  37
HETATM   37  C   UNL     1      -8.842   7.931  70.821  1.00  0.00    -0.139 C  
HETATM   38  N   UNL     1      -8.297   8.737  71.671  1.00  0.00    -0.285 NA 
HETATM   39  O   UNL     1      -9.209   8.791  72.771  1.00  0.00    -0.305 OA 
HETATM   40  C   UNL     1     -10.261   7.977  72.438  1.00  0.00    -0.280 C  
HETATM   41  N   UNL     1     -10.030   7.462  71.221  1.00  0.00    -0.187 NA 
HETATM   42  O   UNL     1     -11.232   7.742  73.144  1.00  0.00    -0.402 OA 
ENDBRANCH  36  37
ENDBRANCH  28  31
ENDBRANCH  24  25
ENDBRANCH   8  24
ENDBRANCH   3   4
ENDBRANCH   2   3
TORSDOF 10
ENDMDL
MODEL       48
REMARK 921   NORMALIZED FREE ENERGY PREDICTED BY IDOCK:   -6.17 KCAL/MOL
REMARK 922        TOTAL FREE ENERGY PREDICTED BY IDOCK:  -12.70 KCAL/MOL
REMARK 923 INTER-LIGAND FREE ENERGY PREDICTED BY IDOCK:  -11.74 KCAL/MOL
REMARK 924 INTRA-LIGAND FREE ENERGY PREDICTED BY IDOCK:   -0.96 KCAL/MOL
REMARK 927      BINDING AFFINITY PREDICTED BY RF-SCORE:    0.00 PKD
ROOT
HETATM    1  C   UNL     1     -12.918   7.448  71.214  1.00  0.00    -0.358 C  
HETATM    2  C   UNL     1     -12.907   8.782  71.939  1.00  0.00    -0.375 C  
ENDROOT
BRANCH   2   3
HETATM    3  O   UNL     1     -11.958   9.653  71.319  1.00  0.00    -0.324 OA 
BRANCH   3   4
HETATM    4  C   UNL     1     -12.328  10.934  71.297  1.00  0.00    -0.343 A  
HETATM    5  N   UNL     1     -13.172  11.487  72.128  1.00  0.00    -0.404 NA 
HETATM    6  C   UNL     1     -13.238  12.798  71.749  1.00  0.00    -0.374 A  
HETATM    7  C   UNL     1     -12.421  13.067  70.641  1.00  0.00    -0.268 A  
HETATM    8  N   UNL     1     -11.813  11.846  70.404  1.00  0.00    -0.304 NA 
HETATM    9  C   UNL     1     -12.385  14.364  70.067  1.00  0.00    -0.391 A  
HETATM   10  C   UNL     1     -13.146  15.373  70.695  1.00  0.00    -0.405 A  
HETATM   11  C   UNL     1     -13.979  13.827  72.351  1.00  0.00    -0.651 A  
HETATM   12  C   UNL     1     -13.916  15.116  71.825  1.00  0.00    -0.627 A  
BRANCH   9  13
HETATM   13  C   UNL     1     -11.534  14.748  68.917  1.00  0.00    -0.297 C  
HETATM   14  O   UNL     1     -10.524  15.421  69.020  1.00  0.00    -0.229 OA 
BRANCH  13  15
HETATM   15  O   UNL     1     -12.081  14.306  67.752  1.00  0.00    -0.363 OA 
BRANCH  15  16
HETATM   16  C   UNL     1     -11.373  14.672  66.556  1.00  0.00    -0.353 C  
BRANCH  16  17
HETATM   17  C   UNL     1     -11.501  13.588  65.544  1.00  0.00    -0.304 C  
HETATM   18  O   UNL     1     -11.163  11.787  64.265  1.00  0.00    -0.334 OA 
HETATM   19  C   UNL     1     -10.681  12.598  65.266  1.00  0.00    -0.289 C  
HETATM   20  O   UNL     1     -12.613  13.551  64.718  1.00  0.00    -0.583 OA 
HETATM   21  C   UNL     1      -9.432  12.193  65.921  1.00  0.00    -0.187 C  
HETATM   22  C   UNL     1     -12.366  12.404  63.971  1.00  0.00    -0.488 C  
HETATM   23  O   UNL     1     -13.136  11.977  63.120  1.00  0.00    -0.624 OA 
ENDBRANCH  16  17
ENDBRANCH  15  16
ENDBRANCH  13  15
ENDBRANCH   9  13
BRANCH   8  24
HETATM   24  C   UNL     1     -10.670  11.551  69.554  1.00  0.00    -0.000 C  
BRANCH  24  25
HETATM   25  C   UNL     1     -10.413  10.086  69.286  1.00  0.00    -0.245 A  
HETATM   26  C   UNL     1     -11.077   9.338  68.314  1.00  0.00     0.058 A  
HETATM   27  C   UNL     1      -9.158   8.077  69.887  1.00  0.00    -0.145 A  
HETATM   28  C   UNL     1      -9.827   7.304  68.925  1.00  0.00    -0.158 A  
HETATM   29  C   UNL     1      -9.435   9.440  70.055  1.00  0.00    -0.257 A  
HETATM   30  C   UNL     1     -10.741   7.995  68.102  1.00  0.00    -0.093 A  
BRANCH  28  31
HETATM   31  C   UNL     1      -9.529   5.850  68.726  1.00  0.00    -0.143 A  
HETATM   32  C   UNL     1      -9.445   3.963  67.132  1.00  0.00    -0.231 A  
HETATM   33  C   UNL     1      -9.435   5.335  67.407  1.00  0.00    -0.137 A  
HETATM   34  C   UNL     1      -9.472   3.051  68.173  1.00  0.00    -0.219 A  
HETATM   35  C   UNL     1      -9.452   3.516  69.484  1.00  0.00    -0.236 A  
HETATM   36  C   UNL     1      -9.459   4.897  69.769  1.00  0.00    -0.223 A  
BRANCH  36  37
HETATM   37  C   UNL     1      -9.358   5.233  71.201  1.00  0.00    -0.151 C  
HETATM   38  N   UNL     1     -10.355   5.298  72.021  1.00  0.00    -0.210 NA 
HETATM   39  O   UNL     1      -9.775   5.634  73.285  1.00  0.00    -0.149 OA 
HETATM   40  C   UNL     1      -8.423   5.728  73.075  1.00  0.00    -0.118 C  
HETATM   41  N   UNL     1      -8.175   5.462  71.784  1.00  0.00    -0.117 NA 
HETATM   42  O   UNL     1      -7.590   6.028  73.919  1.00  0.00    -0.092 OA 
ENDBRANCH  36  37
ENDBRANCH  28  31
ENDBRANCH  24  25
ENDBRANCH   8  24
ENDBRANCH   3   4
ENDBRANCH   2   3
TORSDOF 10
ENDMDL
MODEL       49
REMARK 921   NORMALIZED FREE ENERGY PREDICTED BY IDOCK:   -6.16 KCAL/MOL
REMARK 922        TOTAL FREE ENERGY PREDICTED BY IDOCK:  -12.68 KCAL/MOL
REMARK 923 INTER-LIGAND FREE ENERGY PREDICTED BY IDOCK:  -10.44 KCAL/MOL
REMARK 924 INTRA-LIGAND FREE ENERGY PREDICTED BY IDOCK:   -2.24 KCAL/MOL
REMARK 927      BINDING AFFINITY PREDICTED BY RF-SCORE:    0.00 PKD
ROOT
HETATM    1  C   UNL     1     -13.217  11.361  71.886  1.00  0.00    -0.485 C  
HETATM    2  C   UNL     1     -13.124  10.191  70.922  1.00  0.00    -0.335 C  
ENDROOT
BRANCH   2   3
HETATM    3  O   UNL     1     -12.148  10.479  69.918  1.00  0.00    -0.283 OA 
BRANCH   3   4
HETATM    4  C   UNL     1     -11.211   9.539  69.785  1.00  0.00    -0.144 A  
HETATM    5  N   UNL     1     -10.872   8.679  70.710  1.00  0.00    -0.222 NA 
HETATM    6  C   UNL     1      -9.900   7.907  70.139  1.00  0.00    -0.184 A  
HETATM    7  C   UNL     1      -9.615   8.305  68.825  1.00  0.00    -0.150 A  
HETATM    8  N   UNL     1     -10.515   9.337  68.614  1.00  0.00    -0.212 NA 
HETATM    9  C   UNL     1      -8.601   7.655  68.075  1.00  0.00    -0.123 A  
HETATM   10  C   UNL     1      -7.948   6.560  68.681  1.00  0.00    -0.114 A  
HETATM   11  C   UNL     1      -9.233   6.811  70.708  1.00  0.00    -0.158 A  
HETATM   12  C   UNL     1      -8.268   6.134  69.966  1.00  0.00    -0.124 A  
BRANCH   9  13
HETATM   13  C   UNL     1      -8.251   7.988  66.674  1.00  0.00    -0.108 C  
HETATM   14  O   UNL     1      -8.187   7.162  65.781  1.00  0.00    -0.119 OA 
BRANCH  13  15
HETATM   15  O   UNL     1      -7.949   9.309  66.561  1.00  0.00    -0.103 OA 
BRANCH  15  16
HETATM   16  C   UNL     1      -7.325   9.699  65.327  1.00  0.00    -0.113 C  
BRANCH  16  17
HETATM   17  C   UNL     1      -8.363  10.149  64.359  1.00  0.00    -0.171 C  
HETATM   18  O   UNL     1      -9.744  10.322  62.610  1.00  0.00    -0.288 OA 
HETATM   19  C   UNL     1      -8.731   9.614  63.214  1.00  0.00    -0.230 C  
HETATM   20  O   UNL     1      -9.084  11.303  64.615  1.00  0.00    -0.133 OA 
HETATM   21  C   UNL     1      -8.308   8.363  62.577  1.00  0.00    -0.165 C  
HETATM   22  C   UNL     1      -9.942  11.345  63.521  1.00  0.00    -0.388 C  
HETATM   23  O   UNL     1     -10.791  12.213  63.364  1.00  0.00    -0.431 OA 
ENDBRANCH  16  17
ENDBRANCH  15  16
ENDBRANCH  13  15
ENDBRANCH   9  13
BRANCH   8  24
HETATM   24  C   UNL     1     -10.886   9.977  67.362  1.00  0.00    -0.249 C  
BRANCH  24  25
HETATM   25  C   UNL     1     -10.872  11.488  67.369  1.00  0.00    -0.294 A  
HETATM   26  C   UNL     1     -11.899  12.285  66.864  1.00  0.00    -0.334 A  
HETATM   27  C   UNL     1      -9.659  13.529  67.951  1.00  0.00    -0.218 A  
HETATM   28  C   UNL     1     -10.675  14.346  67.433  1.00  0.00    -0.280 A  
HETATM   29  C   UNL     1      -9.761  12.131  67.932  1.00  0.00    -0.200 A  
HETATM   30  C   UNL     1     -11.823  13.681  66.954  1.00  0.00    -0.451 A  
BRANCH  28  31
HETATM   31  C   UNL     1     -10.585  15.842  67.461  1.00  0.00    -0.309 A  
HETATM   32  C   UNL     1      -9.716  17.875  66.358  1.00  0.00    -0.321 A  
HETATM   33  C   UNL     1     -10.098  16.529  66.319  1.00  0.00    -0.347 A  
HETATM   34  C   UNL     1      -9.878  18.605  67.523  1.00  0.00    -0.350 A  
HETATM   35  C   UNL     1     -10.457  17.996  68.632  1.00  0.00    -0.236 A  
HETATM   36  C   UNL     1     -10.828  16.636  68.606  1.00  0.00    -0.344 A  
BRANCH  36  37
HETATM   37  C   UNL     1     -11.498  16.155  69.829  1.00  0.00    -0.282 C  
HETATM   38  N   UNL     1     -12.762  15.914  69.938  1.00  0.00    -0.091 NA 
HETATM   39  O   UNL     1     -12.939  15.457  71.282  1.00  0.00    -0.405 OA 
HETATM   40  C   UNL     1     -11.696  15.466  71.857  1.00  0.00    -0.434 C  
HETATM   41  N   UNL     1     -10.808  15.884  70.943  1.00  0.00    -0.173 NA 
HETATM   42  O   UNL     1     -11.444  15.165  73.016  1.00  0.00    -0.342 OA 
ENDBRANCH  36  37
ENDBRANCH  28  31
ENDBRANCH  24  25
ENDBRANCH   8  24
ENDBRANCH   3   4
ENDBRANCH   2   3
TORSDOF 10
ENDMDL
MODEL       50
REMARK 921   NORMALIZED FREE ENERGY PREDICTED BY IDOCK:   -6.15 KCAL/MOL
REMARK 922        TOTAL FREE ENERGY PREDICTED BY IDOCK:  -12.67 KCAL/MOL
REMARK 923 INTER-LIGAND FREE ENERGY PREDICTED BY IDOCK:  -10.20 KCAL/MOL
REMARK 924 INTRA-LIGAND FREE ENERGY PREDICTED BY IDOCK:   -2.47 KCAL/MOL
REMARK 927      BINDING AFFINITY PREDICTED BY RF-SCORE:    0.00 PKD
ROOT
HETATM    1  C   UNL     1     -10.980   3.713  73.469  1.00  0.00    -0.333 C  
HETATM    2  C   UNL     1     -11.261   5.195  73.295  1.00  0.00    -0.321 C  
ENDROOT
BRANCH   2   3
HETATM    3  O   UNL     1     -11.410   5.490  71.904  1.00  0.00    -0.193 OA 
BRANCH   3   4
HETATM    4  C   UNL     1     -11.611   6.782  71.641  1.00  0.00    -0.295 A  
HETATM    5  N   UNL     1     -12.547   7.522  72.177  1.00  0.00    -0.216 NA 
HETATM    6  C   UNL     1     -12.369   8.765  71.638  1.00  0.00    -0.337 A  
HETATM    7  C   UNL     1     -11.301   8.798  70.731  1.00  0.00    -0.272 A  
HETATM    8  N   UNL     1     -10.805   7.506  70.792  1.00  0.00    -0.237 NA 
HETATM    9  C   UNL     1     -10.984   9.990  70.030  1.00  0.00    -0.352 A  
HETATM   10  C   UNL     1     -11.739  11.143  70.334  1.00  0.00    -0.415 A  
HETATM   11  C   UNL     1     -13.097   9.932  71.920  1.00  0.00    -0.559 A  
HETATM   12  C   UNL     1     -12.766  11.120  71.273  1.00  0.00    -0.531 A  
BRANCH   9  13
HETATM   13  C   UNL     1      -9.858  10.127  69.076  1.00  0.00    -0.205 C  
HETATM   14  O   UNL     1      -8.721  10.409  69.411  1.00  0.00    -0.164 OA 
BRANCH  13  15
HETATM   15  O   UNL     1     -10.295   9.965  67.798  1.00  0.00    -0.191 OA 
BRANCH  15  16
HETATM   16  C   UNL     1      -9.572  10.701  66.798  1.00  0.00    -0.169 C  
BRANCH  16  17
HETATM   17  C   UNL     1     -10.528  11.305  65.829  1.00  0.00    -0.254 C  
HETATM   18  O   UNL     1     -11.608  11.923  63.973  1.00  0.00    -0.378 OA 
HETATM   19  C   UNL     1     -10.546  11.238  64.515  1.00  0.00    -0.336 C  
HETATM   20  O   UNL     1     -11.574  12.084  66.295  1.00  0.00    -0.411 OA 
HETATM   21  C   UNL     1      -9.694  10.475  63.596  1.00  0.00    -0.375 C  
HETATM   22  C   UNL     1     -12.225  12.413  65.111  1.00  0.00    -0.384 C  
HETATM   23  O   UNL     1     -13.248  13.086  65.069  1.00  0.00    -0.739 OA 
ENDBRANCH  16  17
ENDBRANCH  15  16
ENDBRANCH  13  15
ENDBRANCH   9  13
BRANCH   8  24
HETATM   24  C   UNL     1      -9.545   6.992  70.279  1.00  0.00    -0.168 C  
BRANCH  24  25
HETATM   25  C   UNL     1      -9.594   6.411  68.884  1.00  0.00    -0.130 A  
HETATM   26  C   UNL     1     -10.706   6.474  68.046  1.00  0.00    -0.351 A  
HETATM   27  C   UNL     1      -8.414   5.191  67.126  1.00  0.00    -0.106 A  
HETATM   28  C   UNL     1      -9.529   5.230  66.274  1.00  0.00    -0.166 A  
HETATM   29  C   UNL     1      -8.441   5.779  68.397  1.00  0.00    -0.110 A  
HETATM   30  C   UNL     1     -10.646   5.949  66.749  1.00  0.00    -0.368 A  
BRANCH  28  31
HETATM   31  C   UNL     1      -9.508   4.618  64.907  1.00  0.00    -0.107 A  
HETATM   32  C   UNL     1     -10.385   2.841  63.431  1.00  0.00    -0.187 A  
HETATM   33  C   UNL     1     -10.495   3.660  64.560  1.00  0.00    -0.136 A  
HETATM   34  C   UNL     1      -9.318   3.001  62.564  1.00  0.00    -0.089 A  
HETATM   35  C   UNL     1      -8.387   4.006  62.810  1.00  0.00    -0.083 A  
HETATM   36  C   UNL     1      -8.483   4.824  63.955  1.00  0.00    -0.132 A  
BRANCH  36  37
HETATM   37  C   UNL     1      -7.469   5.891  64.037  1.00  0.00    -0.078 C  
HETATM   38  N   UNL     1      -6.231   5.716  64.363  1.00  0.00    -0.025 NA 
HETATM   39  O   UNL     1      -5.639   7.016  64.287  1.00  0.00    -0.031 OA 
HETATM   40  C   UNL     1      -6.636   7.870  63.894  1.00  0.00    -0.062 C  
HETATM   41  N   UNL     1      -7.761   7.160  63.725  1.00  0.00    -0.116 NA 
HETATM   42  O   UNL     1      -6.522   9.079  63.745  1.00  0.00    -0.087 OA 
ENDBRANCH  36  37
ENDBRANCH  28  31
ENDBRANCH  24  25
ENDBRANCH   8  24
ENDBRANCH   3   4
ENDBRANCH   2   3
TORSDOF 10
ENDMDL
MODEL       51
REMARK 921   NORMALIZED FREE ENERGY PREDICTED BY IDOCK:   -6.14 KCAL/MOL
REMARK 922        TOTAL FREE ENERGY PREDICTED BY IDOCK:  -12.64 KCAL/MOL
REMARK 923 INTER-LIGAND FREE ENERGY PREDICTED BY IDOCK:  -10.06 KCAL/MOL
REMARK 924 INTRA-LIGAND FREE ENERGY PREDICTED BY IDOCK:   -2.59 KCAL/MOL
REMARK 927      BINDING AFFINITY PREDICTED BY RF-SCORE:    0.00 PKD
ROOT
HETATM    1  C   UNL     1     -10.669   4.868  65.734  1.00  0.00    -0.194 C  
HETATM    2  C   UNL     1     -10.982   5.924  66.779  1.00  0.00    -0.197 C  
ENDROOT
BRANCH   2   3
HETATM    3  O   UNL     1     -10.051   7.002  66.658  1.00  0.00    -0.200 OA 
BRANCH   3   4
HETATM    4  C   UNL     1      -9.033   6.941  67.518  1.00  0.00    -0.116 A  
HETATM    5  N   UNL     1      -7.850   6.453  67.250  1.00  0.00    -0.103 NA 
HETATM    6  C   UNL     1      -7.132   6.608  68.402  1.00  0.00    -0.083 A  
HETATM    7  C   UNL     1      -7.892   7.197  69.422  1.00  0.00    -0.113 A  
HETATM    8  N   UNL     1      -9.105   7.440  68.799  1.00  0.00    -0.132 NA 
HETATM    9  C   UNL     1      -7.338   7.402  70.712  1.00  0.00    -0.069 A  
HETATM   10  C   UNL     1      -5.983   7.053  70.899  1.00  0.00    -0.032 A  
HETATM   11  C   UNL     1      -5.785   6.276  68.622  1.00  0.00    -0.016 A  
HETATM   12  C   UNL     1      -5.216   6.515  69.870  1.00  0.00    -0.014 A  
BRANCH   9  13
HETATM   13  C   UNL     1      -8.055   8.042  71.840  1.00  0.00    -0.121 C  
HETATM   14  O   UNL     1      -8.260   9.240  71.916  1.00  0.00    -0.261 OA 
BRANCH  13  15
HETATM   15  O   UNL     1      -8.373   7.117  72.786  1.00  0.00    -0.106 OA 
BRANCH  15  16
HETATM   16  C   UNL     1      -9.413   7.499  73.701  1.00  0.00    -0.284 C  
BRANCH  16  17
HETATM   17  C   UNL     1     -10.734   7.425  73.021  1.00  0.00    -0.364 C  
HETATM   18  O   UNL     1     -12.633   6.715  72.079  1.00  0.00    -0.317 OA 
HETATM   19  C   UNL     1     -11.447   6.371  72.685  1.00  0.00    -0.198 C  
HETATM   20  O   UNL     1     -11.372   8.592  72.634  1.00  0.00    -0.343 OA 
HETATM   21  C   UNL     1     -11.215   4.948  72.955  1.00  0.00    -0.367 C  
HETATM   22  C   UNL     1     -12.551   8.097  72.087  1.00  0.00    -0.310 C  
HETATM   23  O   UNL     1     -13.438   8.813  71.639  1.00  0.00    -0.352 OA 
ENDBRANCH  16  17
ENDBRANCH  15  16
ENDBRANCH  13  15
ENDBRANCH   9  13
BRANCH   8  24
HETATM   24  C   UNL     1     -10.211   8.267  69.257  1.00  0.00    -0.204 C  
BRANCH  24  25
HETATM   25  C   UNL     1     -10.127   9.732  68.896  1.00  0.00    -0.194 A  
HETATM   26  C   UNL     1      -9.009  10.337  68.322  1.00  0.00    -0.132 A  
HETATM   27  C   UNL     1     -11.243  11.907  68.864  1.00  0.00    -0.310 A  
HETATM   28  C   UNL     1     -10.121  12.535  68.301  1.00  0.00    -0.228 A  
HETATM   29  C   UNL     1     -11.251  10.534  69.144  1.00  0.00    -0.314 A  
HETATM   30  C   UNL     1      -9.037  11.694  67.977  1.00  0.00    -0.177 A  
BRANCH  28  31
HETATM   31  C   UNL     1     -10.107  14.000  67.984  1.00  0.00    -0.239 A  
HETATM   32  C   UNL     1      -9.806  16.293  68.853  1.00  0.00    -0.246 A  
HETATM   33  C   UNL     1      -9.598  14.912  68.944  1.00  0.00    -0.215 A  
HETATM   34  C   UNL     1     -10.466  16.821  67.756  1.00  0.00    -0.335 A  
HETATM   35  C   UNL     1     -10.881  15.968  66.739  1.00  0.00    -0.195 A  
HETATM   36  C   UNL     1     -10.691  14.574  66.831  1.00  0.00    -0.288 A  
BRANCH  36  37
HETATM   37  C   UNL     1     -11.114  13.813  65.641  1.00  0.00    -0.295 C  
HETATM   38  N   UNL     1     -10.363  13.546  64.625  1.00  0.00    -0.409 NA 
HETATM   39  O   UNL     1     -11.190  12.781  63.743  1.00  0.00    -0.407 OA 
HETATM   40  C   UNL     1     -12.406  12.659  64.365  1.00  0.00    -0.446 C  
HETATM   41  N   UNL     1     -12.342  13.287  65.548  1.00  0.00    -0.462 NA 
HETATM   42  O   UNL     1     -13.387  12.092  63.906  1.00  0.00    -0.669 OA 
ENDBRANCH  36  37
ENDBRANCH  28  31
ENDBRANCH  24  25
ENDBRANCH   8  24
ENDBRANCH   3   4
ENDBRANCH   2   3
TORSDOF 10
ENDMDL
MODEL       52
REMARK 921   NORMALIZED FREE ENERGY PREDICTED BY IDOCK:   -6.13 KCAL/MOL
REMARK 922        TOTAL FREE ENERGY PREDICTED BY IDOCK:  -12.64 KCAL/MOL
REMARK 923 INTER-LIGAND FREE ENERGY PREDICTED BY IDOCK:   -9.63 KCAL/MOL
REMARK 924 INTRA-LIGAND FREE ENERGY PREDICTED BY IDOCK:   -3.01 KCAL/MOL
REMARK 927      BINDING AFFINITY PREDICTED BY RF-SCORE:    0.00 PKD
ROOT
HETATM    1  C   UNL     1     -12.509  14.001  71.193  1.00  0.00    -0.447 C  
HETATM    2  C   UNL     1     -11.961  13.901  69.781  1.00  0.00    -0.338 C  
ENDROOT
BRANCH   2   3
HETATM    3  O   UNL     1     -11.659  12.535  69.484  1.00  0.00    -0.284 OA 
BRANCH   3   4
HETATM    4  C   UNL     1     -11.524  12.279  68.182  1.00  0.00    -0.316 A  
HETATM    5  N   UNL     1     -12.284  12.768  67.237  1.00  0.00    -0.364 NA 
HETATM    6  C   UNL     1     -11.777  12.258  66.074  1.00  0.00    -0.388 A  
HETATM    7  C   UNL     1     -10.679  11.416  66.303  1.00  0.00    -0.270 A  
HETATM    8  N   UNL     1     -10.516  11.490  67.676  1.00  0.00    -0.184 NA 
HETATM    9  C   UNL     1     -10.040  10.753  65.224  1.00  0.00    -0.353 A  
HETATM   10  C   UNL     1     -10.511  11.028  63.922  1.00  0.00    -0.422 A  
HETATM   11  C   UNL     1     -12.217  12.512  64.766  1.00  0.00    -0.532 A  
HETATM   12  C   UNL     1     -11.568  11.903  63.694  1.00  0.00    -0.559 A  
BRANCH   9  13
HETATM   13  C   UNL     1      -8.858   9.870  65.366  1.00  0.00    -0.168 C  
HETATM   14  O   UNL     1      -7.708  10.268  65.306  1.00  0.00    -0.141 OA 
BRANCH  13  15
HETATM   15  O   UNL     1      -9.247   8.573  65.495  1.00  0.00    -0.152 OA 
BRANCH  15  16
HETATM   16  C   UNL     1      -8.347   7.725  66.227  1.00  0.00    -0.131 C  
BRANCH  16  17
HETATM   17  C   UNL     1      -8.390   6.345  65.671  1.00  0.00    -0.147 C  
HETATM   18  O   UNL     1      -8.985   4.258  65.136  1.00  0.00    -0.127 OA 
HETATM   19  C   UNL     1      -9.296   5.404  65.830  1.00  0.00    -0.143 C  
HETATM   20  O   UNL     1      -7.353   5.897  64.869  1.00  0.00    -0.067 OA 
HETATM   21  C   UNL     1     -10.588   5.444  66.523  1.00  0.00    -0.353 C  
HETATM   22  C   UNL     1      -7.787   4.617  64.543  1.00  0.00    -0.087 C  
HETATM   23  O   UNL     1      -7.163   3.862  63.806  1.00  0.00    -0.049 OA 
ENDBRANCH  16  17
ENDBRANCH  15  16
ENDBRANCH  13  15
ENDBRANCH   9  13
BRANCH   8  24
HETATM   24  C   UNL     1      -9.390  11.045  68.481  1.00  0.00    -0.188 C  
BRANCH  24  25
HETATM   25  C   UNL     1      -9.606   9.772  69.266  1.00  0.00    -0.204 A  
HETATM   26  C   UNL     1      -8.952   9.463  70.458  1.00  0.00    -0.303 A  
HETATM   27  C   UNL     1     -10.771   7.629  69.423  1.00  0.00    -0.188 A  
HETATM   28  C   UNL     1     -10.110   7.294  70.615  1.00  0.00    -0.198 A  
HETATM   29  C   UNL     1     -10.534   8.845  68.769  1.00  0.00    -0.223 A  
HETATM   30  C   UNL     1      -9.249   8.279  71.144  1.00  0.00    -0.200 A  
BRANCH  28  31
HETATM   31  C   UNL     1     -10.366   6.003  71.331  1.00  0.00    -0.269 A  
HETATM   32  C   UNL     1     -11.434   4.896  73.265  1.00  0.00    -0.359 A  
HETATM   33  C   UNL     1     -11.335   5.964  72.367  1.00  0.00    -0.358 A  
HETATM   34  C   UNL     1     -10.616   3.790  73.113  1.00  0.00    -0.268 A  
HETATM   35  C   UNL     1      -9.729   3.741  72.042  1.00  0.00    -0.236 A  
HETATM   36  C   UNL     1      -9.612   4.822  71.143  1.00  0.00    -0.235 A  
BRANCH  36  37
HETATM   37  C   UNL     1      -8.688   4.591  70.018  1.00  0.00    -0.080 C  
HETATM   38  N   UNL     1      -8.851   3.705  69.092  1.00  0.00    -0.092 NA 
HETATM   39  O   UNL     1      -7.727   3.864  68.222  1.00  0.00    -0.065 OA 
HETATM   40  C   UNL     1      -6.980   4.888  68.743  1.00  0.00    -0.052 C  
HETATM   41  N   UNL     1      -7.593   5.342  69.846  1.00  0.00    -0.072 NA 
HETATM   42  O   UNL     1      -5.921   5.300  68.290  1.00  0.00    -0.020 OA 
ENDBRANCH  36  37
ENDBRANCH  28  31
ENDBRANCH  24  25
ENDBRANCH   8  24
ENDBRANCH   3   4
ENDBRANCH   2   3
TORSDOF 10
ENDMDL
MODEL       53
REMARK 921   NORMALIZED FREE ENERGY PREDICTED BY IDOCK:   -6.11 KCAL/MOL
REMARK 922        TOTAL FREE ENERGY PREDICTED BY IDOCK:  -12.60 KCAL/MOL
REMARK 923 INTER-LIGAND FREE ENERGY PREDICTED BY IDOCK:   -9.66 KCAL/MOL
REMARK 924 INTRA-LIGAND FREE ENERGY PREDICTED BY IDOCK:   -2.94 KCAL/MOL
REMARK 927      BINDING AFFINITY PREDICTED BY RF-SCORE:    0.00 PKD
ROOT
HETATM    1  C   UNL     1     -14.387   7.598  71.840  1.00  0.00    -0.536 C  
HETATM    2  C   UNL     1     -13.455   8.765  72.113  1.00  0.00    -0.427 C  
ENDROOT
BRANCH   2   3
HETATM    3  O   UNL     1     -13.154   9.430  70.884  1.00  0.00    -0.199 OA 
BRANCH   3   4
HETATM    4  C   UNL     1     -13.027  10.753  70.998  1.00  0.00    -0.332 A  
HETATM    5  N   UNL     1     -13.320  11.446  72.068  1.00  0.00    -0.413 NA 
HETATM    6  C   UNL     1     -13.022  12.741  71.745  1.00  0.00    -0.314 A  
HETATM    7  C   UNL     1     -12.543  12.859  70.433  1.00  0.00    -0.074 A  
HETATM    8  N   UNL     1     -12.517  11.545  69.995  1.00  0.00    -0.172 NA 
HETATM    9  C   UNL     1     -12.220  14.131  69.893  1.00  0.00    -0.416 A  
HETATM   10  C   UNL     1     -12.336  15.248  70.748  1.00  0.00    -0.433 A  
HETATM   11  C   UNL     1     -13.122  13.873  72.569  1.00  0.00    -0.533 A  
HETATM   12  C   UNL     1     -12.764  15.121  72.066  1.00  0.00    -0.418 A  
BRANCH   9  13
HETATM   13  C   UNL     1     -11.681  14.350  68.530  1.00  0.00    -0.335 C  
HETATM   14  O   UNL     1     -12.380  14.483  67.541  1.00  0.00    -0.240 OA 
BRANCH  13  15
HETATM   15  O   UNL     1     -10.321  14.304  68.544  1.00  0.00    -0.232 OA 
BRANCH  15  16
HETATM   16  C   UNL     1      -9.686  14.355  67.256  1.00  0.00    -0.233 C  
BRANCH  16  17
HETATM   17  C   UNL     1      -9.486  12.974  66.739  1.00  0.00    -0.250 C  
HETATM   18  O   UNL     1      -8.727  10.906  66.360  1.00  0.00    -0.158 OA 
HETATM   19  C   UNL     1      -8.567  12.085  67.051  1.00  0.00    -0.185 C  
HETATM   20  O   UNL     1     -10.340  12.477  65.768  1.00  0.00    -0.255 OA 
HETATM   21  C   UNL     1      -7.513  12.134  68.069  1.00  0.00    -0.116 C  
HETATM   22  C   UNL     1      -9.845  11.189  65.595  1.00  0.00    -0.235 C  
HETATM   23  O   UNL     1     -10.341  10.374  64.826  1.00  0.00    -0.320 OA 
ENDBRANCH  16  17
ENDBRANCH  15  16
ENDBRANCH  13  15
ENDBRANCH   9  13
BRANCH   8  24
HETATM   24  C   UNL     1     -11.874  10.995  68.813  1.00  0.00    -0.282 C  
BRANCH  24  25
HETATM   25  C   UNL     1     -10.788   9.976  69.071  1.00  0.00    -0.253 A  
HETATM   26  C   UNL     1      -9.805  10.107  70.051  1.00  0.00    -0.179 A  
HETATM   27  C   UNL     1      -9.786   7.837  68.441  1.00  0.00    -0.167 A  
HETATM   28  C   UNL     1      -8.779   7.961  69.411  1.00  0.00    -0.138 A  
HETATM   29  C   UNL     1     -10.776   8.817  68.282  1.00  0.00    -0.121 A  
HETATM   30  C   UNL     1      -8.864   9.089  70.252  1.00  0.00    -0.210 A  
BRANCH  28  31
HETATM   31  C   UNL     1      -7.725   6.913  69.600  1.00  0.00    -0.110 A  
HETATM   32  C   UNL     1      -5.622   5.930  68.751  1.00  0.00    -0.011 A  
HETATM   33  C   UNL     1      -6.522   6.997  68.851  1.00  0.00    -0.029 A  
HETATM   34  C   UNL     1      -5.854   4.763  69.459  1.00  0.00    -0.017 A  
HETATM   35  C   UNL     1      -6.965   4.684  70.293  1.00  0.00    -0.045 A  
HETATM   36  C   UNL     1      -7.885   5.749  70.386  1.00  0.00    -0.104 A  
BRANCH  36  37
HETATM   37  C   UNL     1      -8.967   5.547  71.368  1.00  0.00    -0.139 C  
HETATM   38  N   UNL     1      -9.923   4.686  71.252  1.00  0.00    -0.196 NA 
HETATM   39  O   UNL     1     -10.707   4.840  72.439  1.00  0.00    -0.204 OA 
HETATM   40  C   UNL     1     -10.097   5.820  73.178  1.00  0.00    -0.183 C  
HETATM   41  N   UNL     1      -9.011   6.239  72.513  1.00  0.00    -0.138 NA 
HETATM   42  O   UNL     1     -10.493   6.253  74.251  1.00  0.00    -0.305 OA 
ENDBRANCH  36  37
ENDBRANCH  28  31
ENDBRANCH  24  25
ENDBRANCH   8  24
ENDBRANCH   3   4
ENDBRANCH   2   3
TORSDOF 10
ENDMDL
MODEL       54
REMARK 921   NORMALIZED FREE ENERGY PREDICTED BY IDOCK:   -6.10 KCAL/MOL
REMARK 922        TOTAL FREE ENERGY PREDICTED BY IDOCK:  -12.59 KCAL/MOL
REMARK 923 INTER-LIGAND FREE ENERGY PREDICTED BY IDOCK:   -9.47 KCAL/MOL
REMARK 924 INTRA-LIGAND FREE ENERGY PREDICTED BY IDOCK:   -3.12 KCAL/MOL
REMARK 927      BINDING AFFINITY PREDICTED BY RF-SCORE:    0.00 PKD
ROOT
HETATM    1  C   UNL     1     -11.588  11.848  63.754  1.00  0.00    -0.555 C  
HETATM    2  C   UNL     1     -12.528  12.550  64.718  1.00  0.00    -0.457 C  
ENDROOT
BRANCH   2   3
HETATM    3  O   UNL     1     -12.162  12.222  66.061  1.00  0.00    -0.646 OA 
BRANCH   3   4
HETATM    4  C   UNL     1     -11.586  13.224  66.727  1.00  0.00    -0.365 A  
HETATM    5  N   UNL     1     -12.214  14.261  67.217  1.00  0.00    -0.346 NA 
HETATM    6  C   UNL     1     -11.244  15.010  67.823  1.00  0.00    -0.321 A  
HETATM    7  C   UNL     1      -9.974  14.430  67.696  1.00  0.00    -0.224 A  
HETATM    8  N   UNL     1     -10.241  13.251  67.019  1.00  0.00    -0.242 NA 
HETATM    9  C   UNL     1      -8.827  15.079  68.220  1.00  0.00    -0.172 A  
HETATM   10  C   UNL     1      -9.029  16.285  68.925  1.00  0.00    -0.248 A  
HETATM   11  C   UNL     1     -11.409  16.209  68.534  1.00  0.00    -0.359 A  
HETATM   12  C   UNL     1     -10.297  16.833  69.094  1.00  0.00    -0.326 A  
BRANCH   9  13
HETATM   13  C   UNL     1      -7.452  14.529  68.159  1.00  0.00    -0.126 C  
HETATM   14  O   UNL     1      -6.775  14.515  67.146  1.00  0.00    -0.218 OA 
BRANCH  13  15
HETATM   15  O   UNL     1      -7.102  13.991  69.359  1.00  0.00    -0.094 OA 
BRANCH  15  16
HETATM   16  C   UNL     1      -5.848  13.290  69.382  1.00  0.00    -0.094 C  
BRANCH  16  17
HETATM   17  C   UNL     1      -6.084  11.845  69.647  1.00  0.00    -0.124 C  
HETATM   18  O   UNL     1      -6.386   9.640  69.440  1.00  0.00    -0.040 OA 
HETATM   19  C   UNL     1      -6.176  10.841  68.802  1.00  0.00    -0.040 C  
HETATM   20  O   UNL     1      -6.261  11.408  70.950  1.00  0.00    -0.324 OA 
HETATM   21  C   UNL     1      -5.983  10.808  67.348  1.00  0.00    -0.049 C  
HETATM   22  C   UNL     1      -6.412  10.038  70.765  1.00  0.00    -0.058 C  
HETATM   23  O   UNL     1      -6.567   9.248  71.689  1.00  0.00    -0.240 OA 
ENDBRANCH  16  17
ENDBRANCH  15  16
ENDBRANCH  13  15
ENDBRANCH   9  13
BRANCH   8  24
HETATM   24  C   UNL     1      -9.373  12.101  66.823  1.00  0.00    -0.212 C  
BRANCH  24  25
HETATM   25  C   UNL     1      -9.721  10.871  67.630  1.00  0.00    -0.188 A  
HETATM   26  C   UNL     1     -10.022   9.628  67.075  1.00  0.00    -0.263 A  
HETATM   27  C   UNL     1     -10.070   9.899  69.845  1.00  0.00    -0.297 A  
HETATM   28  C   UNL     1     -10.391   8.644  69.303  1.00  0.00    -0.228 A  
HETATM   29  C   UNL     1      -9.730  10.985  69.027  1.00  0.00    -0.151 A  
HETATM   30  C   UNL     1     -10.288   8.529  67.902  1.00  0.00    -0.281 A  
BRANCH  28  31
HETATM   31  C   UNL     1     -10.742   7.472  70.168  1.00  0.00    -0.248 A  
HETATM   32  C   UNL     1     -12.015   6.663  72.125  1.00  0.00    -0.320 A  
HETATM   33  C   UNL     1     -11.807   7.589  71.097  1.00  0.00    -0.324 A  
HETATM   34  C   UNL     1     -11.208   5.541  72.216  1.00  0.00    -0.281 A  
HETATM   35  C   UNL     1     -10.223   5.333  71.256  1.00  0.00    -0.291 A  
HETATM   36  C   UNL     1      -9.997   6.271  70.227  1.00  0.00    -0.210 A  
BRANCH  36  37
HETATM   37  C   UNL     1      -8.973   5.874  69.244  1.00  0.00    -0.117 C  
HETATM   38  N   UNL     1      -9.163   5.056  68.262  1.00  0.00    -0.115 NA 
HETATM   39  O   UNL     1      -7.907   4.996  67.579  1.00  0.00    -0.094 OA 
HETATM   40  C   UNL     1      -7.061   5.835  68.256  1.00  0.00    -0.074 C  
HETATM   41  N   UNL     1      -7.736   6.387  69.276  1.00  0.00    -0.099 NA 
HETATM   42  O   UNL     1      -5.884   6.028  67.988  1.00  0.00    -0.011 OA 
ENDBRANCH  36  37
ENDBRANCH  28  31
ENDBRANCH  24  25
ENDBRANCH   8  24
ENDBRANCH   3   4
ENDBRANCH   2   3
TORSDOF 10
ENDMDL
MODEL       55
REMARK 921   NORMALIZED FREE ENERGY PREDICTED BY IDOCK:   -6.10 KCAL/MOL
REMARK 922        TOTAL FREE ENERGY PREDICTED BY IDOCK:  -12.58 KCAL/MOL
REMARK 923 INTER-LIGAND FREE ENERGY PREDICTED BY IDOCK:   -9.60 KCAL/MOL
REMARK 924 INTRA-LIGAND FREE ENERGY PREDICTED BY IDOCK:   -2.98 KCAL/MOL
REMARK 927      BINDING AFFINITY PREDICTED BY RF-SCORE:    0.00 PKD
ROOT
HETATM    1  C   UNL     1     -13.384  10.095  71.879  1.00  0.00    -0.505 C  
HETATM    2  C   UNL     1     -13.700   8.633  72.139  1.00  0.00    -0.415 C  
ENDROOT
BRANCH   2   3
HETATM    3  O   UNL     1     -12.811   7.812  71.378  1.00  0.00    -0.328 OA 
BRANCH   3   4
HETATM    4  C   UNL     1     -11.528   7.938  71.719  1.00  0.00    -0.269 A  
HETATM    5  N   UNL     1     -11.065   7.875  72.941  1.00  0.00    -0.402 NA 
HETATM    6  C   UNL     1      -9.714   8.038  72.819  1.00  0.00    -0.280 A  
HETATM    7  C   UNL     1      -9.324   8.220  71.484  1.00  0.00    -0.180 A  
HETATM    8  N   UNL     1     -10.520   8.104  70.796  1.00  0.00    -0.200 NA 
HETATM    9  C   UNL     1      -7.964   8.450  71.153  1.00  0.00    -0.127 A  
HETATM   10  C   UNL     1      -7.025   8.420  72.206  1.00  0.00    -0.106 A  
HETATM   11  C   UNL     1      -8.753   8.009  73.841  1.00  0.00    -0.308 A  
HETATM   12  C   UNL     1      -7.408   8.188  73.524  1.00  0.00    -0.190 A  
BRANCH   9  13
HETATM   13  C   UNL     1      -7.456   8.624  69.772  1.00  0.00    -0.060 C  
HETATM   14  O   UNL     1      -7.538   9.669  69.149  1.00  0.00    -0.075 OA 
BRANCH  13  15
HETATM   15  O   UNL     1      -6.966   7.449  69.294  1.00  0.00    -0.061 OA 
BRANCH  15  16
HETATM   16  C   UNL     1      -7.478   7.037  68.016  1.00  0.00    -0.099 C  
BRANCH  16  17
HETATM   17  C   UNL     1      -8.356   5.847  68.185  1.00  0.00    -0.115 C  
HETATM   18  O   UNL     1      -9.766   4.147  67.844  1.00  0.00    -0.160 OA 
HETATM   19  C   UNL     1      -9.106   5.225  67.301  1.00  0.00    -0.112 C  
HETATM   20  O   UNL     1      -8.473   5.255  69.432  1.00  0.00    -0.093 OA 
HETATM   21  C   UNL     1      -9.242   5.442  65.857  1.00  0.00    -0.165 C  
HETATM   22  C   UNL     1      -9.330   4.194  69.157  1.00  0.00    -0.166 C  
HETATM   23  O   UNL     1      -9.681   3.376  69.999  1.00  0.00    -0.166 OA 
ENDBRANCH  16  17
ENDBRANCH  15  16
ENDBRANCH  13  15
ENDBRANCH   9  13
BRANCH   8  24
HETATM   24  C   UNL     1     -10.733   7.941  69.367  1.00  0.00    -0.168 C  
BRANCH  24  25
HETATM   25  C   UNL     1     -10.819   9.221  68.566  1.00  0.00    -0.119 A  
HETATM   26  C   UNL     1     -10.480   9.328  67.218  1.00  0.00    -0.334 A  
HETATM   27  C   UNL     1     -11.363  11.604  68.555  1.00  0.00    -0.332 A  
HETATM   28  C   UNL     1     -11.011  11.734  67.202  1.00  0.00    -0.326 A  
HETATM   29  C   UNL     1     -11.281  10.373  69.219  1.00  0.00    -0.304 A  
HETATM   30  C   UNL     1     -10.635  10.545  66.543  1.00  0.00    -0.240 A  
BRANCH  28  31
HETATM   31  C   UNL     1     -11.108  13.041  66.478  1.00  0.00    -0.315 A  
HETATM   32  C   UNL     1     -12.214  14.322  64.676  1.00  0.00    -0.470 A  
HETATM   33  C   UNL     1     -12.196  13.266  65.594  1.00  0.00    -0.514 A  
HETATM   34  C   UNL     1     -11.176  15.238  64.659  1.00  0.00    -0.366 A  
HETATM   35  C   UNL     1     -10.146  15.116  65.585  1.00  0.00    -0.392 A  
HETATM   36  C   UNL     1     -10.113  14.046  66.503  1.00  0.00    -0.287 A  
BRANCH  36  37
HETATM   37  C   UNL     1      -9.000  14.095  67.470  1.00  0.00    -0.198 C  
HETATM   38  N   UNL     1      -8.962  14.849  68.519  1.00  0.00    -0.173 NA 
HETATM   39  O   UNL     1      -7.715  14.542  69.150  1.00  0.00    -0.130 OA 
HETATM   40  C   UNL     1      -7.117  13.582  68.376  1.00  0.00    -0.107 C  
HETATM   41  N   UNL     1      -7.930  13.301  67.346  1.00  0.00    -0.178 NA 
HETATM   42  O   UNL     1      -6.019  13.085  68.578  1.00  0.00    -0.068 OA 
ENDBRANCH  36  37
ENDBRANCH  28  31
ENDBRANCH  24  25
ENDBRANCH   8  24
ENDBRANCH   3   4
ENDBRANCH   2   3
TORSDOF 10
ENDMDL
MODEL       56
REMARK 921   NORMALIZED FREE ENERGY PREDICTED BY IDOCK:   -6.09 KCAL/MOL
REMARK 922        TOTAL FREE ENERGY PREDICTED BY IDOCK:  -12.58 KCAL/MOL
REMARK 923 INTER-LIGAND FREE ENERGY PREDICTED BY IDOCK:   -9.19 KCAL/MOL
REMARK 924 INTRA-LIGAND FREE ENERGY PREDICTED BY IDOCK:   -3.39 KCAL/MOL
REMARK 927      BINDING AFFINITY PREDICTED BY RF-SCORE:    0.00 PKD
ROOT
HETATM    1  C   UNL     1     -13.338  10.159  71.288  1.00  0.00    -0.394 C  
HETATM    2  C   UNL     1     -13.243   8.678  71.606  1.00  0.00    -0.346 C  
ENDROOT
BRANCH   2   3
HETATM    3  O   UNL     1     -12.124   8.447  72.465  1.00  0.00    -0.393 OA 
BRANCH   3   4
HETATM    4  C   UNL     1     -11.251   7.556  71.992  1.00  0.00    -0.257 A  
HETATM    5  N   UNL     1     -11.451   6.265  71.933  1.00  0.00    -0.296 NA 
HETATM    6  C   UNL     1     -10.315   5.754  71.371  1.00  0.00    -0.224 A  
HETATM    7  C   UNL     1      -9.374   6.754  71.084  1.00  0.00    -0.159 A  
HETATM    8  N   UNL     1     -10.033   7.913  71.459  1.00  0.00    -0.170 NA 
HETATM    9  C   UNL     1      -8.108   6.420  70.538  1.00  0.00    -0.117 A  
HETATM   10  C   UNL     1      -7.869   5.062  70.237  1.00  0.00    -0.070 A  
HETATM   11  C   UNL     1     -10.045   4.414  71.055  1.00  0.00    -0.195 A  
HETATM   12  C   UNL     1      -8.824   4.079  70.475  1.00  0.00    -0.136 A  
BRANCH   9  13
HETATM   13  C   UNL     1      -7.064   7.408  70.177  1.00  0.00    -0.064 C  
HETATM   14  O   UNL     1      -6.478   8.099  70.991  1.00  0.00    -0.036 OA 
BRANCH  13  15
HETATM   15  O   UNL     1      -6.921   7.474  68.826  1.00  0.00    -0.073 OA 
BRANCH  15  16
HETATM   16  C   UNL     1      -5.594   7.766  68.357  1.00  0.00    -0.028 C  
BRANCH  16  17
HETATM   17  C   UNL     1      -5.628   8.948  67.452  1.00  0.00    -0.038 C  
HETATM   18  O   UNL     1      -5.907  10.313  65.704  1.00  0.00    -0.075 OA 
HETATM   19  C   UNL     1      -6.009   9.031  66.195  1.00  0.00    -0.055 C  
HETATM   20  O   UNL     1      -5.197  10.179  67.917  1.00  0.00    -0.035 OA 
HETATM   21  C   UNL     1      -6.605   8.018  65.319  1.00  0.00    -0.051 C  
HETATM   22  C   UNL     1      -5.420  10.989  66.809  1.00  0.00    -0.084 C  
HETATM   23  O   UNL     1      -5.196  12.193  66.799  1.00  0.00    -0.309 OA 
ENDBRANCH  16  17
ENDBRANCH  15  16
ENDBRANCH  13  15
ENDBRANCH   9  13
BRANCH   8  24
HETATM   24  C   UNL     1      -9.680   9.293  71.164  1.00  0.00    -0.257 C  
BRANCH  24  25
HETATM   25  C   UNL     1      -9.682   9.672  69.701  1.00  0.00    -0.230 A  
HETATM   26  C   UNL     1      -8.766  10.545  69.115  1.00  0.00    -0.155 A  
HETATM   27  C   UNL     1     -10.747   9.422  67.515  1.00  0.00    -0.290 A  
HETATM   28  C   UNL     1      -9.844  10.311  66.912  1.00  0.00    -0.244 A  
HETATM   29  C   UNL     1     -10.661   9.100  68.877  1.00  0.00    -0.214 A  
HETATM   30  C   UNL     1      -8.814  10.804  67.740  1.00  0.00    -0.130 A  
BRANCH  28  31
HETATM   31  C   UNL     1      -9.917  10.651  65.455  1.00  0.00    -0.333 A  
HETATM   32  C   UNL     1      -9.159  10.098  63.169  1.00  0.00    -0.296 A  
HETATM   33  C   UNL     1      -9.389   9.742  64.503  1.00  0.00    -0.298 A  
HETATM   34  C   UNL     1      -9.520  11.357  62.719  1.00  0.00    -0.314 A  
HETATM   35  C   UNL     1     -10.143  12.239  63.596  1.00  0.00    -0.369 A  
HETATM   36  C   UNL     1     -10.363  11.893  64.945  1.00  0.00    -0.328 A  
BRANCH  36  37
HETATM   37  C   UNL     1     -11.102  12.900  65.729  1.00  0.00    -0.284 C  
HETATM   38  N   UNL     1     -12.388  12.958  65.839  1.00  0.00    -0.540 NA 
HETATM   39  O   UNL     1     -12.638  14.073  66.700  1.00  0.00    -0.358 OA 
HETATM   40  C   UNL     1     -11.410  14.581  67.036  1.00  0.00    -0.349 C  
HETATM   41  N   UNL     1     -10.465  13.837  66.443  1.00  0.00    -0.281 NA 
HETATM   42  O   UNL     1     -11.213  15.561  67.740  1.00  0.00    -0.314 OA 
ENDBRANCH  36  37
ENDBRANCH  28  31
ENDBRANCH  24  25
ENDBRANCH   8  24
ENDBRANCH   3   4
ENDBRANCH   2   3
TORSDOF 10
ENDMDL
MODEL       57
REMARK 921   NORMALIZED FREE ENERGY PREDICTED BY IDOCK:   -6.09 KCAL/MOL
REMARK 922        TOTAL FREE ENERGY PREDICTED BY IDOCK:  -12.56 KCAL/MOL
REMARK 923 INTER-LIGAND FREE ENERGY PREDICTED BY IDOCK:   -9.68 KCAL/MOL
REMARK 924 INTRA-LIGAND FREE ENERGY PREDICTED BY IDOCK:   -2.88 KCAL/MOL
REMARK 927      BINDING AFFINITY PREDICTED BY RF-SCORE:    0.00 PKD
ROOT
HETATM    1  C   UNL     1     -11.019  15.159  65.290  1.00  0.00    -0.405 C  
HETATM    2  C   UNL     1     -10.943  15.445  66.780  1.00  0.00    -0.282 C  
ENDROOT
BRANCH   2   3
HETATM    3  O   UNL     1     -10.509  14.268  67.467  1.00  0.00    -0.250 OA 
BRANCH   3   4
HETATM    4  C   UNL     1     -11.165  14.031  68.604  1.00  0.00    -0.268 A  
HETATM    5  N   UNL     1     -11.495  14.938  69.486  1.00  0.00    -0.279 NA 
HETATM    6  C   UNL     1     -12.159  14.257  70.467  1.00  0.00    -0.343 A  
HETATM    7  C   UNL     1     -12.234  12.883  70.195  1.00  0.00    -0.266 A  
HETATM    8  N   UNL     1     -11.618  12.780  68.959  1.00  0.00    -0.297 NA 
HETATM    9  C   UNL     1     -12.846  11.996  71.117  1.00  0.00    -0.331 A  
HETATM   10  C   UNL     1     -13.430  12.560  72.272  1.00  0.00    -0.490 A  
HETATM   11  C   UNL     1     -12.754  14.785  71.623  1.00  0.00    -0.399 A  
HETATM   12  C   UNL     1     -13.399  13.930  72.514  1.00  0.00    -0.656 A  
BRANCH   9  13
HETATM   13  C   UNL     1     -12.997  10.537  70.903  1.00  0.00    -0.367 C  
HETATM   14  O   UNL     1     -13.652  10.052  69.997  1.00  0.00     0.288 OA 
BRANCH  13  15
HETATM   15  O   UNL     1     -12.368   9.845  71.891  1.00  0.00    -0.380 OA 
BRANCH  15  16
HETATM   16  C   UNL     1     -11.096   9.277  71.537  1.00  0.00    -0.373 C  
BRANCH  16  17
HETATM   17  C   UNL     1     -11.032   7.862  71.997  1.00  0.00    -0.274 C  
HETATM   18  O   UNL     1     -11.049   5.630  72.099  1.00  0.00    -0.247 OA 
HETATM   19  C   UNL     1     -11.206   6.750  71.316  1.00  0.00    -0.276 C  
HETATM   20  O   UNL     1     -10.771   7.587  73.329  1.00  0.00    -0.375 OA 
HETATM   21  C   UNL     1     -11.423   6.545  69.880  1.00  0.00    -0.467 C  
HETATM   22  C   UNL     1     -10.763   6.196  73.329  1.00  0.00    -0.260 C  
HETATM   23  O   UNL     1     -10.536   5.524  74.328  1.00  0.00    -0.276 OA 
ENDBRANCH  16  17
ENDBRANCH  15  16
ENDBRANCH  13  15
ENDBRANCH   9  13
BRANCH   8  24
HETATM   24  C   UNL     1     -11.616  11.656  68.037  1.00  0.00    -0.313 C  
BRANCH  24  25
HETATM   25  C   UNL     1     -10.396  10.766  68.090  1.00  0.00    -0.197 A  
HETATM   26  C   UNL     1      -9.137  11.184  68.523  1.00  0.00    -0.175 A  
HETATM   27  C   UNL     1      -9.451   8.548  67.684  1.00  0.00    -0.173 A  
HETATM   28  C   UNL     1      -8.174   8.956  68.101  1.00  0.00    -0.114 A  
HETATM   29  C   UNL     1     -10.540   9.430  67.691  1.00  0.00    -0.333 A  
HETATM   30  C   UNL     1      -8.072  10.277  68.583  1.00  0.00    -0.114 A  
BRANCH  28  31
HETATM   31  C   UNL     1      -7.005   8.019  68.112  1.00  0.00    -0.077 A  
HETATM   32  C   UNL     1      -5.709   6.326  66.863  1.00  0.00    -0.016 A  
HETATM   33  C   UNL     1      -6.590   7.413  66.898  1.00  0.00    -0.057 A  
HETATM   34  C   UNL     1      -5.150   5.853  68.038  1.00  0.00    -0.004 A  
HETATM   35  C   UNL     1      -5.445   6.493  69.237  1.00  0.00    -0.013 A  
HETATM   36  C   UNL     1      -6.345   7.577  69.283  1.00  0.00    -0.035 A  
BRANCH  36  37
HETATM   37  C   UNL     1      -6.497   8.198  70.612  1.00  0.00    -0.036 C  
HETATM   38  N   UNL     1      -5.815   9.208  71.043  1.00  0.00    -0.045 NA 
HETATM   39  O   UNL     1      -6.318   9.463  72.357  1.00  0.00    -0.297 OA 
HETATM   40  C   UNL     1      -7.305   8.537  72.577  1.00  0.00    -0.032 C  
HETATM   41  N   UNL     1      -7.419   7.770  71.483  1.00  0.00    -0.074 NA 
HETATM   42  O   UNL     1      -7.955   8.419  73.607  1.00  0.00    -0.305 OA 
ENDBRANCH  36  37
ENDBRANCH  28  31
ENDBRANCH  24  25
ENDBRANCH   8  24
ENDBRANCH   3   4
ENDBRANCH   2   3
TORSDOF 10
ENDMDL
MODEL       58
REMARK 921   NORMALIZED FREE ENERGY PREDICTED BY IDOCK:   -6.07 KCAL/MOL
REMARK 922        TOTAL FREE ENERGY PREDICTED BY IDOCK:  -12.54 KCAL/MOL
REMARK 923 INTER-LIGAND FREE ENERGY PREDICTED BY IDOCK:   -9.16 KCAL/MOL
REMARK 924 INTRA-LIGAND FREE ENERGY PREDICTED BY IDOCK:   -3.38 KCAL/MOL
REMARK 927      BINDING AFFINITY PREDICTED BY RF-SCORE:    0.00 PKD
ROOT
HETATM    1  C   UNL     1      -8.997  15.738  66.389  1.00  0.00    -0.366 C  
HETATM    2  C   UNL     1     -10.431  16.182  66.617  1.00  0.00    -0.300 C  
ENDROOT
BRANCH   2   3
HETATM    3  O   UNL     1     -11.278  15.032  66.693  1.00  0.00    -0.335 OA 
BRANCH   3   4
HETATM    4  C   UNL     1     -11.636  14.703  67.935  1.00  0.00    -0.348 A  
HETATM    5  N   UNL     1     -11.848  15.552  68.907  1.00  0.00    -0.360 NA 
HETATM    6  C   UNL     1     -12.206  14.783  69.979  1.00  0.00    -0.333 A  
HETATM    7  C   UNL     1     -12.204  13.415  69.670  1.00  0.00    -0.221 A  
HETATM    8  N   UNL     1     -11.874  13.404  68.325  1.00  0.00    -0.352 NA 
HETATM    9  C   UNL     1     -12.505  12.449  70.664  1.00  0.00    -0.320 A  
HETATM   10  C   UNL     1     -12.868  12.924  71.942  1.00  0.00    -0.315 A  
HETATM   11  C   UNL     1     -12.576  15.221  71.260  1.00  0.00    -0.449 A  
HETATM   12  C   UNL     1     -12.919  14.284  72.232  1.00  0.00    -0.460 A  
BRANCH   9  13
HETATM   13  C   UNL     1     -12.556  10.988  70.424  1.00  0.00    -0.267 C  
HETATM   14  O   UNL     1     -13.590  10.370  70.239  1.00  0.00     0.123 OA 
BRANCH  13  15
HETATM   15  O   UNL     1     -11.310  10.448  70.514  1.00  0.00    -0.310 OA 
BRANCH  15  16
HETATM   16  C   UNL     1     -11.062   9.652  71.684  1.00  0.00    -0.150 C  
BRANCH  16  17
HETATM   17  C   UNL     1     -10.963   8.216  71.303  1.00  0.00    -0.240 C  
HETATM   18  O   UNL     1     -10.729   5.994  71.331  1.00  0.00    -0.240 OA 
HETATM   19  C   UNL     1     -10.729   7.163  72.056  1.00  0.00    -0.214 C  
HETATM   20  O   UNL     1     -11.111   7.848  69.976  1.00  0.00    -0.241 OA 
HETATM   21  C   UNL     1     -10.586   7.054  73.512  1.00  0.00    -0.405 C  
HETATM   22  C   UNL     1     -10.987   6.465  70.056  1.00  0.00    -0.337 C  
HETATM   23  O   UNL     1     -11.086   5.723  69.086  1.00  0.00    -0.316 OA 
ENDBRANCH  16  17
ENDBRANCH  15  16
ENDBRANCH  13  15
ENDBRANCH   9  13
BRANCH   8  24
HETATM   24  C   UNL     1     -11.968  12.306  67.376  1.00  0.00    -0.133 C  
BRANCH  24  25
HETATM   25  C   UNL     1     -10.716  11.475  67.209  1.00  0.00    -0.286 A  
HETATM   26  C   UNL     1      -9.438  12.006  67.040  1.00  0.00    -0.199 A  
HETATM   27  C   UNL     1      -9.740   9.239  67.061  1.00  0.00    -0.241 A  
HETATM   28  C   UNL     1      -8.448   9.756  66.874  1.00  0.00    -0.120 A  
HETATM   29  C   UNL     1     -10.847  10.079  67.237  1.00  0.00    -0.284 A  
HETATM   30  C   UNL     1      -8.327  11.159  66.939  1.00  0.00    -0.147 A  
BRANCH  28  31
HETATM   31  C   UNL     1      -7.254   8.868  66.699  1.00  0.00    -0.085 A  
HETATM   32  C   UNL     1      -6.037   7.322  65.204  1.00  0.00    -0.038 A  
HETATM   33  C   UNL     1      -6.945   8.367  65.408  1.00  0.00    -0.074 A  
HETATM   34  C   UNL     1      -5.347   6.788  66.279  1.00  0.00    -0.018 A  
HETATM   35  C   UNL     1      -5.540   7.328  67.546  1.00  0.00    -0.025 A  
HETATM   36  C   UNL     1      -6.465   8.370  67.762  1.00  0.00    -0.061 A  
BRANCH  36  37
HETATM   37  C   UNL     1      -6.501   8.888  69.143  1.00  0.00    -0.043 C  
HETATM   38  N   UNL     1      -5.844   9.915  69.568  1.00  0.00    -0.037 NA 
HETATM   39  O   UNL     1      -6.205  10.043  70.946  1.00  0.00    -0.154 OA 
HETATM   40  C   UNL     1      -7.093   9.032  71.206  1.00  0.00    -0.079 C  
HETATM   41  N   UNL     1      -7.283   8.333  70.078  1.00  0.00    -0.058 NA 
HETATM   42  O   UNL     1      -7.607   8.796  72.291  1.00  0.00    -0.321 OA 
ENDBRANCH  36  37
ENDBRANCH  28  31
ENDBRANCH  24  25
ENDBRANCH   8  24
ENDBRANCH   3   4
ENDBRANCH   2   3
TORSDOF 10
ENDMDL
MODEL       59
REMARK 921   NORMALIZED FREE ENERGY PREDICTED BY IDOCK:   -6.06 KCAL/MOL
REMARK 922        TOTAL FREE ENERGY PREDICTED BY IDOCK:  -12.52 KCAL/MOL
REMARK 923 INTER-LIGAND FREE ENERGY PREDICTED BY IDOCK:   -9.90 KCAL/MOL
REMARK 924 INTRA-LIGAND FREE ENERGY PREDICTED BY IDOCK:   -2.62 KCAL/MOL
REMARK 927      BINDING AFFINITY PREDICTED BY RF-SCORE:    0.00 PKD
ROOT
HETATM    1  C   UNL     1      -5.155   8.187  71.066  1.00  0.00    -0.026 C  
HETATM    2  C   UNL     1      -5.829   9.396  71.691  1.00  0.00    -0.054 C  
ENDROOT
BRANCH   2   3
HETATM    3  O   UNL     1      -7.023   9.701  70.966  1.00  0.00    -0.277 OA 
BRANCH   3   4
HETATM    4  C   UNL     1      -8.049   8.895  71.246  1.00  0.00    -0.139 A  
HETATM    5  N   UNL     1      -8.648   8.815  72.405  1.00  0.00    -0.406 NA 
HETATM    6  C   UNL     1      -9.638   7.889  72.231  1.00  0.00    -0.195 A  
HETATM    7  C   UNL     1      -9.648   7.367  70.930  1.00  0.00    -0.166 A  
HETATM    8  N   UNL     1      -8.633   8.075  70.307  1.00  0.00    -0.131 NA 
HETATM    9  C   UNL     1     -10.574   6.357  70.563  1.00  0.00    -0.291 A  
HETATM   10  C   UNL     1     -11.516   5.956  71.534  1.00  0.00    -0.216 A  
HETATM   11  C   UNL     1     -10.593   7.470  73.171  1.00  0.00    -0.442 A  
HETATM   12  C   UNL     1     -11.537   6.513  72.809  1.00  0.00    -0.113 A  
BRANCH   9  13
HETATM   13  C   UNL     1     -10.677   5.768  69.207  1.00  0.00    -0.316 C  
HETATM   14  O   UNL     1     -11.360   6.241  68.316  1.00  0.00    -0.289 OA 
BRANCH  13  15
HETATM   15  O   UNL     1      -9.969   4.608  69.138  1.00  0.00    -0.189 OA 
BRANCH  15  16
HETATM   16  C   UNL     1      -8.731   4.680  68.411  1.00  0.00    -0.099 C  
BRANCH  16  17
HETATM   17  C   UNL     1      -9.006   4.677  66.948  1.00  0.00    -0.113 C  
HETATM   18  O   UNL     1      -8.970   5.084  64.751  1.00  0.00    -0.151 OA 
HETATM   19  C   UNL     1      -8.449   5.384  65.988  1.00  0.00    -0.123 C  
HETATM   20  O   UNL     1      -9.992   3.848  66.439  1.00  0.00    -0.166 OA 
HETATM   21  C   UNL     1      -7.324   6.324  66.038  1.00  0.00    -0.080 C  
HETATM   22  C   UNL     1      -9.905   4.118  65.077  1.00  0.00    -0.201 C  
HETATM   23  O   UNL     1     -10.600   3.561  64.235  1.00  0.00    -0.216 OA 
ENDBRANCH  16  17
ENDBRANCH  15  16
ENDBRANCH  13  15
ENDBRANCH   9  13
BRANCH   8  24
HETATM   24  C   UNL     1      -8.332   8.170  68.888  1.00  0.00    -0.125 C  
BRANCH  24  25
HETATM   25  C   UNL     1      -9.139   9.186  68.112  1.00  0.00    -0.134 A  
HETATM   26  C   UNL     1     -10.463   9.519  68.396  1.00  0.00    -0.261 A  
HETATM   27  C   UNL     1      -9.200  10.779  66.260  1.00  0.00    -0.195 A  
HETATM   28  C   UNL     1     -10.538  11.115  66.521  1.00  0.00    -0.314 A  
HETATM   29  C   UNL     1      -8.512   9.845  67.045  1.00  0.00    -0.121 A  
HETATM   30  C   UNL     1     -11.120  10.508  67.653  1.00  0.00    -0.375 A  
BRANCH  28  31
HETATM   31  C   UNL     1     -11.280  12.123  65.698  1.00  0.00    -0.381 A  
HETATM   32  C   UNL     1     -12.154  12.718  63.464  1.00  0.00    -0.642 A  
HETATM   33  C   UNL     1     -11.717  11.769  64.395  1.00  0.00    -0.301 A  
HETATM   34  C   UNL     1     -12.243  14.050  63.827  1.00  0.00    -0.250 A  
HETATM   35  C   UNL     1     -11.930  14.422  65.131  1.00  0.00    -0.391 A  
HETATM   36  C   UNL     1     -11.472  13.474  66.069  1.00  0.00    -0.345 A  
BRANCH  36  37
HETATM   37  C   UNL     1     -11.255  14.005  67.428  1.00  0.00    -0.311 C  
HETATM   38  N   UNL     1     -12.096  13.913  68.405  1.00  0.00    -0.349 NA 
HETATM   39  O   UNL     1     -11.450  14.547  69.512  1.00  0.00    -0.260 OA 
HETATM   40  C   UNL     1     -10.226  14.962  69.057  1.00  0.00    -0.243 C  
HETATM   41  N   UNL     1     -10.109  14.607  67.769  1.00  0.00    -0.227 NA 
HETATM   42  O   UNL     1      -9.392  15.574  69.710  1.00  0.00    -0.274 OA 
ENDBRANCH  36  37
ENDBRANCH  28  31
ENDBRANCH  24  25
ENDBRANCH   8  24
ENDBRANCH   3   4
ENDBRANCH   2   3
TORSDOF 10
ENDMDL
MODEL       60
REMARK 921   NORMALIZED FREE ENERGY PREDICTED BY IDOCK:   -5.97 KCAL/MOL
REMARK 922        TOTAL FREE ENERGY PREDICTED BY IDOCK:  -12.38 KCAL/MOL
REMARK 923 INTER-LIGAND FREE ENERGY PREDICTED BY IDOCK:   -9.28 KCAL/MOL
REMARK 924 INTRA-LIGAND FREE ENERGY PREDICTED BY IDOCK:   -3.10 KCAL/MOL
REMARK 927      BINDING AFFINITY PREDICTED BY RF-SCORE:    0.00 PKD
ROOT
HETATM    1  C   UNL     1     -10.081  11.039  63.513  1.00  0.00    -0.428 C  
HETATM    2  C   UNL     1      -9.239  10.479  62.380  1.00  0.00    -0.272 C  
ENDROOT
BRANCH   2   3
HETATM    3  O   UNL     1      -7.981  10.037  62.897  1.00  0.00    -0.129 OA 
BRANCH   3   4
HETATM    4  C   UNL     1      -7.956   8.747  63.235  1.00  0.00    -0.160 A  
HETATM    5  N   UNL     1      -8.205   7.752  62.424  1.00  0.00    -0.151 NA 
HETATM    6  C   UNL     1      -8.049   6.626  63.184  1.00  0.00    -0.028 A  
HETATM    7  C   UNL     1      -7.706   6.929  64.509  1.00  0.00    -0.116 A  
HETATM    8  N   UNL     1      -7.611   8.310  64.495  1.00  0.00    -0.101 NA 
HETATM    9  C   UNL     1      -7.543   5.896  65.468  1.00  0.00    -0.084 A  
HETATM   10  C   UNL     1      -7.674   4.565  65.017  1.00  0.00    -0.081 A  
HETATM   11  C   UNL     1      -8.166   5.290  62.768  1.00  0.00    -0.105 A  
HETATM   12  C   UNL     1      -7.963   4.266  63.689  1.00  0.00    -0.089 A  
BRANCH   9  13
HETATM   13  C   UNL     1      -7.155   6.118  66.881  1.00  0.00    -0.073 C  
HETATM   14  O   UNL     1      -6.004   6.280  67.247  1.00  0.00    -0.016 OA 
BRANCH  13  15
HETATM   15  O   UNL     1      -8.245   6.040  67.691  1.00  0.00    -0.108 OA 
BRANCH  15  16
HETATM   16  C   UNL     1      -8.088   6.614  68.999  1.00  0.00    -0.116 C  
BRANCH  16  17
HETATM   17  C   UNL     1      -9.356   6.473  69.766  1.00  0.00    -0.147 C  
HETATM   18  O   UNL     1     -11.496   6.217  70.358  1.00  0.00    -0.356 OA 
HETATM   19  C   UNL     1     -10.589   6.330  69.330  1.00  0.00    -0.273 C  
HETATM   20  O   UNL     1      -9.325   6.504  71.151  1.00  0.00    -0.163 OA 
HETATM   21  C   UNL     1     -11.095   6.169  67.963  1.00  0.00    -0.316 C  
HETATM   22  C   UNL     1     -10.667   6.311  71.462  1.00  0.00    -0.245 C  
HETATM   23  O   UNL     1     -11.087   6.241  72.611  1.00  0.00    -0.242 OA 
ENDBRANCH  16  17
ENDBRANCH  15  16
ENDBRANCH  13  15
ENDBRANCH   9  13
BRANCH   8  24
HETATM   24  C   UNL     1      -7.037   9.192  65.499  1.00  0.00    -0.082 C  
BRANCH  24  25
HETATM   25  C   UNL     1      -7.959   9.584  66.631  1.00  0.00    -0.108 A  
HETATM   26  C   UNL     1      -7.548  10.260  67.780  1.00  0.00    -0.089 A  
HETATM   27  C   UNL     1     -10.231   9.563  67.531  1.00  0.00    -0.283 A  
HETATM   28  C   UNL     1      -9.833  10.228  68.701  1.00  0.00    -0.180 A  
HETATM   29  C   UNL     1      -9.317   9.259  66.513  1.00  0.00    -0.231 A  
HETATM   30  C   UNL     1      -8.481  10.625  68.758  1.00  0.00    -0.149 A  
BRANCH  28  31
HETATM   31  C   UNL     1     -10.803  10.572  69.789  1.00  0.00    -0.335 A  
HETATM   32  C   UNL     1     -12.048   9.771  71.768  1.00  0.00    -0.425 A  
HETATM   33  C   UNL     1     -10.977   9.672  70.873  1.00  0.00    -0.412 A  
HETATM   34  C   UNL     1     -12.945  10.820  71.658  1.00  0.00    -0.581 A  
HETATM   35  C   UNL     1     -12.743  11.786  70.677  1.00  0.00    -0.193 A  
HETATM   36  C   UNL     1     -11.676  11.684  69.761  1.00  0.00    -0.425 A  
BRANCH  36  37
HETATM   37  C   UNL     1     -11.548  12.822  68.832  1.00  0.00    -0.316 C  
HETATM   38  N   UNL     1     -10.984  13.950  69.112  1.00  0.00    -0.241 NA 
HETATM   39  O   UNL     1     -11.083  14.723  67.912  1.00  0.00    -0.272 OA 
HETATM   40  C   UNL     1     -11.719  13.929  66.994  1.00  0.00    -0.397 C  
HETATM   41  N   UNL     1     -11.988  12.747  67.569  1.00  0.00    -0.381 NA 
HETATM   42  O   UNL     1     -12.012  14.253  65.852  1.00  0.00    -0.375 OA 
ENDBRANCH  36  37
ENDBRANCH  28  31
ENDBRANCH  24  25
ENDBRANCH   8  24
ENDBRANCH   3   4
ENDBRANCH   2   3
TORSDOF 10
ENDMDL
MODEL       61
REMARK 921   NORMALIZED FREE ENERGY PREDICTED BY IDOCK:   -5.97 KCAL/MOL
REMARK 922        TOTAL FREE ENERGY PREDICTED BY IDOCK:  -12.38 KCAL/MOL
REMARK 923 INTER-LIGAND FREE ENERGY PREDICTED BY IDOCK:   -9.73 KCAL/MOL
REMARK 924 INTRA-LIGAND FREE ENERGY PREDICTED BY IDOCK:   -2.64 KCAL/MOL
REMARK 927      BINDING AFFINITY PREDICTED BY RF-SCORE:    0.00 PKD
ROOT
HETATM    1  C   UNL     1      -5.182  10.048  70.295  1.00  0.00    -0.039 C  
HETATM    2  C   UNL     1      -5.145   8.642  69.723  1.00  0.00    -0.030 C  
ENDROOT
BRANCH   2   3
HETATM    3  O   UNL     1      -5.679   8.655  68.397  1.00  0.00    -0.037 OA 
BRANCH   3   4
HETATM    4  C   UNL     1      -6.351   7.550  68.070  1.00  0.00    -0.049 A  
HETATM    5  N   UNL     1      -5.812   6.450  67.611  1.00  0.00    -0.012 NA 
HETATM    6  C   UNL     1      -6.858   5.589  67.434  1.00  0.00    -0.060 A  
HETATM    7  C   UNL     1      -8.085   6.172  67.780  1.00  0.00    -0.113 A  
HETATM    8  N   UNL     1      -7.712   7.427  68.231  1.00  0.00    -0.118 NA 
HETATM    9  C   UNL     1      -9.297   5.452  67.624  1.00  0.00    -0.122 A  
HETATM   10  C   UNL     1      -9.207   4.117  67.174  1.00  0.00    -0.176 A  
HETATM   11  C   UNL     1      -6.804   4.257  66.993  1.00  0.00    -0.052 A  
HETATM   12  C   UNL     1      -7.983   3.524  66.880  1.00  0.00    -0.080 A  
BRANCH   9  13
HETATM   13  C   UNL     1     -10.635   5.975  67.990  1.00  0.00    -0.262 C  
HETATM   14  O   UNL     1     -11.351   6.594  67.222  1.00  0.00    -0.324 OA 
BRANCH  13  15
HETATM   15  O   UNL     1     -10.899   5.727  69.301  1.00  0.00    -0.311 OA 
BRANCH  15  16
HETATM   16  C   UNL     1     -11.727   6.699  69.961  1.00  0.00    -0.317 C  
BRANCH  16  17
HETATM   17  C   UNL     1     -11.278   6.869  71.370  1.00  0.00    -0.259 C  
HETATM   18  O   UNL     1     -10.730   7.708  73.368  1.00  0.00    -0.379 OA 
HETATM   19  C   UNL     1     -11.172   7.965  72.090  1.00  0.00    -0.307 C  
HETATM   20  O   UNL     1     -10.877   5.761  72.099  1.00  0.00    -0.225 OA 
HETATM   21  C   UNL     1     -11.550   9.346  71.772  1.00  0.00    -0.433 C  
HETATM   22  C   UNL     1     -10.580   6.333  73.331  1.00  0.00    -0.273 C  
HETATM   23  O   UNL     1     -10.206   5.684  74.301  1.00  0.00    -0.235 OA 
ENDBRANCH  16  17
ENDBRANCH  15  16
ENDBRANCH  13  15
ENDBRANCH   9  13
BRANCH   8  24
HETATM   24  C   UNL     1      -8.505   8.400  68.966  1.00  0.00    -0.123 C  
BRANCH  24  25
HETATM   25  C   UNL     1      -9.182   9.461  68.128  1.00  0.00    -0.135 A  
HETATM   26  C   UNL     1      -8.539  10.214  67.145  1.00  0.00    -0.125 A  
HETATM   27  C   UNL     1     -11.239  10.684  67.632  1.00  0.00    -0.361 A  
HETATM   28  C   UNL     1     -10.605  11.461  66.650  1.00  0.00    -0.302 A  
HETATM   29  C   UNL     1     -10.546   9.697  68.346  1.00  0.00    -0.264 A  
HETATM   30  C   UNL     1      -9.257  11.145  66.385  1.00  0.00    -0.199 A  
BRANCH  28  31
HETATM   31  C   UNL     1     -11.339  12.508  65.869  1.00  0.00    -0.380 A  
HETATM   32  C   UNL     1     -12.157  13.229  63.651  1.00  0.00    -0.551 A  
HETATM   33  C   UNL     1     -11.731  12.230  64.534  1.00  0.00    -0.421 A  
HETATM   34  C   UNL     1     -12.279  14.535  64.095  1.00  0.00    -0.372 A  
HETATM   35  C   UNL     1     -12.011  14.828  65.428  1.00  0.00    -0.209 A  
HETATM   36  C   UNL     1     -11.565  13.829  66.318  1.00  0.00    -0.369 A  
BRANCH  36  37
HETATM   37  C   UNL     1     -11.397  14.277  67.714  1.00  0.00    -0.307 C  
HETATM   38  N   UNL     1     -10.514  15.129  68.119  1.00  0.00    -0.242 NA 
HETATM   39  O   UNL     1     -10.744  15.261  69.525  1.00  0.00    -0.238 OA 
HETATM   40  C   UNL     1     -11.800  14.439  69.821  1.00  0.00    -0.320 C  
HETATM   41  N   UNL     1     -12.208  13.847  68.689  1.00  0.00    -0.288 NA 
HETATM   42  O   UNL     1     -12.274  14.260  70.934  1.00  0.00    -0.314 OA 
ENDBRANCH  36  37
ENDBRANCH  28  31
ENDBRANCH  24  25
ENDBRANCH   8  24
ENDBRANCH   3   4
ENDBRANCH   2   3
TORSDOF 10
ENDMDL
MODEL       62
REMARK 921   NORMALIZED FREE ENERGY PREDICTED BY IDOCK:   -5.95 KCAL/MOL
REMARK 922        TOTAL FREE ENERGY PREDICTED BY IDOCK:  -12.35 KCAL/MOL
REMARK 923 INTER-LIGAND FREE ENERGY PREDICTED BY IDOCK:   -9.38 KCAL/MOL
REMARK 924 INTRA-LIGAND FREE ENERGY PREDICTED BY IDOCK:   -2.97 KCAL/MOL
REMARK 927      BINDING AFFINITY PREDICTED BY RF-SCORE:    0.00 PKD
ROOT
HETATM    1  C   UNL     1      -8.960  14.471  66.789  1.00  0.00    -0.270 C  
HETATM    2  C   UNL     1      -9.832  15.631  67.236  1.00  0.00    -0.225 C  
ENDROOT
BRANCH   2   3
HETATM    3  O   UNL     1     -11.195  15.204  67.299  1.00  0.00    -0.329 OA 
BRANCH   3   4
HETATM    4  C   UNL     1     -11.591  14.828  68.516  1.00  0.00    -0.321 A  
HETATM    5  N   UNL     1     -11.837  15.640  69.511  1.00  0.00    -0.367 NA 
HETATM    6  C   UNL     1     -12.225  14.831  70.542  1.00  0.00    -0.322 A  
HETATM    7  C   UNL     1     -12.209  13.476  70.184  1.00  0.00    -0.330 A  
HETATM    8  N   UNL     1     -11.836  13.515  68.850  1.00  0.00    -0.329 NA 
HETATM    9  C   UNL     1     -12.537  12.473  71.131  1.00  0.00    -0.349 A  
HETATM   10  C   UNL     1     -12.942  12.900  72.414  1.00  0.00    -0.214 A  
HETATM   11  C   UNL     1     -12.637  15.221  71.827  1.00  0.00    -0.434 A  
HETATM   12  C   UNL     1     -13.007  14.248  72.752  1.00  0.00    -0.545 A  
BRANCH   9  13
HETATM   13  C   UNL     1     -12.574  11.021  70.836  1.00  0.00    -0.391 C  
HETATM   14  O   UNL     1     -13.560  10.444  70.412  1.00  0.00     0.049 OA 
BRANCH  13  15
HETATM   15  O   UNL     1     -11.393  10.438  71.174  1.00  0.00    -0.268 OA 
BRANCH  15  16
HETATM   16  C   UNL     1     -11.312   9.022  70.941  1.00  0.00    -0.293 C  
BRANCH  16  17
HETATM   17  C   UNL     1     -10.367   8.406  71.913  1.00  0.00    -0.283 C  
HETATM   18  O   UNL     1      -9.354   7.028  73.352  1.00  0.00    -0.144 OA 
HETATM   19  C   UNL     1     -10.441   7.250  72.538  1.00  0.00    -0.237 C  
HETATM   20  O   UNL     1      -9.221   9.091  72.282  1.00  0.00    -0.344 OA 
HETATM   21  C   UNL     1     -11.420   6.166  72.408  1.00  0.00    -0.349 C  
HETATM   22  C   UNL     1      -8.620   8.183  73.147  1.00  0.00    -0.233 C  
HETATM   23  O   UNL     1      -7.541   8.384  73.691  1.00  0.00    -0.266 OA 
ENDBRANCH  16  17
ENDBRANCH  15  16
ENDBRANCH  13  15
ENDBRANCH   9  13
BRANCH   8  24
HETATM   24  C   UNL     1     -11.896  12.453  67.859  1.00  0.00    -0.308 C  
BRANCH  24  25
HETATM   25  C   UNL     1     -10.852  11.368  67.998  1.00  0.00    -0.264 A  
HETATM   26  C   UNL     1      -9.643  11.523  68.674  1.00  0.00    -0.159 A  
HETATM   27  C   UNL     1     -10.195   9.072  67.477  1.00  0.00    -0.302 A  
HETATM   28  C   UNL     1      -8.966   9.215  68.140  1.00  0.00    -0.129 A  
HETATM   29  C   UNL     1     -11.123  10.120  67.418  1.00  0.00    -0.219 A  
HETATM   30  C   UNL     1      -8.754  10.447  68.793  1.00  0.00    -0.146 A  
BRANCH  28  31
HETATM   31  C   UNL     1      -7.973   8.097  68.223  1.00  0.00    -0.123 A  
HETATM   32  C   UNL     1      -6.789   6.497  69.688  1.00  0.00    -0.065 A  
HETATM   33  C   UNL     1      -7.865   7.353  69.427  1.00  0.00    -0.122 A  
HETATM   34  C   UNL     1      -5.818   6.295  68.722  1.00  0.00    -0.020 A  
HETATM   35  C   UNL     1      -5.948   6.920  67.486  1.00  0.00    -0.028 A  
HETATM   36  C   UNL     1      -7.021   7.797  67.222  1.00  0.00    -0.078 A  
BRANCH  36  37
HETATM   37  C   UNL     1      -7.064   8.321  65.844  1.00  0.00    -0.071 C  
HETATM   38  N   UNL     1      -6.412   9.353  65.421  1.00  0.00    -0.068 NA 
HETATM   39  O   UNL     1      -6.749   9.464  64.036  1.00  0.00    -0.090 OA 
HETATM   40  C   UNL     1      -7.602   8.426  63.764  1.00  0.00    -0.135 C  
HETATM   41  N   UNL     1      -7.777   7.715  64.887  1.00  0.00    -0.100 NA 
HETATM   42  O   UNL     1      -8.131   8.202  62.684  1.00  0.00    -0.159 OA 
ENDBRANCH  36  37
ENDBRANCH  28  31
ENDBRANCH  24  25
ENDBRANCH   8  24
ENDBRANCH   3   4
ENDBRANCH   2   3
TORSDOF 10
ENDMDL
MODEL       63
REMARK 921   NORMALIZED FREE ENERGY PREDICTED BY IDOCK:   -5.94 KCAL/MOL
REMARK 922        TOTAL FREE ENERGY PREDICTED BY IDOCK:  -12.34 KCAL/MOL
REMARK 923 INTER-LIGAND FREE ENERGY PREDICTED BY IDOCK:  -10.52 KCAL/MOL
REMARK 924 INTRA-LIGAND FREE ENERGY PREDICTED BY IDOCK:   -1.82 KCAL/MOL
REMARK 927      BINDING AFFINITY PREDICTED BY RF-SCORE:    0.00 PKD
ROOT
HETATM    1  C   UNL     1     -11.885  11.945  69.981  1.00  0.00    -0.407 C  
HETATM    2  C   UNL     1     -12.235  13.411  69.793  1.00  0.00    -0.245 C  
ENDROOT
BRANCH   2   3
HETATM    3  O   UNL     1     -11.339  13.996  68.845  1.00  0.00    -0.248 OA 
BRANCH   3   4
HETATM    4  C   UNL     1     -11.362  13.414  67.645  1.00  0.00    -0.290 A  
HETATM    5  N   UNL     1     -12.362  13.464  66.804  1.00  0.00    -0.296 NA 
HETATM    6  C   UNL     1     -11.946  12.753  65.713  1.00  0.00    -0.449 A  
HETATM    7  C   UNL     1     -10.655  12.234  65.884  1.00  0.00    -0.256 A  
HETATM    8  N   UNL     1     -10.290  12.721  67.129  1.00  0.00    -0.232 NA 
HETATM    9  C   UNL     1     -10.060  11.428  64.880  1.00  0.00    -0.323 A  
HETATM   10  C   UNL     1     -10.791  11.231  63.689  1.00  0.00    -0.410 A  
HETATM   11  C   UNL     1     -12.643  12.541  64.514  1.00  0.00    -0.503 A  
HETATM   12  C   UNL     1     -12.052  11.789  63.501  1.00  0.00    -0.485 A  
BRANCH   9  13
HETATM   13  C   UNL     1      -8.693  10.862  64.960  1.00  0.00    -0.101 C  
HETATM   14  O   UNL     1      -7.828  11.067  64.128  1.00  0.00     0.302 OA 
BRANCH  13  15
HETATM   15  O   UNL     1      -8.582  10.040  66.039  1.00  0.00    -0.133 OA 
BRANCH  15  16
HETATM   16  C   UNL     1      -9.618   9.053  66.176  1.00  0.00    -0.272 C  
BRANCH  16  17
HETATM   17  C   UNL     1      -9.817   8.729  67.615  1.00  0.00    -0.180 C  
HETATM   18  O   UNL     1     -10.420   7.770  69.542  1.00  0.00    -0.219 OA 
HETATM   19  C   UNL     1     -10.482   7.737  68.168  1.00  0.00    -0.176 C  
HETATM   20  O   UNL     1      -9.267   9.552  68.584  1.00  0.00    -0.134 OA 
HETATM   21  C   UNL     1     -11.155   6.590  67.550  1.00  0.00    -0.396 C  
HETATM   22  C   UNL     1      -9.644   8.897  69.752  1.00  0.00    -0.171 C  
HETATM   23  O   UNL     1      -9.330   9.283  70.871  1.00  0.00    -0.251 OA 
ENDBRANCH  16  17
ENDBRANCH  15  16
ENDBRANCH  13  15
ENDBRANCH   9  13
BRANCH   8  24
HETATM   24  C   UNL     1      -8.973  12.743  67.745  1.00  0.00    -0.190 C  
BRANCH  24  25
HETATM   25  C   UNL     1      -8.421  14.114  68.062  1.00  0.00    -0.171 A  
HETATM   26  C   UNL     1      -7.957  14.501  69.319  1.00  0.00     0.007 A  
HETATM   27  C   UNL     1      -7.888  16.354  67.243  1.00  0.00    -0.195 A  
HETATM   28  C   UNL     1      -7.432  16.766  68.505  1.00  0.00    -0.213 A  
HETATM   29  C   UNL     1      -8.360  15.053  67.023  1.00  0.00    -0.254 A  
HETATM   30  C   UNL     1      -7.417  15.779  69.512  1.00  0.00    -0.181 A  
BRANCH  28  31
HETATM   31  C   UNL     1      -6.911  18.150  68.749  1.00  0.00    -0.264 A  
HETATM   32  C   UNL     1      -5.137  19.533  69.772  1.00  0.00    -0.203 A  
HETATM   33  C   UNL     1      -5.595  18.317  69.253  1.00  0.00    -0.210 A  
HETATM   34  C   UNL     1      -5.954  20.650  69.735  1.00  0.00    -0.277 A  
HETATM   35  C   UNL     1      -7.211  20.554  69.146  1.00  0.00     0.328 A  
HETATM   36  C   UNL     1      -7.686  19.327  68.637  1.00  0.00    -0.394 A  
BRANCH  36  37
HETATM   37  C   UNL     1      -9.002  19.402  67.976  1.00  0.00    -0.322 C  
HETATM   38  N   UNL     1     -10.141  19.280  68.573  1.00  0.00    -0.418 NA 
HETATM   39  O   UNL     1     -11.120  19.441  67.542  1.00  0.00    -0.417 OA 
HETATM   40  C   UNL     1     -10.424  19.662  66.382  1.00  0.00    -0.513 C  
HETATM   41  N   UNL     1      -9.113  19.653  66.665  1.00  0.00    -0.343 NA 
HETATM   42  O   UNL     1     -10.917  19.819  65.274  1.00  0.00    -0.410 OA 
ENDBRANCH  36  37
ENDBRANCH  28  31
ENDBRANCH  24  25
ENDBRANCH   8  24
ENDBRANCH   3   4
ENDBRANCH   2   3
TORSDOF 10
ENDMDL
MODEL       64
REMARK 921   NORMALIZED FREE ENERGY PREDICTED BY IDOCK:   -5.94 KCAL/MOL
REMARK 922        TOTAL FREE ENERGY PREDICTED BY IDOCK:  -12.34 KCAL/MOL
REMARK 923 INTER-LIGAND FREE ENERGY PREDICTED BY IDOCK:  -10.00 KCAL/MOL
REMARK 924 INTRA-LIGAND FREE ENERGY PREDICTED BY IDOCK:   -2.34 KCAL/MOL
REMARK 927      BINDING AFFINITY PREDICTED BY RF-SCORE:    0.00 PKD
ROOT
HETATM    1  C   UNL     1     -11.155   3.975  73.526  1.00  0.00    -0.350 C  
HETATM    2  C   UNL     1     -11.080   5.464  73.237  1.00  0.00    -0.297 C  
ENDROOT
BRANCH   2   3
HETATM    3  O   UNL     1     -11.691   5.734  71.973  1.00  0.00    -0.234 OA 
BRANCH   3   4
HETATM    4  C   UNL     1     -11.845   7.032  71.710  1.00  0.00    -0.312 A  
HETATM    5  N   UNL     1     -12.784   7.794  72.210  1.00  0.00    -0.177 NA 
HETATM    6  C   UNL     1     -12.550   9.035  71.687  1.00  0.00    -0.348 A  
HETATM    7  C   UNL     1     -11.442   9.045  70.828  1.00  0.00    -0.282 A  
HETATM    8  N   UNL     1     -10.984   7.740  70.902  1.00  0.00    -0.246 NA 
HETATM    9  C   UNL     1     -11.062  10.231  70.150  1.00  0.00    -0.385 A  
HETATM   10  C   UNL     1     -11.800  11.402  70.429  1.00  0.00    -0.428 A  
HETATM   11  C   UNL     1     -13.258  10.219  71.945  1.00  0.00    -0.550 A  
HETATM   12  C   UNL     1     -12.867  11.402  71.322  1.00  0.00    -0.481 A  
BRANCH   9  13
HETATM   13  C   UNL     1      -9.893  10.343  69.247  1.00  0.00    -0.225 C  
HETATM   14  O   UNL     1      -8.740  10.383  69.639  1.00  0.00    -0.146 OA 
BRANCH  13  15
HETATM   15  O   UNL     1     -10.300  10.467  67.955  1.00  0.00    -0.162 OA 
BRANCH  15  16
HETATM   16  C   UNL     1      -9.698  11.542  67.215  1.00  0.00    -0.182 C  
BRANCH  16  17
HETATM   17  C   UNL     1     -10.695  12.627  67.003  1.00  0.00    -0.245 C  
HETATM   18  O   UNL     1     -11.964  14.454  67.213  1.00  0.00    -0.399 OA 
HETATM   19  C   UNL     1     -10.985  13.660  67.764  1.00  0.00    -0.259 C  
HETATM   20  O   UNL     1     -11.490  12.614  65.869  1.00  0.00    -0.326 OA 
HETATM   21  C   UNL     1     -10.360  14.124  69.007  1.00  0.00    -0.159 C  
HETATM   22  C   UNL     1     -12.231  13.779  66.036  1.00  0.00    -0.457 C  
HETATM   23  O   UNL     1     -13.058  14.173  65.222  1.00  0.00    -0.763 OA 
ENDBRANCH  16  17
ENDBRANCH  15  16
ENDBRANCH  13  15
ENDBRANCH   9  13
BRANCH   8  24
HETATM   24  C   UNL     1      -9.717   7.195  70.441  1.00  0.00    -0.176 C  
BRANCH  24  25
HETATM   25  C   UNL     1      -9.723   6.612  69.046  1.00  0.00    -0.142 A  
HETATM   26  C   UNL     1     -10.785   6.730  68.151  1.00  0.00    -0.295 A  
HETATM   27  C   UNL     1      -8.519   5.325  67.353  1.00  0.00    -0.106 A  
HETATM   28  C   UNL     1      -9.584   5.419  66.444  1.00  0.00    -0.172 A  
HETATM   29  C   UNL     1      -8.581   5.918  68.621  1.00  0.00    -0.110 A  
HETATM   30  C   UNL     1     -10.685   6.197  66.859  1.00  0.00    -0.413 A  
BRANCH  28  31
HETATM   31  C   UNL     1      -9.523   4.801  65.081  1.00  0.00    -0.114 A  
HETATM   32  C   UNL     1     -10.317   2.986  63.604  1.00  0.00    -0.209 A  
HETATM   33  C   UNL     1     -10.471   3.806  64.727  1.00  0.00    -0.100 A  
HETATM   34  C   UNL     1      -9.246   3.182  62.749  1.00  0.00    -0.091 A  
HETATM   35  C   UNL     1      -8.356   4.221  63.001  1.00  0.00    -0.093 A  
HETATM   36  C   UNL     1      -8.495   5.040  64.140  1.00  0.00    -0.136 A  
BRANCH  36  37
HETATM   37  C   UNL     1      -7.522   6.145  64.229  1.00  0.00    -0.080 C  
HETATM   38  N   UNL     1      -6.256   6.003  64.444  1.00  0.00    -0.029 NA 
HETATM   39  O   UNL     1      -5.725   7.331  64.426  1.00  0.00    -0.032 OA 
HETATM   40  C   UNL     1      -6.785   8.165  64.180  1.00  0.00    -0.066 C  
HETATM   41  N   UNL     1      -7.890   7.418  64.043  1.00  0.00    -0.130 NA 
HETATM   42  O   UNL     1      -6.732   9.386  64.120  1.00  0.00    -0.090 OA 
ENDBRANCH  36  37
ENDBRANCH  28  31
ENDBRANCH  24  25
ENDBRANCH   8  24
ENDBRANCH   3   4
ENDBRANCH   2   3
TORSDOF 10
ENDMDL
MODEL       65
REMARK 921   NORMALIZED FREE ENERGY PREDICTED BY IDOCK:   -5.93 KCAL/MOL
REMARK 922        TOTAL FREE ENERGY PREDICTED BY IDOCK:  -12.31 KCAL/MOL
REMARK 923 INTER-LIGAND FREE ENERGY PREDICTED BY IDOCK:   -9.24 KCAL/MOL
REMARK 924 INTRA-LIGAND FREE ENERGY PREDICTED BY IDOCK:   -3.07 KCAL/MOL
REMARK 927      BINDING AFFINITY PREDICTED BY RF-SCORE:    0.00 PKD
ROOT
HETATM    1  C   UNL     1      -8.378   5.172  70.254  1.00  0.00    -0.097 C  
HETATM    2  C   UNL     1      -8.008   4.504  68.941  1.00  0.00    -0.074 C  
ENDROOT
BRANCH   2   3
HETATM    3  O   UNL     1      -7.074   5.326  68.236  1.00  0.00    -0.060 OA 
BRANCH   3   4
HETATM    4  C   UNL     1      -7.317   5.425  66.929  1.00  0.00    -0.083 A  
HETATM    5  N   UNL     1      -7.616   4.425  66.141  1.00  0.00    -0.085 NA 
HETATM    6  C   UNL     1      -7.796   4.985  64.908  1.00  0.00    -0.091 A  
HETATM    7  C   UNL     1      -7.592   6.372  64.924  1.00  0.00    -0.093 A  
HETATM    8  N   UNL     1      -7.327   6.628  66.259  1.00  0.00    -0.072 NA 
HETATM    9  C   UNL     1      -7.688   7.132  63.730  1.00  0.00    -0.119 A  
HETATM   10  C   UNL     1      -8.062   6.447  62.554  1.00  0.00    -0.088 A  
HETATM   11  C   UNL     1      -8.171   4.337  63.720  1.00  0.00    -0.096 A  
HETATM   12  C   UNL     1      -8.315   5.079  62.550  1.00  0.00    -0.102 A  
BRANCH   9  13
HETATM   13  C   UNL     1      -7.517   8.602  63.656  1.00  0.00    -0.110 C  
HETATM   14  O   UNL     1      -6.459   9.169  63.866  1.00  0.00    -0.087 OA 
BRANCH  13  15
HETATM   15  O   UNL     1      -8.708   9.206  63.398  1.00  0.00    -0.201 OA 
BRANCH  15  16
HETATM   16  C   UNL     1      -8.648  10.625  63.174  1.00  0.00    -0.166 C  
BRANCH  16  17
HETATM   17  C   UNL     1      -9.840  11.280  63.779  1.00  0.00    -0.322 C  
HETATM   18  O   UNL     1     -11.316  12.173  65.200  1.00  0.00    -0.317 OA 
HETATM   19  C   UNL     1     -10.107  11.535  65.042  1.00  0.00    -0.270 C  
HETATM   20  O   UNL     1     -10.878  11.699  62.963  1.00  0.00    -0.234 OA 
HETATM   21  C   UNL     1      -9.283  11.344  66.240  1.00  0.00    -0.220 C  
HETATM   22  C   UNL     1     -11.746  12.269  63.888  1.00  0.00    -0.451 C  
HETATM   23  O   UNL     1     -12.805  12.802  63.578  1.00  0.00    -0.693 OA 
ENDBRANCH  16  17
ENDBRANCH  15  16
ENDBRANCH  13  15
ENDBRANCH   9  13
BRANCH   8  24
HETATM   24  C   UNL     1      -7.289   7.908  66.948  1.00  0.00    -0.090 C  
BRANCH  24  25
HETATM   25  C   UNL     1      -8.411   8.158  67.930  1.00  0.00    -0.129 A  
HETATM   26  C   UNL     1      -9.712   7.683  67.773  1.00  0.00    -0.180 A  
HETATM   27  C   UNL     1      -9.112   9.205  70.025  1.00  0.00    -0.207 A  
HETATM   28  C   UNL     1     -10.430   8.748  69.876  1.00  0.00    -0.227 A  
HETATM   29  C   UNL     1      -8.121   8.906  69.080  1.00  0.00    -0.117 A  
HETATM   30  C   UNL     1     -10.678   7.923  68.759  1.00  0.00    -0.082 A  
BRANCH  28  31
HETATM   31  C   UNL     1     -11.495   9.049  70.886  1.00  0.00    -0.347 A  
HETATM   32  C   UNL     1     -12.919   8.167  72.703  1.00  0.00     0.023 A  
HETATM   33  C   UNL     1     -11.771   8.101  71.906  1.00  0.00    -0.362 A  
HETATM   34  C   UNL     1     -13.797   9.228  72.562  1.00  0.00    -0.453 A  
HETATM   35  C   UNL     1     -13.503  10.237  71.650  1.00  0.00    -0.360 A  
HETATM   36  C   UNL     1     -12.357  10.169  70.831  1.00  0.00    -0.461 A  
BRANCH  36  37
HETATM   37  C   UNL     1     -12.140  11.348  69.972  1.00  0.00    -0.340 C  
HETATM   38  N   UNL     1     -12.154  11.338  68.680  1.00  0.00    -0.570 NA 
HETATM   39  O   UNL     1     -11.919  12.696  68.296  1.00  0.00    -0.320 OA 
HETATM   40  C   UNL     1     -11.794  13.409  69.460  1.00  0.00    -0.332 C  
HETATM   41  N   UNL     1     -11.949  12.567  70.492  1.00  0.00    -0.279 NA 
HETATM   42  O   UNL     1     -11.557  14.606  69.541  1.00  0.00    -0.275 OA 
ENDBRANCH  36  37
ENDBRANCH  28  31
ENDBRANCH  24  25
ENDBRANCH   8  24
ENDBRANCH   3   4
ENDBRANCH   2   3
TORSDOF 10
ENDMDL
MODEL       66
REMARK 921   NORMALIZED FREE ENERGY PREDICTED BY IDOCK:   -5.92 KCAL/MOL
REMARK 922        TOTAL FREE ENERGY PREDICTED BY IDOCK:  -12.30 KCAL/MOL
REMARK 923 INTER-LIGAND FREE ENERGY PREDICTED BY IDOCK:  -10.39 KCAL/MOL
REMARK 924 INTRA-LIGAND FREE ENERGY PREDICTED BY IDOCK:   -1.91 KCAL/MOL
REMARK 927      BINDING AFFINITY PREDICTED BY RF-SCORE:    0.00 PKD
ROOT
HETATM    1  C   UNL     1      -6.085  18.336  65.611  1.00  0.00    -0.276 C  
HETATM    2  C   UNL     1      -7.451  17.842  66.054  1.00  0.00    -0.244 C  
ENDROOT
BRANCH   2   3
HETATM    3  O   UNL     1      -7.409  16.424  66.231  1.00  0.00    -0.139 OA 
BRANCH   3   4
HETATM    4  C   UNL     1      -8.607  15.839  66.208  1.00  0.00    -0.272 A  
HETATM    5  N   UNL     1      -9.456  15.901  65.215  1.00  0.00    -0.233 NA 
HETATM    6  C   UNL     1     -10.527  15.151  65.614  1.00  0.00    -0.359 A  
HETATM    7  C   UNL     1     -10.346  14.617  66.898  1.00  0.00    -0.264 A  
HETATM    8  N   UNL     1      -9.072  15.046  67.233  1.00  0.00    -0.193 NA 
HETATM    9  C   UNL     1     -11.366  13.844  67.510  1.00  0.00    -0.342 A  
HETATM   10  C   UNL     1     -12.527  13.585  66.751  1.00  0.00    -0.213 A  
HETATM   11  C   UNL     1     -11.693  14.869  64.886  1.00  0.00    -0.371 A  
HETATM   12  C   UNL     1     -12.683  14.073  65.458  1.00  0.00    -0.517 A  
BRANCH   9  13
HETATM   13  C   UNL     1     -11.253  13.217  68.848  1.00  0.00    -0.277 C  
HETATM   14  O   UNL     1     -11.350  12.018  69.041  1.00  0.00    -0.236 OA 
BRANCH  13  15
HETATM   15  O   UNL     1     -11.104  14.169  69.808  1.00  0.00    -0.201 OA 
BRANCH  15  16
HETATM   16  C   UNL     1     -12.270  14.965  70.078  1.00  0.00    -0.333 C  
BRANCH  16  17
HETATM   17  C   UNL     1     -12.445  15.118  71.549  1.00  0.00    -0.350 C  
HETATM   18  O   UNL     1     -12.922  14.781  73.706  1.00  0.00    -0.508 OA 
HETATM   19  C   UNL     1     -12.944  14.275  72.427  1.00  0.00    -0.393 C  
HETATM   20  O   UNL     1     -12.066  16.301  72.163  1.00  0.00    -0.496 OA 
HETATM   21  C   UNL     1     -13.398  12.891  72.256  1.00  0.00    -0.597 C  
HETATM   22  C   UNL     1     -12.354  16.025  73.496  1.00  0.00    -0.562 C  
HETATM   23  O   UNL     1     -12.138  16.814  74.408  1.00  0.00    -0.509 OA 
ENDBRANCH  16  17
ENDBRANCH  15  16
ENDBRANCH  13  15
ENDBRANCH   9  13
BRANCH   8  24
HETATM   24  C   UNL     1      -8.223  14.601  68.326  1.00  0.00    -0.146 C  
BRANCH  24  25
HETATM   25  C   UNL     1      -7.873  13.131  68.329  1.00  0.00    -0.143 A  
HETATM   26  C   UNL     1      -8.360  12.206  67.405  1.00  0.00    -0.174 A  
HETATM   27  C   UNL     1      -6.640  11.314  69.404  1.00  0.00    -0.116 A  
HETATM   28  C   UNL     1      -7.133  10.367  68.492  1.00  0.00    -0.074 A  
HETATM   29  C   UNL     1      -6.992  12.668  69.316  1.00  0.00     0.040 A  
HETATM   30  C   UNL     1      -7.945  10.870  67.455  1.00  0.00    -0.113 A  
BRANCH  28  31
HETATM   31  C   UNL     1      -6.752   8.920  68.567  1.00  0.00    -0.060 A  
HETATM   32  C   UNL     1      -5.593   7.035  67.466  1.00  0.00    -0.024 A  
HETATM   33  C   UNL     1      -5.793   8.407  67.655  1.00  0.00    -0.043 A  
HETATM   34  C   UNL     1      -6.293   6.124  68.238  1.00  0.00    -0.043 A  
HETATM   35  C   UNL     1      -7.160   6.589  69.221  1.00  0.00    -0.084 A  
HETATM   36  C   UNL     1      -7.379   7.970  69.406  1.00  0.00    -0.080 A  
BRANCH  36  37
HETATM   37  C   UNL     1      -8.266   8.309  70.535  1.00  0.00    -0.114 C  
HETATM   38  N   UNL     1      -7.901   8.370  71.773  1.00  0.00    -0.117 NA 
HETATM   39  O   UNL     1      -9.080   8.748  72.489  1.00  0.00    -0.367 OA 
HETATM   40  C   UNL     1     -10.070   8.890  71.552  1.00  0.00    -0.324 C  
HETATM   41  N   UNL     1      -9.551   8.632  70.343  1.00  0.00    -0.168 NA 
HETATM   42  O   UNL     1     -11.235   9.181  71.785  1.00  0.00    -0.355 OA 
ENDBRANCH  36  37
ENDBRANCH  28  31
ENDBRANCH  24  25
ENDBRANCH   8  24
ENDBRANCH   3   4
ENDBRANCH   2   3
TORSDOF 10
ENDMDL
MODEL       67
REMARK 921   NORMALIZED FREE ENERGY PREDICTED BY IDOCK:   -5.91 KCAL/MOL
REMARK 922        TOTAL FREE ENERGY PREDICTED BY IDOCK:  -12.28 KCAL/MOL
REMARK 923 INTER-LIGAND FREE ENERGY PREDICTED BY IDOCK:  -10.16 KCAL/MOL
REMARK 924 INTRA-LIGAND FREE ENERGY PREDICTED BY IDOCK:   -2.12 KCAL/MOL
REMARK 927      BINDING AFFINITY PREDICTED BY RF-SCORE:    0.00 PKD
ROOT
HETATM    1  C   UNL     1      -9.352  10.710  62.645  1.00  0.00    -0.332 C  
HETATM    2  C   UNL     1     -10.442  10.893  63.687  1.00  0.00    -0.232 C  
ENDROOT
BRANCH   2   3
HETATM    3  O   UNL     1      -9.858  11.349  64.910  1.00  0.00    -0.240 OA 
BRANCH   3   4
HETATM    4  C   UNL     1      -9.971  12.663  65.108  1.00  0.00    -0.174 A  
HETATM    5  N   UNL     1     -10.762  13.460  64.438  1.00  0.00    -0.414 NA 
HETATM    6  C   UNL     1     -10.565  14.698  64.983  1.00  0.00    -0.439 A  
HETATM    7  C   UNL     1      -9.615  14.674  66.014  1.00  0.00    -0.290 A  
HETATM    8  N   UNL     1      -9.285  13.332  66.097  1.00  0.00    -0.062 NA 
HETATM    9  C   UNL     1      -9.237  15.870  66.677  1.00  0.00    -0.280 A  
HETATM   10  C   UNL     1      -9.903  17.057  66.303  1.00  0.00    -0.310 A  
HETATM   11  C   UNL     1     -11.210  15.896  64.639  1.00  0.00    -0.361 A  
HETATM   12  C   UNL     1     -10.882  17.069  65.315  1.00  0.00    -0.079 A  
BRANCH   9  13
HETATM   13  C   UNL     1      -8.266  15.938  67.794  1.00  0.00    -0.146 C  
HETATM   14  O   UNL     1      -7.077  15.705  67.669  1.00  0.00    -0.135 OA 
BRANCH  13  15
HETATM   15  O   UNL     1      -8.904  16.220  68.962  1.00  0.00    -0.238 OA 
BRANCH  15  16
HETATM   16  C   UNL     1      -9.395  15.083  69.690  1.00  0.00    -0.001 C  
BRANCH  16  17
HETATM   17  C   UNL     1     -10.744  15.384  70.243  1.00  0.00    -0.298 C  
HETATM   18  O   UNL     1     -12.942  15.693  70.508  1.00  0.00    -0.429 OA 
HETATM   19  C   UNL     1     -11.918  15.365  69.649  1.00  0.00    -0.343 C  
HETATM   20  O   UNL     1     -10.871  15.767  71.568  1.00  0.00    -0.067 OA 
HETATM   21  C   UNL     1     -12.283  14.952  68.290  1.00  0.00    -0.015 C  
HETATM   22  C   UNL     1     -12.249  15.914  71.685  1.00  0.00    -0.479 C  
HETATM   23  O   UNL     1     -12.807  16.224  72.731  1.00  0.00    -0.400 OA 
ENDBRANCH  16  17
ENDBRANCH  15  16
ENDBRANCH  13  15
ENDBRANCH   9  13
BRANCH   8  24
HETATM   24  C   UNL     1      -8.549  12.641  67.144  1.00  0.00    -0.199 C  
BRANCH  24  25
HETATM   25  C   UNL     1      -9.381  11.799  68.084  1.00  0.00    -0.190 A  
HETATM   26  C   UNL     1      -8.858  10.841  68.952  1.00  0.00    -0.154 A  
HETATM   27  C   UNL     1     -11.612  11.240  68.912  1.00  0.00    -0.386 A  
HETATM   28  C   UNL     1     -11.104  10.262  69.781  1.00  0.00    -0.340 A  
HETATM   29  C   UNL     1     -10.769  12.001  68.091  1.00  0.00    -0.246 A  
HETATM   30  C   UNL     1      -9.700  10.138  69.822  1.00  0.00    -0.232 A  
BRANCH  28  31
HETATM   31  C   UNL     1     -11.995   9.453  70.674  1.00  0.00    -0.232 A  
HETATM   32  C   UNL     1     -13.724   9.489  72.439  1.00  0.00    -0.408 A  
HETATM   33  C   UNL     1     -13.039  10.101  71.384  1.00  0.00    -0.512 A  
HETATM   34  C   UNL     1     -13.441   8.176  72.776  1.00  0.00     0.254 A  
HETATM   35  C   UNL     1     -12.501   7.471  72.031  1.00  0.00    -0.289 A  
HETATM   36  C   UNL     1     -11.795   8.086  70.977  1.00  0.00    -0.280 A  
BRANCH  36  37
HETATM   37  C   UNL     1     -10.891   7.189  70.233  1.00  0.00    -0.249 C  
HETATM   38  N   UNL     1      -9.725   6.807  70.638  1.00  0.00    -0.172 NA 
HETATM   39  O   UNL     1      -9.239   5.942  69.607  1.00  0.00    -0.134 OA 
HETATM   40  C   UNL     1     -10.222   5.890  68.654  1.00  0.00    -0.192 C  
HETATM   41  N   UNL     1     -11.248   6.652  69.059  1.00  0.00    -0.252 NA 
HETATM   42  O   UNL     1     -10.162   5.270  67.601  1.00  0.00    -0.183 OA 
ENDBRANCH  36  37
ENDBRANCH  28  31
ENDBRANCH  24  25
ENDBRANCH   8  24
ENDBRANCH   3   4
ENDBRANCH   2   3
TORSDOF 10
ENDMDL
MODEL       68
REMARK 921   NORMALIZED FREE ENERGY PREDICTED BY IDOCK:   -5.91 KCAL/MOL
REMARK 922        TOTAL FREE ENERGY PREDICTED BY IDOCK:  -12.28 KCAL/MOL
REMARK 923 INTER-LIGAND FREE ENERGY PREDICTED BY IDOCK:   -8.93 KCAL/MOL
REMARK 924 INTRA-LIGAND FREE ENERGY PREDICTED BY IDOCK:   -3.35 KCAL/MOL
REMARK 927      BINDING AFFINITY PREDICTED BY RF-SCORE:    0.00 PKD
ROOT
HETATM    1  C   UNL     1      -5.804   8.563  73.703  1.00  0.00    -0.113 C  
HETATM    2  C   UNL     1      -7.081   8.483  74.520  1.00  0.00    -0.167 C  
ENDROOT
BRANCH   2   3
HETATM    3  O   UNL     1      -8.207   8.448  73.640  1.00  0.00    -0.325 OA 
BRANCH   3   4
HETATM    4  C   UNL     1      -8.751   7.239  73.502  1.00  0.00    -0.159 A  
HETATM    5  N   UNL     1      -9.634   6.715  74.312  1.00  0.00    -0.243 NA 
HETATM    6  C   UNL     1      -9.920   5.488  73.781  1.00  0.00    -0.189 A  
HETATM    7  C   UNL     1      -9.184   5.235  72.614  1.00  0.00    -0.134 A  
HETATM    8  N   UNL     1      -8.472   6.410  72.439  1.00  0.00    -0.120 NA 
HETATM    9  C   UNL     1      -9.306   3.994  71.937  1.00  0.00    -0.192 A  
HETATM   10  C   UNL     1     -10.239   3.066  72.446  1.00  0.00    -0.200 A  
HETATM   11  C   UNL     1     -10.843   4.543  74.257  1.00  0.00    -0.194 A  
HETATM   12  C   UNL     1     -11.006   3.340  73.575  1.00  0.00    -0.324 A  
BRANCH   9  13
HETATM   13  C   UNL     1      -8.592   3.650  70.685  1.00  0.00    -0.071 C  
HETATM   14  O   UNL     1      -7.430   3.287  70.649  1.00  0.00    -0.040 OA 
BRANCH  13  15
HETATM   15  O   UNL     1      -9.393   3.867  69.607  1.00  0.00    -0.142 OA 
BRANCH  15  16
HETATM   16  C   UNL     1      -8.822   3.529  68.332  1.00  0.00    -0.117 C  
BRANCH  16  17
HETATM   17  C   UNL     1      -8.512   4.772  67.574  1.00  0.00    -0.104 C  
HETATM   18  O   UNL     1      -8.596   6.530  66.196  1.00  0.00    -0.134 OA 
HETATM   19  C   UNL     1      -9.220   5.393  66.655  1.00  0.00    -0.132 C  
HETATM   20  O   UNL     1      -7.312   5.427  67.795  1.00  0.00    -0.071 OA 
HETATM   21  C   UNL     1     -10.572   5.116  66.156  1.00  0.00    -0.293 C  
HETATM   22  C   UNL     1      -7.431   6.520  66.942  1.00  0.00    -0.084 C  
HETATM   23  O   UNL     1      -6.578   7.394  66.846  1.00  0.00    -0.053 OA 
ENDBRANCH  16  17
ENDBRANCH  15  16
ENDBRANCH  13  15
ENDBRANCH   9  13
BRANCH   8  24
HETATM   24  C   UNL     1      -7.733   6.857  71.270  1.00  0.00    -0.092 C  
BRANCH  24  25
HETATM   25  C   UNL     1      -8.503   7.725  70.300  1.00  0.00    -0.133 A  
HETATM   26  C   UNL     1      -9.726   7.371  69.731  1.00  0.00    -0.170 A  
HETATM   27  C   UNL     1      -8.596   9.821  69.047  1.00  0.00    -0.146 A  
HETATM   28  C   UNL     1      -9.819   9.475  68.452  1.00  0.00    -0.175 A  
HETATM   29  C   UNL     1      -7.958   8.971  69.960  1.00  0.00    -0.113 A  
HETATM   30  C   UNL     1     -10.392   8.259  68.877  1.00  0.00    -0.230 A  
BRANCH  28  31
HETATM   31  C   UNL     1     -10.518  10.382  67.486  1.00  0.00    -0.292 A  
HETATM   32  C   UNL     1     -10.659  11.195  65.156  1.00  0.00    -0.319 A  
HETATM   33  C   UNL     1     -10.282  10.228  66.095  1.00  0.00    -0.285 A  
HETATM   34  C   UNL     1     -11.356  12.319  65.566  1.00  0.00    -0.394 A  
HETATM   35  C   UNL     1     -11.704  12.452  66.906  1.00  0.00    -0.432 A  
HETATM   36  C   UNL     1     -11.313  11.490  67.860  1.00  0.00    -0.372 A  
BRANCH  36  37
HETATM   37  C   UNL     1     -11.822  11.729  69.224  1.00  0.00    -0.326 C  
HETATM   38  N   UNL     1     -11.811  12.870  69.831  1.00  0.00    -0.325 NA 
HETATM   39  O   UNL     1     -12.417  12.619  71.102  1.00  0.00    -0.348 OA 
HETATM   40  C   UNL     1     -12.751  11.290  71.114  1.00  0.00    -0.390 C  
HETATM   41  N   UNL     1     -12.393  10.752  69.939  1.00  0.00    -0.316 NA 
HETATM   42  O   UNL     1     -13.267  10.693  72.048  1.00  0.00    -0.473 OA 
ENDBRANCH  36  37
ENDBRANCH  28  31
ENDBRANCH  24  25
ENDBRANCH   8  24
ENDBRANCH   3   4
ENDBRANCH   2   3
TORSDOF 10
ENDMDL
MODEL       69
REMARK 921   NORMALIZED FREE ENERGY PREDICTED BY IDOCK:   -5.87 KCAL/MOL
REMARK 922        TOTAL FREE ENERGY PREDICTED BY IDOCK:  -12.23 KCAL/MOL
REMARK 923 INTER-LIGAND FREE ENERGY PREDICTED BY IDOCK:   -9.90 KCAL/MOL
REMARK 924 INTRA-LIGAND FREE ENERGY PREDICTED BY IDOCK:   -2.33 KCAL/MOL
REMARK 927      BINDING AFFINITY PREDICTED BY RF-SCORE:    0.00 PKD
ROOT
HETATM    1  C   UNL     1     -10.474  12.350  63.519  1.00  0.00    -0.430 C  
HETATM    2  C   UNL     1      -9.619  11.100  63.411  1.00  0.00    -0.332 C  
ENDROOT
BRANCH   2   3
HETATM    3  O   UNL     1     -10.133  10.095  64.288  1.00  0.00    -0.253 OA 
BRANCH   3   4
HETATM    4  C   UNL     1      -9.202   9.493  65.029  1.00  0.00    -0.236 A  
HETATM    5  N   UNL     1      -8.023   9.122  64.601  1.00  0.00    -0.118 NA 
HETATM    6  C   UNL     1      -7.406   8.572  65.690  1.00  0.00    -0.084 A  
HETATM    7  C   UNL     1      -8.228   8.588  66.825  1.00  0.00    -0.105 A  
HETATM    8  N   UNL     1      -9.367   9.233  66.371  1.00  0.00    -0.176 NA 
HETATM    9  C   UNL     1      -7.785   8.021  68.047  1.00  0.00    -0.118 A  
HETATM   10  C   UNL     1      -6.471   7.507  68.086  1.00  0.00    -0.049 A  
HETATM   11  C   UNL     1      -6.103   8.057  65.764  1.00  0.00    -0.038 A  
HETATM   12  C   UNL     1      -5.638   7.539  66.971  1.00  0.00    -0.031 A  
BRANCH   9  13
HETATM   13  C   UNL     1      -8.571   8.017  69.304  1.00  0.00    -0.137 C  
HETATM   14  O   UNL     1      -8.433   8.844  70.188  1.00  0.00    -0.123 OA 
BRANCH  13  15
HETATM   15  O   UNL     1      -9.394   6.935  69.346  1.00  0.00    -0.147 OA 
BRANCH  15  16
HETATM   16  C   UNL     1     -10.429   6.982  70.342  1.00  0.00    -0.206 C  
BRANCH  16  17
HETATM   17  C   UNL     1     -10.295   5.820  71.262  1.00  0.00    -0.223 C  
HETATM   18  O   UNL     1     -10.159   4.508  73.067  1.00  0.00    -0.142 OA 
HETATM   19  C   UNL     1     -10.294   5.787  72.578  1.00  0.00    -0.198 C  
HETATM   20  O   UNL     1     -10.123   4.549  70.739  1.00  0.00    -0.214 OA 
HETATM   21  C   UNL     1     -10.519   6.861  73.550  1.00  0.00    -0.382 C  
HETATM   22  C   UNL     1     -10.076   3.776  71.895  1.00  0.00    -0.124 C  
HETATM   23  O   UNL     1      -9.961   2.557  71.885  1.00  0.00    -0.160 OA 
ENDBRANCH  16  17
ENDBRANCH  15  16
ENDBRANCH  13  15
ENDBRANCH   9  13
BRANCH   8  24
HETATM   24  C   UNL     1     -10.470   9.780  67.145  1.00  0.00    -0.250 C  
BRANCH  24  25
HETATM   25  C   UNL     1     -10.558  11.288  67.187  1.00  0.00    -0.274 A  
HETATM   26  C   UNL     1     -11.700  12.018  66.857  1.00  0.00    -0.342 A  
HETATM   27  C   UNL     1      -9.412  13.401  67.632  1.00  0.00    -0.216 A  
HETATM   28  C   UNL     1     -10.547  14.152  67.288  1.00  0.00    -0.277 A  
HETATM   29  C   UNL     1      -9.421  12.000  67.594  1.00  0.00    -0.185 A  
HETATM   30  C   UNL     1     -11.705  13.414  66.969  1.00  0.00    -0.426 A  
BRANCH  28  31
HETATM   31  C   UNL     1     -10.555  15.649  67.339  1.00  0.00    -0.301 A  
HETATM   32  C   UNL     1      -9.836  17.751  66.257  1.00  0.00    -0.301 A  
HETATM   33  C   UNL     1     -10.129  16.384  66.202  1.00  0.00    -0.364 A  
HETATM   34  C   UNL     1     -10.030  18.452  67.435  1.00  0.00    -0.347 A  
HETATM   35  C   UNL     1     -10.553  17.790  68.541  1.00  0.00    -0.260 A  
HETATM   36  C   UNL     1     -10.835  16.409  68.499  1.00  0.00    -0.339 A  
BRANCH  36  37
HETATM   37  C   UNL     1     -11.455  15.868  69.722  1.00  0.00    -0.342 C  
HETATM   38  N   UNL     1     -10.829  15.218  70.647  1.00  0.00    -0.282 NA 
HETATM   39  O   UNL     1     -11.825  14.916  71.628  1.00  0.00    -0.347 OA 
HETATM   40  C   UNL     1     -12.997  15.455  71.165  1.00  0.00    -0.479 C  
HETATM   41  N   UNL     1     -12.753  16.056  69.991  1.00  0.00    -0.044 NA 
HETATM   42  O   UNL     1     -14.085  15.378  71.718  1.00  0.00    -0.493 OA 
ENDBRANCH  36  37
ENDBRANCH  28  31
ENDBRANCH  24  25
ENDBRANCH   8  24
ENDBRANCH   3   4
ENDBRANCH   2   3
TORSDOF 10
ENDMDL
MODEL       70
REMARK 921   NORMALIZED FREE ENERGY PREDICTED BY IDOCK:   -5.84 KCAL/MOL
REMARK 922        TOTAL FREE ENERGY PREDICTED BY IDOCK:  -12.18 KCAL/MOL
REMARK 923 INTER-LIGAND FREE ENERGY PREDICTED BY IDOCK:   -8.93 KCAL/MOL
REMARK 924 INTRA-LIGAND FREE ENERGY PREDICTED BY IDOCK:   -3.25 KCAL/MOL
REMARK 927      BINDING AFFINITY PREDICTED BY RF-SCORE:    0.00 PKD
ROOT
HETATM    1  C   UNL     1     -13.029  12.312  71.609  1.00  0.00    -0.416 C  
HETATM    2  C   UNL     1     -12.494  11.663  70.344  1.00  0.00    -0.221 C  
ENDROOT
BRANCH   2   3
HETATM    3  O   UNL     1     -11.664  12.596  69.647  1.00  0.00    -0.303 OA 
BRANCH   3   4
HETATM    4  C   UNL     1     -11.570  12.365  68.337  1.00  0.00    -0.324 A  
HETATM    5  N   UNL     1     -12.340  12.896  67.423  1.00  0.00    -0.222 NA 
HETATM    6  C   UNL     1     -11.878  12.399  66.236  1.00  0.00    -0.364 A  
HETATM    7  C   UNL     1     -10.799  11.522  66.417  1.00  0.00    -0.285 A  
HETATM    8  N   UNL     1     -10.599  11.559  67.787  1.00  0.00    -0.186 NA 
HETATM    9  C   UNL     1     -10.208  10.865  65.308  1.00  0.00    -0.351 A  
HETATM   10  C   UNL     1     -10.704  11.182  64.025  1.00  0.00    -0.409 A  
HETATM   11  C   UNL     1     -12.344  12.695  64.945  1.00  0.00    -0.563 A  
HETATM   12  C   UNL     1     -11.741  12.092  63.844  1.00  0.00    -0.537 A  
BRANCH   9  13
HETATM   13  C   UNL     1      -9.048   9.946  65.399  1.00  0.00    -0.196 C  
HETATM   14  O   UNL     1      -9.152   8.735  65.478  1.00  0.00    -0.203 OA 
BRANCH  13  15
HETATM   15  O   UNL     1      -7.887  10.652  65.453  1.00  0.00    -0.143 OA 
BRANCH  15  16
HETATM   16  C   UNL     1      -6.689   9.867  65.570  1.00  0.00    -0.094 C  
BRANCH  16  17
HETATM   17  C   UNL     1      -6.362   9.658  67.007  1.00  0.00    -0.065 C  
HETATM   18  O   UNL     1      -5.759   9.943  69.140  1.00  0.00    -0.035 OA 
HETATM   19  C   UNL     1      -5.935  10.521  67.904  1.00  0.00    -0.043 C  
HETATM   20  O   UNL     1      -6.481   8.394  67.560  1.00  0.00    -0.056 OA 
HETATM   21  C   UNL     1      -5.737  11.970  67.802  1.00  0.00    -0.070 C  
HETATM   22  C   UNL     1      -6.126   8.634  68.883  1.00  0.00    -0.044 C  
HETATM   23  O   UNL     1      -6.126   7.766  69.748  1.00  0.00    -0.026 OA 
ENDBRANCH  16  17
ENDBRANCH  15  16
ENDBRANCH  13  15
ENDBRANCH   9  13
BRANCH   8  24
HETATM   24  C   UNL     1      -9.465  11.066  68.552  1.00  0.00    -0.188 C  
BRANCH  24  25
HETATM   25  C   UNL     1      -9.690   9.768  69.294  1.00  0.00    -0.204 A  
HETATM   26  C   UNL     1      -9.150   9.476  70.547  1.00  0.00    -0.276 A  
HETATM   27  C   UNL     1     -10.738   7.560  69.300  1.00  0.00    -0.185 A  
HETATM   28  C   UNL     1     -10.190   7.243  70.553  1.00  0.00    -0.203 A  
HETATM   29  C   UNL     1     -10.503   8.800  68.689  1.00  0.00    -0.213 A  
HETATM   30  C   UNL     1      -9.450   8.265  71.182  1.00  0.00    -0.206 A  
BRANCH  28  31
HETATM   31  C   UNL     1     -10.445   5.927  71.221  1.00  0.00    -0.289 A  
HETATM   32  C   UNL     1     -11.352   4.765  73.206  1.00  0.00    -0.408 A  
HETATM   33  C   UNL     1     -11.288   5.880  72.363  1.00  0.00    -0.358 A  
HETATM   34  C   UNL     1     -10.631   3.624  72.896  1.00  0.00    -0.225 A  
HETATM   35  C   UNL     1      -9.881   3.591  71.725  1.00  0.00    -0.230 A  
HETATM   36  C   UNL     1      -9.798   4.717  70.880  1.00  0.00    -0.272 A  
BRANCH  36  37
HETATM   37  C   UNL     1      -9.029   4.503  69.640  1.00  0.00    -0.096 C  
HETATM   38  N   UNL     1      -9.517   4.053  68.531  1.00  0.00    -0.159 NA 
HETATM   39  O   UNL     1      -8.414   4.035  67.620  1.00  0.00    -0.097 OA 
HETATM   40  C   UNL     1      -7.333   4.509  68.316  1.00  0.00    -0.065 C  
HETATM   41  N   UNL     1      -7.729   4.812  69.561  1.00  0.00    -0.062 NA 
HETATM   42  O   UNL     1      -6.195   4.615  67.880  1.00  0.00    -0.033 OA 
ENDBRANCH  36  37
ENDBRANCH  28  31
ENDBRANCH  24  25
ENDBRANCH   8  24
ENDBRANCH   3   4
ENDBRANCH   2   3
TORSDOF 10
ENDMDL
MODEL       71
REMARK 921   NORMALIZED FREE ENERGY PREDICTED BY IDOCK:   -5.83 KCAL/MOL
REMARK 922        TOTAL FREE ENERGY PREDICTED BY IDOCK:  -12.16 KCAL/MOL
REMARK 923 INTER-LIGAND FREE ENERGY PREDICTED BY IDOCK:   -9.41 KCAL/MOL
REMARK 924 INTRA-LIGAND FREE ENERGY PREDICTED BY IDOCK:   -2.75 KCAL/MOL
REMARK 927      BINDING AFFINITY PREDICTED BY RF-SCORE:    0.00 PKD
ROOT
HETATM    1  C   UNL     1     -10.894   7.344  66.975  1.00  0.00    -0.307 C  
HETATM    2  C   UNL     1     -11.141   6.257  68.007  1.00  0.00    -0.265 C  
ENDROOT
BRANCH   2   3
HETATM    3  O   UNL     1     -10.869   6.771  69.313  1.00  0.00    -0.237 OA 
BRANCH   3   4
HETATM    4  C   UNL     1      -9.591   6.672  69.680  1.00  0.00    -0.151 A  
HETATM    5  N   UNL     1      -8.743   5.787  69.222  1.00  0.00    -0.113 NA 
HETATM    6  C   UNL     1      -7.563   6.065  69.853  1.00  0.00    -0.081 A  
HETATM    7  C   UNL     1      -7.681   7.146  70.739  1.00  0.00    -0.094 A  
HETATM    8  N   UNL     1      -8.997   7.542  70.566  1.00  0.00    -0.151 NA 
HETATM    9  C   UNL     1      -6.576   7.562  71.524  1.00  0.00    -0.045 A  
HETATM   10  C   UNL     1      -5.350   6.891  71.326  1.00  0.00    -0.027 A  
HETATM   11  C   UNL     1      -6.327   5.423  69.678  1.00  0.00    -0.030 A  
HETATM   12  C   UNL     1      -5.222   5.852  70.409  1.00  0.00    -0.012 A  
BRANCH   9  13
HETATM   13  C   UNL     1      -6.599   8.708  72.463  1.00  0.00    -0.040 C  
HETATM   14  O   UNL     1      -7.304   8.754  73.455  1.00  0.00    -0.370 OA 
BRANCH  13  15
HETATM   15  O   UNL     1      -5.788   9.704  72.016  1.00  0.00    -0.249 OA 
BRANCH  15  16
HETATM   16  C   UNL     1      -6.062  10.178  70.687  1.00  0.00    -0.106 C  
BRANCH  16  17
HETATM   17  C   UNL     1      -5.835  11.648  70.620  1.00  0.00    -0.077 C  
HETATM   18  O   UNL     1      -5.610  13.762  69.930  1.00  0.00    -0.098 OA 
HETATM   19  C   UNL     1      -5.855  12.454  69.580  1.00  0.00    -0.111 C  
HETATM   20  O   UNL     1      -5.535  12.347  71.778  1.00  0.00    -0.394 OA 
HETATM   21  C   UNL     1      -6.199  12.182  68.181  1.00  0.00    -0.055 C  
HETATM   22  C   UNL     1      -5.437  13.649  71.298  1.00  0.00    -0.210 C  
HETATM   23  O   UNL     1      -5.207  14.615  72.016  1.00  0.00    -0.157 OA 
ENDBRANCH  16  17
ENDBRANCH  15  16
ENDBRANCH  13  15
ENDBRANCH   9  13
BRANCH   8  24
HETATM   24  C   UNL     1      -9.642   8.766  71.013  1.00  0.00    -0.229 C  
BRANCH  24  25
HETATM   25  C   UNL     1     -10.053   9.727  69.920  1.00  0.00    -0.288 A  
HETATM   26  C   UNL     1      -9.225  10.120  68.868  1.00  0.00    -0.172 A  
HETATM   27  C   UNL     1     -11.800  11.168  69.002  1.00  0.00    -0.418 A  
HETATM   28  C   UNL     1     -10.977  11.586  67.945  1.00  0.00    -0.287 A  
HETATM   29  C   UNL     1     -11.353  10.250  69.961  1.00  0.00    -0.370 A  
HETATM   30  C   UNL     1      -9.705  10.980  67.873  1.00  0.00    -0.183 A  
BRANCH  28  31
HETATM   31  C   UNL     1     -11.449  12.556  66.905  1.00  0.00    -0.416 A  
HETATM   32  C   UNL     1     -11.957  12.930  64.516  1.00  0.00    -0.452 A  
HETATM   33  C   UNL     1     -11.785  12.077  65.612  1.00  0.00    -0.312 A  
HETATM   34  C   UNL     1     -11.872  14.301  64.688  1.00  0.00    -0.459 A  
HETATM   35  C   UNL     1     -11.654  14.813  65.963  1.00  0.00    -0.286 A  
HETATM   36  C   UNL     1     -11.464  13.960  67.069  1.00  0.00    -0.367 A  
BRANCH  36  37
HETATM   37  C   UNL     1     -11.321  14.651  68.364  1.00  0.00    -0.292 C  
HETATM   38  N   UNL     1     -10.205  15.065  68.866  1.00  0.00    -0.229 NA 
HETATM   39  O   UNL     1     -10.561  15.681  70.107  1.00  0.00    -0.309 OA 
HETATM   40  C   UNL     1     -11.923  15.573  70.213  1.00  0.00    -0.374 C  
HETATM   41  N   UNL     1     -12.386  14.948  69.120  1.00  0.00    -0.132 NA 
HETATM   42  O   UNL     1     -12.598  15.960  71.157  1.00  0.00    -0.456 OA 
ENDBRANCH  36  37
ENDBRANCH  28  31
ENDBRANCH  24  25
ENDBRANCH   8  24
ENDBRANCH   3   4
ENDBRANCH   2   3
TORSDOF 10
ENDMDL
MODEL       72
REMARK 921   NORMALIZED FREE ENERGY PREDICTED BY IDOCK:   -5.79 KCAL/MOL
REMARK 922        TOTAL FREE ENERGY PREDICTED BY IDOCK:  -12.10 KCAL/MOL
REMARK 923 INTER-LIGAND FREE ENERGY PREDICTED BY IDOCK:   -9.94 KCAL/MOL
REMARK 924 INTRA-LIGAND FREE ENERGY PREDICTED BY IDOCK:   -2.16 KCAL/MOL
REMARK 927      BINDING AFFINITY PREDICTED BY RF-SCORE:    0.00 PKD
ROOT
HETATM    1  C   UNL     1      -5.187   7.477  64.696  1.00  0.00    -0.029 C  
HETATM    2  C   UNL     1      -5.215   8.702  65.592  1.00  0.00    -0.034 C  
ENDROOT
BRANCH   2   3
HETATM    3  O   UNL     1      -6.455   9.391  65.416  1.00  0.00    -0.067 OA 
BRANCH   3   4
HETATM    4  C   UNL     1      -7.472   8.862  66.098  1.00  0.00    -0.090 A  
HETATM    5  N   UNL     1      -8.193   7.845  65.705  1.00  0.00    -0.123 NA 
HETATM    6  C   UNL     1      -9.097   7.639  66.710  1.00  0.00    -0.151 A  
HETATM    7  C   UNL     1      -8.943   8.564  67.753  1.00  0.00    -0.136 A  
HETATM    8  N   UNL     1      -7.852   9.312  67.343  1.00  0.00    -0.099 NA 
HETATM    9  C   UNL     1      -9.817   8.545  68.870  1.00  0.00    -0.181 A  
HETATM   10  C   UNL     1     -10.791   7.524  68.916  1.00  0.00    -0.063 A  
HETATM   11  C   UNL     1     -10.074   6.635  66.790  1.00  0.00    -0.240 A  
HETATM   12  C   UNL     1     -10.908   6.577  67.903  1.00  0.00    -0.383 A  
BRANCH   9  13
HETATM   13  C   UNL     1      -9.713   9.461  70.030  1.00  0.00    -0.224 C  
HETATM   14  O   UNL     1      -9.477   9.088  71.166  1.00  0.00    -0.241 OA 
BRANCH  13  15
HETATM   15  O   UNL     1      -9.990  10.739  69.652  1.00  0.00    -0.130 OA 
BRANCH  15  16
HETATM   16  C   UNL     1     -11.346  10.985  69.244  1.00  0.00    -0.282 C  
BRANCH  16  17
HETATM   17  C   UNL     1     -12.134  11.497  70.398  1.00  0.00    -0.382 C  
HETATM   18  O   UNL     1     -13.464  11.678  72.185  1.00  0.00    -0.423 OA 
HETATM   19  C   UNL     1     -12.919  10.849  71.232  1.00  0.00    -0.392 C  
HETATM   20  O   UNL     1     -12.106  12.849  70.700  1.00  0.00    -0.349 OA 
HETATM   21  C   UNL     1     -13.193   9.413  71.349  1.00  0.00    -0.415 C  
HETATM   22  C   UNL     1     -12.919  12.899  71.828  1.00  0.00    -0.315 C  
HETATM   23  O   UNL     1     -13.146  13.930  72.448  1.00  0.00    -0.414 OA 
ENDBRANCH  16  17
ENDBRANCH  15  16
ENDBRANCH  13  15
ENDBRANCH   9  13
BRANCH   8  24
HETATM   24  C   UNL     1      -7.053  10.250  68.115  1.00  0.00    -0.082 C  
BRANCH  24  25
HETATM   25  C   UNL     1      -7.448  11.704  67.994  1.00  0.00    -0.100 A  
HETATM   26  C   UNL     1      -7.079  12.696  68.901  1.00  0.00    -0.069 A  
HETATM   27  C   UNL     1      -8.658  13.404  66.722  1.00  0.00    -0.043 A  
HETATM   28  C   UNL     1      -8.309  14.413  67.633  1.00  0.00    -0.186 A  
HETATM   29  C   UNL     1      -8.226  12.082  66.891  1.00  0.00    -0.146 A  
HETATM   30  C   UNL     1      -7.452  14.028  68.685  1.00  0.00    -0.125 A  
BRANCH  28  31
HETATM   31  C   UNL     1      -8.751  15.833  67.455  1.00  0.00    -0.199 A  
HETATM   32  C   UNL     1      -8.273  18.214  67.915  1.00  0.00    -0.253 A  
HETATM   33  C   UNL     1      -7.856  16.885  67.780  1.00  0.00    -0.188 A  
HETATM   34  C   UNL     1      -9.590  18.553  67.656  1.00  0.00    -0.304 A  
HETATM   35  C   UNL     1     -10.474  17.568  67.226  1.00  0.00    -0.327 A  
HETATM   36  C   UNL     1     -10.064  16.224  67.104  1.00  0.00    -0.268 A  
BRANCH  36  37
HETATM   37  C   UNL     1     -11.091  15.312  66.564  1.00  0.00    -0.271 C  
HETATM   38  N   UNL     1     -11.904  14.605  67.276  1.00  0.00    -0.389 NA 
HETATM   39  O   UNL     1     -12.715  13.904  66.329  1.00  0.00    -0.399 OA 
HETATM   40  C   UNL     1     -12.282  14.296  65.089  1.00  0.00    -0.421 C  
HETATM   41  N   UNL     1     -11.287  15.181  65.246  1.00  0.00    -0.341 NA 
HETATM   42  O   UNL     1     -12.717  13.889  64.020  1.00  0.00    -0.665 OA 
ENDBRANCH  36  37
ENDBRANCH  28  31
ENDBRANCH  24  25
ENDBRANCH   8  24
ENDBRANCH   3   4
ENDBRANCH   2   3
TORSDOF 10
ENDMDL
MODEL       73
REMARK 921   NORMALIZED FREE ENERGY PREDICTED BY IDOCK:   -5.79 KCAL/MOL
REMARK 922        TOTAL FREE ENERGY PREDICTED BY IDOCK:  -12.10 KCAL/MOL
REMARK 923 INTER-LIGAND FREE ENERGY PREDICTED BY IDOCK:   -9.92 KCAL/MOL
REMARK 924 INTRA-LIGAND FREE ENERGY PREDICTED BY IDOCK:   -2.18 KCAL/MOL
REMARK 927      BINDING AFFINITY PREDICTED BY RF-SCORE:    0.00 PKD
ROOT
HETATM    1  C   UNL     1      -7.441  18.263  67.747  1.00  0.00    -0.224 C  
HETATM    2  C   UNL     1      -7.417  16.848  68.295  1.00  0.00    -0.192 C  
ENDROOT
BRANCH   2   3
HETATM    3  O   UNL     1      -7.334  15.919  67.211  1.00  0.00    -0.175 OA 
BRANCH   3   4
HETATM    4  C   UNL     1      -8.517  15.467  66.792  1.00  0.00    -0.272 A  
HETATM    5  N   UNL     1      -9.148  15.887  65.727  1.00  0.00    -0.330 NA 
HETATM    6  C   UNL     1     -10.294  15.145  65.676  1.00  0.00    -0.357 A  
HETATM    7  C   UNL     1     -10.386  14.244  66.747  1.00  0.00    -0.274 A  
HETATM    8  N   UNL     1      -9.196  14.450  67.425  1.00  0.00    -0.191 NA 
HETATM    9  C   UNL     1     -11.526  13.413  66.898  1.00  0.00    -0.376 A  
HETATM   10  C   UNL     1     -12.518  13.484  65.896  1.00  0.00    -0.484 A  
HETATM   11  C   UNL     1     -11.298  15.186  64.696  1.00  0.00    -0.362 A  
HETATM   12  C   UNL     1     -12.400  14.342  64.807  1.00  0.00    -0.440 A  
BRANCH   9  13
HETATM   13  C   UNL     1     -11.698  12.414  67.979  1.00  0.00    -0.356 C  
HETATM   14  O   UNL     1     -12.012  11.254  67.781  1.00  0.00    -0.637 OA 
BRANCH  13  15
HETATM   15  O   UNL     1     -11.527  12.998  69.196  1.00  0.00    -0.268 OA 
BRANCH  15  16
HETATM   16  C   UNL     1     -12.694  13.627  69.751  1.00  0.00     0.179 C  
BRANCH  16  17
HETATM   17  C   UNL     1     -12.312  14.437  70.940  1.00  0.00    -0.349 C  
HETATM   18  O   UNL     1     -11.415  15.958  72.310  1.00  0.00    -0.392 OA 
HETATM   19  C   UNL     1     -11.499  15.468  71.027  1.00  0.00    -0.383 C  
HETATM   20  O   UNL     1     -12.830  14.114  72.183  1.00  0.00    -0.337 OA 
HETATM   21  C   UNL     1     -10.789  16.203  69.975  1.00  0.00    -0.349 C  
HETATM   22  C   UNL     1     -12.269  15.102  72.984  1.00  0.00    -0.391 C  
HETATM   23  O   UNL     1     -12.495  15.206  74.183  1.00  0.00    -0.580 OA 
ENDBRANCH  16  17
ENDBRANCH  15  16
ENDBRANCH  13  15
ENDBRANCH   9  13
BRANCH   8  24
HETATM   24  C   UNL     1      -8.593  13.636  68.468  1.00  0.00    -0.103 C  
BRANCH  24  25
HETATM   25  C   UNL     1      -8.164  12.248  68.050  1.00  0.00    -0.163 A  
HETATM   26  C   UNL     1      -8.261  11.753  66.750  1.00  0.00    -0.147 A  
HETATM   27  C   UNL     1      -7.226  10.096  68.732  1.00  0.00    -0.081 A  
HETATM   28  C   UNL     1      -7.331   9.576  67.432  1.00  0.00    -0.087 A  
HETATM   29  C   UNL     1      -7.621  11.406  69.032  1.00  0.00    -0.084 A  
HETATM   30  C   UNL     1      -7.794  10.469  66.444  1.00  0.00    -0.138 A  
BRANCH  28  31
HETATM   31  C   UNL     1      -6.898   8.182  67.096  1.00  0.00    -0.070 A  
HETATM   32  C   UNL     1      -5.140   6.752  66.111  1.00  0.00    -0.018 A  
HETATM   33  C   UNL     1      -5.553   7.948  66.708  1.00  0.00    -0.032 A  
HETATM   34  C   UNL     1      -6.042   5.714  65.950  1.00  0.00    -0.029 A  
HETATM   35  C   UNL     1      -7.342   5.864  66.420  1.00  0.00    -0.078 A  
HETATM   36  C   UNL     1      -7.770   7.073  67.006  1.00  0.00    -0.107 A  
BRANCH  36  37
HETATM   37  C   UNL     1      -9.151   7.053  67.525  1.00  0.00    -0.122 C  
HETATM   38  N   UNL     1     -10.175   7.570  66.930  1.00  0.00    -0.278 NA 
HETATM   39  O   UNL     1     -11.284   7.290  67.789  1.00  0.00    -0.020 OA 
HETATM   40  C   UNL     1     -10.778   6.591  68.854  1.00  0.00    -0.273 C  
HETATM   41  N   UNL     1      -9.459   6.435  68.672  1.00  0.00    -0.123 NA 
HETATM   42  O   UNL     1     -11.420   6.197  69.818  1.00  0.00    -0.433 OA 
ENDBRANCH  36  37
ENDBRANCH  28  31
ENDBRANCH  24  25
ENDBRANCH   8  24
ENDBRANCH   3   4
ENDBRANCH   2   3
TORSDOF 10
ENDMDL
MODEL       74
REMARK 921   NORMALIZED FREE ENERGY PREDICTED BY IDOCK:   -5.79 KCAL/MOL
REMARK 922        TOTAL FREE ENERGY PREDICTED BY IDOCK:  -12.09 KCAL/MOL
REMARK 923 INTER-LIGAND FREE ENERGY PREDICTED BY IDOCK:   -9.82 KCAL/MOL
REMARK 924 INTRA-LIGAND FREE ENERGY PREDICTED BY IDOCK:   -2.27 KCAL/MOL
REMARK 927      BINDING AFFINITY PREDICTED BY RF-SCORE:    0.00 PKD
ROOT
HETATM    1  C   UNL     1     -10.408   5.153  66.462  1.00  0.00    -0.336 C  
HETATM    2  C   UNL     1     -10.777   6.624  66.395  1.00  0.00     0.229 C  
ENDROOT
BRANCH   2   3
HETATM    3  O   UNL     1      -9.585   7.414  66.403  1.00  0.00    -0.176 OA 
BRANCH   3   4
HETATM    4  C   UNL     1      -8.814   7.223  67.474  1.00  0.00    -0.119 A  
HETATM    5  N   UNL     1      -7.598   6.740  67.449  1.00  0.00    -0.103 NA 
HETATM    6  C   UNL     1      -7.191   6.737  68.754  1.00  0.00    -0.092 A  
HETATM    7  C   UNL     1      -8.184   7.219  69.617  1.00  0.00    -0.131 A  
HETATM    8  N   UNL     1      -9.205   7.567  68.748  1.00  0.00    -0.145 NA 
HETATM    9  C   UNL     1      -7.970   7.253  71.019  1.00  0.00    -0.098 A  
HETATM   10  C   UNL     1      -6.703   6.848  71.492  1.00  0.00    -0.060 A  
HETATM   11  C   UNL     1      -5.940   6.346  69.258  1.00  0.00    -0.021 A  
HETATM   12  C   UNL     1      -5.701   6.419  70.628  1.00  0.00    -0.023 A  
BRANCH   9  13
HETATM   13  C   UNL     1      -8.948   7.771  72.004  1.00  0.00    -0.134 C  
HETATM   14  O   UNL     1      -8.685   8.625  72.832  1.00  0.00    -0.384 OA 
BRANCH  13  15
HETATM   15  O   UNL     1     -10.132   7.109  71.891  1.00  0.00    -0.182 OA 
BRANCH  15  16
HETATM   16  C   UNL     1     -11.154   7.505  72.820  1.00  0.00    -0.366 C  
BRANCH  16  17
HETATM   17  C   UNL     1     -12.061   8.496  72.178  1.00  0.00    -0.383 C  
HETATM   18  O   UNL     1     -13.810   9.515  71.231  1.00  0.00    -0.294 OA 
HETATM   19  C   UNL     1     -13.301   8.352  71.762  1.00  0.00    -0.357 C  
HETATM   20  O   UNL     1     -11.605   9.780  71.929  1.00  0.00    -0.278 OA 
HETATM   21  C   UNL     1     -14.212   7.209  71.882  1.00  0.00    -0.428 C  
HETATM   22  C   UNL     1     -12.734  10.373  71.373  1.00  0.00    -0.446 C  
HETATM   23  O   UNL     1     -12.776  11.547  71.027  1.00  0.00    -0.371 OA 
ENDBRANCH  16  17
ENDBRANCH  15  16
ENDBRANCH  13  15
ENDBRANCH   9  13
BRANCH   8  24
HETATM   24  C   UNL     1     -10.393   8.361  69.015  1.00  0.00    -0.218 C  
BRANCH  24  25
HETATM   25  C   UNL     1     -10.320   9.812  68.599  1.00  0.00    -0.224 A  
HETATM   26  C   UNL     1      -9.266  10.668  68.920  1.00  0.00    -0.189 A  
HETATM   27  C   UNL     1     -11.393  11.671  67.430  1.00  0.00    -0.367 A  
HETATM   28  C   UNL     1     -10.349  12.551  67.757  1.00  0.00    -0.224 A  
HETATM   29  C   UNL     1     -11.373  10.329  67.831  1.00  0.00    -0.181 A  
HETATM   30  C   UNL     1      -9.259  11.988  68.452  1.00  0.00    -0.160 A  
BRANCH  28  31
HETATM   31  C   UNL     1     -10.352  13.985  67.322  1.00  0.00    -0.264 A  
HETATM   32  C   UNL     1      -9.543  15.639  65.674  1.00  0.00    -0.319 A  
HETATM   33  C   UNL     1      -9.839  14.322  66.043  1.00  0.00    -0.336 A  
HETATM   34  C   UNL     1      -9.822  16.678  66.546  1.00  0.00    -0.295 A  
HETATM   35  C   UNL     1     -10.429  16.398  67.765  1.00  0.00    -0.300 A  
HETATM   36  C   UNL     1     -10.714  15.072  68.150  1.00  0.00    -0.256 A  
BRANCH  36  37
HETATM   37  C   UNL     1     -11.427  14.942  69.435  1.00  0.00    -0.299 C  
HETATM   38  N   UNL     1     -12.641  14.519  69.571  1.00  0.00    -0.118 NA 
HETATM   39  O   UNL     1     -12.888  14.548  70.980  1.00  0.00    -0.318 OA 
HETATM   40  C   UNL     1     -11.733  14.997  71.564  1.00  0.00    -0.370 C  
HETATM   41  N   UNL     1     -10.829  15.222  70.599  1.00  0.00    -0.282 NA 
HETATM   42  O   UNL     1     -11.564  15.183  72.761  1.00  0.00    -0.399 OA 
ENDBRANCH  36  37
ENDBRANCH  28  31
ENDBRANCH  24  25
ENDBRANCH   8  24
ENDBRANCH   3   4
ENDBRANCH   2   3
TORSDOF 10
ENDMDL
MODEL       75
REMARK 921   NORMALIZED FREE ENERGY PREDICTED BY IDOCK:   -5.78 KCAL/MOL
REMARK 922        TOTAL FREE ENERGY PREDICTED BY IDOCK:  -12.08 KCAL/MOL
REMARK 923 INTER-LIGAND FREE ENERGY PREDICTED BY IDOCK:   -9.94 KCAL/MOL
REMARK 924 INTRA-LIGAND FREE ENERGY PREDICTED BY IDOCK:   -2.14 KCAL/MOL
REMARK 927      BINDING AFFINITY PREDICTED BY RF-SCORE:    0.00 PKD
ROOT
HETATM    1  C   UNL     1     -11.025   4.770  73.080  1.00  0.00    -0.374 C  
HETATM    2  C   UNL     1     -11.864   5.820  72.373  1.00  0.00    -0.168 C  
ENDROOT
BRANCH   2   3
HETATM    3  O   UNL     1     -11.389   5.985  71.035  1.00  0.00    -0.295 OA 
BRANCH   3   4
HETATM    4  C   UNL     1     -10.061   6.053  70.933  1.00  0.00    -0.196 A  
HETATM    5  N   UNL     1      -9.311   5.192  70.296  1.00  0.00    -0.148 NA 
HETATM    6  C   UNL     1      -8.034   5.660  70.438  1.00  0.00    -0.104 A  
HETATM    7  C   UNL     1      -7.986   6.838  71.196  1.00  0.00    -0.103 A  
HETATM    8  N   UNL     1      -9.322   7.087  71.462  1.00  0.00    -0.154 NA 
HETATM    9  C   UNL     1      -6.745   7.457  71.493  1.00  0.00    -0.050 A  
HETATM   10  C   UNL     1      -5.582   6.877  70.941  1.00  0.00    -0.027 A  
HETATM   11  C   UNL     1      -6.858   5.113  69.901  1.00  0.00    -0.052 A  
HETATM   12  C   UNL     1      -5.638   5.736  70.147  1.00  0.00    -0.012 A  
BRANCH   9  13
HETATM   13  C   UNL     1      -6.599   8.716  72.261  1.00  0.00    -0.060 C  
HETATM   14  O   UNL     1      -6.457   8.756  73.470  1.00  0.00    -0.254 OA 
BRANCH  13  15
HETATM   15  O   UNL     1      -6.719   9.791  71.436  1.00  0.00    -0.322 OA 
BRANCH  15  16
HETATM   16  C   UNL     1      -5.508  10.527  71.196  1.00  0.00    -0.071 C  
BRANCH  16  17
HETATM   17  C   UNL     1      -5.813  11.754  70.411  1.00  0.00    -0.156 C  
HETATM   18  O   UNL     1      -6.300  13.197  68.774  1.00  0.00    -0.079 OA 
HETATM   19  C   UNL     1      -6.039  11.891  69.122  1.00  0.00    -0.078 C  
HETATM   20  O   UNL     1      -5.868  12.981  71.052  1.00  0.00    -0.275 OA 
HETATM   21  C   UNL     1      -6.158  10.876  68.070  1.00  0.00    -0.049 C  
HETATM   22  C   UNL     1      -6.202  13.829  70.001  1.00  0.00    -0.120 C  
HETATM   23  O   UNL     1      -6.383  15.033  70.140  1.00  0.00    -0.159 OA 
ENDBRANCH  16  17
ENDBRANCH  15  16
ENDBRANCH  13  15
ENDBRANCH   9  13
BRANCH   8  24
HETATM   24  C   UNL     1      -9.933   8.299  71.983  1.00  0.00    -0.257 C  
BRANCH  24  25
HETATM   25  C   UNL     1     -10.328   9.331  70.952  1.00  0.00    -0.367 A  
HETATM   26  C   UNL     1      -9.476   9.817  69.961  1.00  0.00    -0.278 A  
HETATM   27  C   UNL     1     -12.077  10.802  70.082  1.00  0.00    -0.427 A  
HETATM   28  C   UNL     1     -11.228  11.314  69.089  1.00  0.00    -0.337 A  
HETATM   29  C   UNL     1     -11.641   9.823  70.986  1.00  0.00    -0.455 A  
HETATM   30  C   UNL     1      -9.942  10.740  69.016  1.00  0.00    -0.214 A  
BRANCH  28  31
HETATM   31  C   UNL     1     -11.687  12.349  68.108  1.00  0.00    -0.408 A  
HETATM   32  C   UNL     1     -12.024  12.928  65.729  1.00  0.00    -0.496 A  
HETATM   33  C   UNL     1     -11.877  11.983  66.750  1.00  0.00    -0.244 A  
HETATM   34  C   UNL     1     -12.061  14.277  66.038  1.00  0.00    -0.423 A  
HETATM   35  C   UNL     1     -11.990  14.671  67.371  1.00  0.00    -0.309 A  
HETATM   36  C   UNL     1     -11.825  13.725  68.403  1.00  0.00    -0.411 A  
BRANCH  36  37
HETATM   37  C   UNL     1     -11.844  14.289  69.766  1.00  0.00    -0.324 C  
HETATM   38  N   UNL     1     -10.910  15.018  70.281  1.00  0.00    -0.212 NA 
HETATM   39  O   UNL     1     -11.373  15.341  71.595  1.00  0.00    -0.390 OA 
HETATM   40  C   UNL     1     -12.602  14.749  71.726  1.00  0.00    -0.334 C  
HETATM   41  N   UNL     1     -12.892  14.114  70.581  1.00  0.00    -0.322 NA 
HETATM   42  O   UNL     1     -13.304  14.777  72.728  1.00  0.00    -0.428 OA 
ENDBRANCH  36  37
ENDBRANCH  28  31
ENDBRANCH  24  25
ENDBRANCH   8  24
ENDBRANCH   3   4
ENDBRANCH   2   3
TORSDOF 10
ENDMDL
MODEL       76
REMARK 921   NORMALIZED FREE ENERGY PREDICTED BY IDOCK:   -5.78 KCAL/MOL
REMARK 922        TOTAL FREE ENERGY PREDICTED BY IDOCK:  -12.08 KCAL/MOL
REMARK 923 INTER-LIGAND FREE ENERGY PREDICTED BY IDOCK:  -10.61 KCAL/MOL
REMARK 924 INTRA-LIGAND FREE ENERGY PREDICTED BY IDOCK:   -1.47 KCAL/MOL
REMARK 927      BINDING AFFINITY PREDICTED BY RF-SCORE:    0.00 PKD
ROOT
HETATM    1  C   UNL     1      -6.589  12.888  67.511  1.00  0.00    -0.160 C  
HETATM    2  C   UNL     1      -7.942  12.226  67.699  1.00  0.00    -0.161 C  
ENDROOT
BRANCH   2   3
HETATM    3  O   UNL     1      -8.135  11.242  66.680  1.00  0.00    -0.153 OA 
BRANCH   3   4
HETATM    4  C   UNL     1      -8.010   9.985  67.108  1.00  0.00    -0.109 A  
HETATM    5  N   UNL     1      -6.913   9.459  67.586  1.00  0.00    -0.080 NA 
HETATM    6  C   UNL     1      -7.246   8.174  67.910  1.00  0.00    -0.091 A  
HETATM    7  C   UNL     1      -8.586   7.886  67.614  1.00  0.00    -0.127 A  
HETATM    8  N   UNL     1      -9.062   9.097  67.138  1.00  0.00    -0.125 NA 
HETATM    9  C   UNL     1      -9.114   6.589  67.837  1.00  0.00    -0.113 A  
HETATM   10  C   UNL     1      -8.259   5.633  68.426  1.00  0.00    -0.103 A  
HETATM   11  C   UNL     1      -6.425   7.199  68.500  1.00  0.00    -0.040 A  
HETATM   12  C   UNL     1      -6.945   5.935  68.767  1.00  0.00    -0.072 A  
BRANCH   9  13
HETATM   13  C   UNL     1     -10.522   6.202  67.582  1.00  0.00    -0.234 C  
HETATM   14  O   UNL     1     -11.000   6.092  66.467  1.00  0.00    -0.245 OA 
BRANCH  13  15
HETATM   15  O   UNL     1     -11.197   6.065  68.755  1.00  0.00    -0.331 OA 
BRANCH  15  16
HETATM   16  C   UNL     1     -10.814   6.974  69.801  1.00  0.00    -0.248 C  
BRANCH  16  17
HETATM   17  C   UNL     1     -10.623   6.226  71.073  1.00  0.00    -0.238 C  
HETATM   18  O   UNL     1     -10.501   5.637  73.226  1.00  0.00    -0.200 OA 
HETATM   19  C   UNL     1     -10.749   6.639  72.316  1.00  0.00    -0.221 C  
HETATM   20  O   UNL     1     -10.239   4.896  71.034  1.00  0.00    -0.217 OA 
HETATM   21  C   UNL     1     -11.206   7.930  72.842  1.00  0.00    -0.429 C  
HETATM   22  C   UNL     1     -10.209   4.575  72.387  1.00  0.00    -0.190 C  
HETATM   23  O   UNL     1      -9.938   3.457  72.808  1.00  0.00    -0.136 OA 
ENDBRANCH  16  17
ENDBRANCH  15  16
ENDBRANCH  13  15
ENDBRANCH   9  13
BRANCH   8  24
HETATM   24  C   UNL     1     -10.439   9.506  66.913  1.00  0.00    -0.208 C  
BRANCH  24  25
HETATM   25  C   UNL     1     -10.956  10.596  67.824  1.00  0.00    -0.364 A  
HETATM   26  C   UNL     1     -11.483  11.808  67.377  1.00  0.00    -0.375 A  
HETATM   27  C   UNL     1     -11.349  11.342  70.118  1.00  0.00    -0.251 A  
HETATM   28  C   UNL     1     -11.867  12.573  69.687  1.00  0.00    -0.382 A  
HETATM   29  C   UNL     1     -10.915  10.369  69.207  1.00  0.00    -0.287 A  
HETATM   30  C   UNL     1     -11.982  12.743  68.292  1.00  0.00    -0.276 A  
BRANCH  28  31
HETATM   31  C   UNL     1     -12.347  13.614  70.652  1.00  0.00    -0.440 A  
HETATM   32  C   UNL     1     -13.937  14.170  72.460  1.00  0.00    -0.536 A  
HETATM   33  C   UNL     1     -13.224  13.235  71.701  1.00  0.00    -0.446 A  
HETATM   34  C   UNL     1     -13.742  15.524  72.248  1.00  0.00    -0.633 A  
HETATM   35  C   UNL     1     -12.807  15.936  71.303  1.00  0.00    -0.319 A  
HETATM   36  C   UNL     1     -12.097  15.000  70.523  1.00  0.00    -0.379 A  
BRANCH  36  37
HETATM   37  C   UNL     1     -11.087  15.586  69.622  1.00  0.00    -0.279 C  
HETATM   38  N   UNL     1      -9.809  15.452  69.751  1.00  0.00    -0.260 NA 
HETATM   39  O   UNL     1      -9.247  16.169  68.649  1.00  0.00    -0.201 OA 
HETATM   40  C   UNL     1     -10.305  16.672  67.937  1.00  0.00    -0.310 C  
HETATM   41  N   UNL     1     -11.441  16.291  68.540  1.00  0.00    -0.340 NA 
HETATM   42  O   UNL     1     -10.224  17.369  66.936  1.00  0.00    -0.304 OA 
ENDBRANCH  36  37
ENDBRANCH  28  31
ENDBRANCH  24  25
ENDBRANCH   8  24
ENDBRANCH   3   4
ENDBRANCH   2   3
TORSDOF 10
ENDMDL
MODEL       77
REMARK 921   NORMALIZED FREE ENERGY PREDICTED BY IDOCK:   -5.77 KCAL/MOL
REMARK 922        TOTAL FREE ENERGY PREDICTED BY IDOCK:  -12.06 KCAL/MOL
REMARK 923 INTER-LIGAND FREE ENERGY PREDICTED BY IDOCK:   -9.51 KCAL/MOL
REMARK 924 INTRA-LIGAND FREE ENERGY PREDICTED BY IDOCK:   -2.54 KCAL/MOL
REMARK 927      BINDING AFFINITY PREDICTED BY RF-SCORE:    0.00 PKD
ROOT
HETATM    1  C   UNL     1      -5.692   7.585  71.622  1.00  0.00    -0.036 C  
HETATM    2  C   UNL     1      -5.964   9.026  72.016  1.00  0.00    -0.068 C  
ENDROOT
BRANCH   2   3
HETATM    3  O   UNL     1      -6.892   9.603  71.094  1.00  0.00    -0.287 OA 
BRANCH   3   4
HETATM    4  C   UNL     1      -8.059   8.962  71.025  1.00  0.00    -0.170 A  
HETATM    5  N   UNL     1      -8.877   8.778  72.029  1.00  0.00    -0.370 NA 
HETATM    6  C   UNL     1      -9.939   8.098  71.503  1.00  0.00    -0.182 A  
HETATM    7  C   UNL     1      -9.773   7.840  70.135  1.00  0.00    -0.183 A  
HETATM    8  N   UNL     1      -8.565   8.454  69.850  1.00  0.00    -0.129 NA 
HETATM    9  C   UNL     1     -10.749   7.104  69.414  1.00  0.00    -0.246 A  
HETATM   10  C   UNL     1     -11.910   6.709  70.113  1.00  0.00    -0.347 A  
HETATM   11  C   UNL     1     -11.109   7.694  72.165  1.00  0.00    -0.314 A  
HETATM   12  C   UNL     1     -12.096   7.011  71.458  1.00  0.00    -0.392 A  
BRANCH   9  13
HETATM   13  C   UNL     1     -10.673   6.808  67.964  1.00  0.00    -0.241 C  
HETATM   14  O   UNL     1     -10.972   7.609  67.096  1.00  0.00    -0.266 OA 
BRANCH  13  15
HETATM   15  O   UNL     1     -10.300   5.516  67.762  1.00  0.00    -0.188 OA 
BRANCH  15  16
HETATM   16  C   UNL     1      -8.916   5.314  67.432  1.00  0.00    -0.108 C  
BRANCH  16  17
HETATM   17  C   UNL     1      -8.791   4.948  65.995  1.00  0.00    -0.126 C  
HETATM   18  O   UNL     1      -8.470   4.989  63.783  1.00  0.00    -0.128 OA 
HETATM   19  C   UNL     1      -8.511   5.706  64.956  1.00  0.00    -0.135 C  
HETATM   20  O   UNL     1      -9.001   3.636  65.602  1.00  0.00    -0.124 OA 
HETATM   21  C   UNL     1      -8.142   7.125  64.894  1.00  0.00    -0.107 C  
HETATM   22  C   UNL     1      -8.760   3.714  64.234  1.00  0.00    -0.101 C  
HETATM   23  O   UNL     1      -8.810   2.745  63.486  1.00  0.00    -0.089 OA 
ENDBRANCH  16  17
ENDBRANCH  15  16
ENDBRANCH  13  15
ENDBRANCH   9  13
BRANCH   8  24
HETATM   24  C   UNL     1      -7.984   8.755  68.552  1.00  0.00    -0.112 C  
BRANCH  24  25
HETATM   25  C   UNL     1      -8.242  10.149  68.026  1.00  0.00    -0.113 A  
HETATM   26  C   UNL     1      -7.282  10.940  67.394  1.00  0.00    -0.094 A  
HETATM   27  C   UNL     1      -9.845  11.970  67.735  1.00  0.00    -0.190 A  
HETATM   28  C   UNL     1      -8.888  12.787  67.112  1.00  0.00    -0.202 A  
HETATM   29  C   UNL     1      -9.533  10.676  68.171  1.00  0.00    -0.158 A  
HETATM   30  C   UNL     1      -7.623  12.203  66.896  1.00  0.00    -0.029 A  
BRANCH  28  31
HETATM   31  C   UNL     1      -9.215  14.167  66.629  1.00  0.00    -0.272 A  
HETATM   32  C   UNL     1      -9.069  16.593  67.072  1.00  0.00    -0.232 A  
HETATM   33  C   UNL     1      -8.613  15.284  67.263  1.00  0.00    -0.210 A  
HETATM   34  C   UNL     1     -10.097  16.842  66.180  1.00  0.00    -0.347 A  
HETATM   35  C   UNL     1     -10.638  15.786  65.454  1.00  0.00    -0.441 A  
HETATM   36  C   UNL     1     -10.195  14.462  65.654  1.00  0.00    -0.371 A  
BRANCH  36  37
HETATM   37  C   UNL     1     -10.809  13.464  64.758  1.00  0.00    -0.375 C  
HETATM   38  N   UNL     1     -10.176  12.781  63.862  1.00  0.00    -0.357 NA 
HETATM   39  O   UNL     1     -11.168  11.941  63.265  1.00  0.00    -0.364 OA 
HETATM   40  C   UNL     1     -12.346  12.220  63.908  1.00  0.00    -0.509 C  
HETATM   41  N   UNL     1     -12.108  13.153  64.843  1.00  0.00    -0.378 NA 
HETATM   42  O   UNL     1     -13.432  11.719  63.655  1.00  0.00    -0.425 OA 
ENDBRANCH  36  37
ENDBRANCH  28  31
ENDBRANCH  24  25
ENDBRANCH   8  24
ENDBRANCH   3   4
ENDBRANCH   2   3
TORSDOF 10
ENDMDL
MODEL       78
REMARK 921   NORMALIZED FREE ENERGY PREDICTED BY IDOCK:   -5.75 KCAL/MOL
REMARK 922        TOTAL FREE ENERGY PREDICTED BY IDOCK:  -12.03 KCAL/MOL
REMARK 923 INTER-LIGAND FREE ENERGY PREDICTED BY IDOCK:   -8.65 KCAL/MOL
REMARK 924 INTRA-LIGAND FREE ENERGY PREDICTED BY IDOCK:   -3.38 KCAL/MOL
REMARK 927      BINDING AFFINITY PREDICTED BY RF-SCORE:    0.00 PKD
ROOT
HETATM    1  C   UNL     1     -11.385   6.288  69.619  1.00  0.00    -0.492 C  
HETATM    2  C   UNL     1     -10.362   5.167  69.566  1.00  0.00    -0.222 C  
ENDROOT
BRANCH   2   3
HETATM    3  O   UNL     1      -9.209   5.610  68.845  1.00  0.00    -0.117 OA 
BRANCH   3   4
HETATM    4  C   UNL     1      -9.221   5.290  67.551  1.00  0.00    -0.114 A  
HETATM    5  N   UNL     1      -9.904   4.305  67.026  1.00  0.00    -0.205 NA 
HETATM    6  C   UNL     1      -9.633   4.359  65.687  1.00  0.00    -0.187 A  
HETATM    7  C   UNL     1      -8.747   5.398  65.370  1.00  0.00    -0.154 A  
HETATM    8  N   UNL     1      -8.537   6.007  66.596  1.00  0.00    -0.111 NA 
HETATM    9  C   UNL     1      -8.307   5.591  64.035  1.00  0.00    -0.091 A  
HETATM   10  C   UNL     1      -8.848   4.744  63.045  1.00  0.00    -0.115 A  
HETATM   11  C   UNL     1     -10.155   3.537  64.676  1.00  0.00    -0.124 A  
HETATM   12  C   UNL     1      -9.767   3.746  63.355  1.00  0.00    -0.150 A  
BRANCH   9  13
HETATM   13  C   UNL     1      -7.396   6.677  63.602  1.00  0.00    -0.072 C  
HETATM   14  O   UNL     1      -6.212   6.717  63.884  1.00  0.00    -0.033 OA 
BRANCH  13  15
HETATM   15  O   UNL     1      -8.087   7.633  62.924  1.00  0.00    -0.142 OA 
BRANCH  15  16
HETATM   16  C   UNL     1      -7.494   8.942  62.923  1.00  0.00    -0.106 C  
BRANCH  16  17
HETATM   17  C   UNL     1      -8.275   9.848  63.810  1.00  0.00    -0.158 C  
HETATM   18  O   UNL     1      -8.920  11.226  65.447  1.00  0.00    -0.181 OA 
HETATM   19  C   UNL     1      -7.911  10.455  64.920  1.00  0.00    -0.099 C  
HETATM   20  O   UNL     1      -9.595  10.134  63.505  1.00  0.00    -0.293 OA 
HETATM   21  C   UNL     1      -6.602  10.510  65.581  1.00  0.00    -0.116 C  
HETATM   22  C   UNL     1      -9.934  11.012  64.530  1.00  0.00    -0.310 C  
HETATM   23  O   UNL     1     -11.033  11.543  64.625  1.00  0.00    -0.317 OA 
ENDBRANCH  16  17
ENDBRANCH  15  16
ENDBRANCH  13  15
ENDBRANCH   9  13
BRANCH   8  24
HETATM   24  C   UNL     1      -7.921   7.295  66.875  1.00  0.00    -0.112 C  
BRANCH  24  25
HETATM   25  C   UNL     1      -8.807   8.311  67.560  1.00  0.00    -0.138 A  
HETATM   26  C   UNL     1     -10.074   8.678  67.109  1.00  0.00    -0.329 A  
HETATM   27  C   UNL     1      -9.077   9.886  69.409  1.00  0.00    -0.216 A  
HETATM   28  C   UNL     1     -10.347  10.280  68.961  1.00  0.00    -0.229 A  
HETATM   29  C   UNL     1      -8.328   8.914  68.731  1.00  0.00    -0.123 A  
HETATM   30  C   UNL     1     -10.846   9.595  67.833  1.00  0.00    -0.272 A  
BRANCH  28  31
HETATM   31  C   UNL     1     -11.163  11.306  69.685  1.00  0.00    -0.321 A  
HETATM   32  C   UNL     1     -12.933  11.727  71.358  1.00  0.00    -0.408 A  
HETATM   33  C   UNL     1     -11.938  10.912  70.807  1.00  0.00    -0.449 A  
HETATM   34  C   UNL     1     -13.139  13.000  70.854  1.00  0.00    -0.011 A  
HETATM   35  C   UNL     1     -12.324  13.465  69.827  1.00  0.00    -0.219 A  
HETATM   36  C   UNL     1     -11.331  12.643  69.256  1.00  0.00    -0.306 A  
BRANCH  36  37
HETATM   37  C   UNL     1     -10.498  13.302  68.232  1.00  0.00    -0.250 C  
HETATM   38  N   UNL     1      -9.212  13.418  68.282  1.00  0.00    -0.207 NA 
HETATM   39  O   UNL     1      -8.854  14.102  67.077  1.00  0.00    -0.214 OA 
HETATM   40  C   UNL     1     -10.024  14.322  66.397  1.00  0.00    -0.292 C  
HETATM   41  N   UNL     1     -11.034  13.808  67.114  1.00  0.00    -0.286 NA 
HETATM   42  O   UNL     1     -10.128  14.909  65.330  1.00  0.00    -0.355 OA 
ENDBRANCH  36  37
ENDBRANCH  28  31
ENDBRANCH  24  25
ENDBRANCH   8  24
ENDBRANCH   3   4
ENDBRANCH   2   3
TORSDOF 10
ENDMDL
MODEL       79
REMARK 921   NORMALIZED FREE ENERGY PREDICTED BY IDOCK:   -5.74 KCAL/MOL
REMARK 922        TOTAL FREE ENERGY PREDICTED BY IDOCK:  -12.01 KCAL/MOL
REMARK 923 INTER-LIGAND FREE ENERGY PREDICTED BY IDOCK:   -9.77 KCAL/MOL
REMARK 924 INTRA-LIGAND FREE ENERGY PREDICTED BY IDOCK:   -2.24 KCAL/MOL
REMARK 927      BINDING AFFINITY PREDICTED BY RF-SCORE:    0.00 PKD
ROOT
HETATM    1  C   UNL     1      -8.691  10.781  62.597  1.00  0.00    -0.295 C  
HETATM    2  C   UNL     1      -9.375  11.077  63.920  1.00  0.00    -0.211 C  
ENDROOT
BRANCH   2   3
HETATM    3  O   UNL     1      -9.856   9.857  64.489  1.00  0.00    -0.261 OA 
BRANCH   3   4
HETATM    4  C   UNL     1      -9.128   9.411  65.513  1.00  0.00    -0.218 A  
HETATM    5  N   UNL     1      -7.890   8.996  65.431  1.00  0.00    -0.098 NA 
HETATM    6  C   UNL     1      -7.544   8.654  66.708  1.00  0.00    -0.086 A  
HETATM    7  C   UNL     1      -8.600   8.850  67.610  1.00  0.00    -0.124 A  
HETATM    8  N   UNL     1      -9.595   9.384  66.808  1.00  0.00    -0.167 NA 
HETATM    9  C   UNL     1      -8.453   8.511  68.980  1.00  0.00    -0.126 A  
HETATM   10  C   UNL     1      -7.191   8.038  69.400  1.00  0.00    -0.071 A  
HETATM   11  C   UNL     1      -6.301   8.185  67.162  1.00  0.00    -0.056 A  
HETATM   12  C   UNL     1      -6.130   7.893  68.513  1.00  0.00    -0.040 A  
BRANCH   9  13
HETATM   13  C   UNL     1      -9.501   8.709  70.009  1.00  0.00    -0.166 C  
HETATM   14  O   UNL     1      -9.882   9.805  70.382  1.00  0.00    -0.259 OA 
BRANCH  13  15
HETATM   15  O   UNL     1      -9.906   7.511  70.511  1.00  0.00    -0.183 OA 
BRANCH  15  16
HETATM   16  C   UNL     1     -11.044   6.920  69.862  1.00  0.00    -0.288 C  
BRANCH  16  17
HETATM   17  C   UNL     1     -10.588   5.944  68.835  1.00  0.00    -0.288 C  
HETATM   18  O   UNL     1      -9.649   4.213  67.779  1.00  0.00    -0.171 OA 
HETATM   19  C   UNL     1      -9.842   4.869  68.972  1.00  0.00    -0.180 C  
HETATM   20  O   UNL     1     -10.942   6.130  67.509  1.00  0.00    -0.316 OA 
HETATM   21  C   UNL     1      -9.305   4.239  70.184  1.00  0.00    -0.228 C  
HETATM   22  C   UNL     1     -10.362   5.018  66.908  1.00  0.00    -0.218 C  
HETATM   23  O   UNL     1     -10.461   4.772  65.712  1.00  0.00    -0.270 OA 
ENDBRANCH  16  17
ENDBRANCH  15  16
ENDBRANCH  13  15
ENDBRANCH   9  13
BRANCH   8  24
HETATM   24  C   UNL     1     -10.832  10.034  67.208  1.00  0.00    -0.217 C  
BRANCH  24  25
HETATM   25  C   UNL     1     -10.804  11.545  67.224  1.00  0.00    -0.301 A  
HETATM   26  C   UNL     1     -11.731  12.355  66.569  1.00  0.00    -0.443 A  
HETATM   27  C   UNL     1      -9.672  13.570  67.994  1.00  0.00    -0.228 A  
HETATM   28  C   UNL     1     -10.588  14.401  67.329  1.00  0.00    -0.279 A  
HETATM   29  C   UNL     1      -9.785  12.174  67.954  1.00  0.00    -0.200 A  
HETATM   30  C   UNL     1     -11.655  13.749  66.677  1.00  0.00    -0.392 A  
BRANCH  28  31
HETATM   31  C   UNL     1     -10.487  15.895  67.377  1.00  0.00    -0.306 A  
HETATM   32  C   UNL     1      -9.693  17.944  66.247  1.00  0.00    -0.278 A  
HETATM   33  C   UNL     1     -10.085  16.601  66.214  1.00  0.00    -0.342 A  
HETATM   34  C   UNL     1      -9.761  18.653  67.434  1.00  0.00    -0.330 A  
HETATM   35  C   UNL     1     -10.256  18.027  68.573  1.00  0.00    -0.392 A  
HETATM   36  C   UNL     1     -10.637  16.669  68.551  1.00  0.00    -0.338 A  
BRANCH  36  37
HETATM   37  C   UNL     1     -11.213  16.169  69.813  1.00  0.00    -0.343 C  
HETATM   38  N   UNL     1     -10.706  16.357  70.987  1.00  0.00     0.398 NA 
HETATM   39  O   UNL     1     -11.611  15.714  71.890  1.00  0.00    -0.401 OA 
HETATM   40  C   UNL     1     -12.618  15.193  71.119  1.00  0.00    -0.367 C  
HETATM   41  N   UNL     1     -12.370  15.495  69.836  1.00  0.00    -0.334 NA 
HETATM   42  O   UNL     1     -13.568  14.543  71.532  1.00  0.00    -0.356 OA 
ENDBRANCH  36  37
ENDBRANCH  28  31
ENDBRANCH  24  25
ENDBRANCH   8  24
ENDBRANCH   3   4
ENDBRANCH   2   3
TORSDOF 10
ENDMDL
MODEL       80
REMARK 921   NORMALIZED FREE ENERGY PREDICTED BY IDOCK:   -5.72 KCAL/MOL
REMARK 922        TOTAL FREE ENERGY PREDICTED BY IDOCK:  -11.98 KCAL/MOL
REMARK 923 INTER-LIGAND FREE ENERGY PREDICTED BY IDOCK:   -8.99 KCAL/MOL
REMARK 924 INTRA-LIGAND FREE ENERGY PREDICTED BY IDOCK:   -2.99 KCAL/MOL
REMARK 927      BINDING AFFINITY PREDICTED BY RF-SCORE:    0.00 PKD
ROOT
HETATM    1  C   UNL     1     -12.256  12.425  64.495  1.00  0.00    -0.509 C  
HETATM    2  C   UNL     1     -11.883  12.650  65.950  1.00  0.00    -0.444 C  
ENDROOT
BRANCH   2   3
HETATM    3  O   UNL     1     -10.887  11.701  66.337  1.00  0.00    -0.266 OA 
BRANCH   3   4
HETATM    4  C   UNL     1     -11.057  11.205  67.564  1.00  0.00    -0.291 A  
HETATM    5  N   UNL     1     -12.158  11.291  68.264  1.00  0.00    -0.623 NA 
HETATM    6  C   UNL     1     -11.888  10.639  69.434  1.00  0.00    -0.253 A  
HETATM    7  C   UNL     1     -10.577  10.143  69.470  1.00  0.00    -0.245 A  
HETATM    8  N   UNL     1     -10.083  10.489  68.223  1.00  0.00    -0.156 NA 
HETATM    9  C   UNL     1     -10.088   9.473  70.620  1.00  0.00    -0.353 A  
HETATM   10  C   UNL     1     -10.991   9.270  71.686  1.00  0.00    -0.433 A  
HETATM   11  C   UNL     1     -12.760  10.417  70.511  1.00  0.00    -0.355 A  
HETATM   12  C   UNL     1     -12.307   9.719  71.628  1.00  0.00    -0.495 A  
BRANCH   9  13
HETATM   13  C   UNL     1      -8.730   8.891  70.738  1.00  0.00    -0.206 C  
HETATM   14  O   UNL     1      -7.746   9.534  71.058  1.00  0.00    -0.319 OA 
BRANCH  13  15
HETATM   15  O   UNL     1      -8.741   7.581  70.370  1.00  0.00    -0.141 OA 
BRANCH  15  16
HETATM   16  C   UNL     1      -8.043   6.684  71.249  1.00  0.00    -0.112 C  
BRANCH  16  17
HETATM   17  C   UNL     1      -8.933   6.290  72.376  1.00  0.00    -0.138 C  
HETATM   18  O   UNL     1      -9.886   6.050  74.383  1.00  0.00    -0.202 OA 
HETATM   19  C   UNL     1      -8.859   6.601  73.652  1.00  0.00    -0.127 C  
HETATM   20  O   UNL     1     -10.015   5.459  72.135  1.00  0.00    -0.172 OA 
HETATM   21  C   UNL     1      -7.941   7.506  74.353  1.00  0.00    -0.216 C  
HETATM   22  C   UNL     1     -10.583   5.369  73.401  1.00  0.00    -0.258 C  
HETATM   23  O   UNL     1     -11.605   4.735  73.636  1.00  0.00    -0.205 OA 
ENDBRANCH  16  17
ENDBRANCH  15  16
ENDBRANCH  13  15
ENDBRANCH   9  13
BRANCH   8  24
HETATM   24  C   UNL     1      -8.872  10.026  67.566  1.00  0.00    -0.128 C  
BRANCH  24  25
HETATM   25  C   UNL     1      -8.934   8.632  66.984  1.00  0.00    -0.152 A  
HETATM   26  C   UNL     1     -10.047   7.796  67.064  1.00  0.00    -0.343 A  
HETATM   27  C   UNL     1      -7.769   6.860  65.767  1.00  0.00    -0.100 A  
HETATM   28  C   UNL     1      -8.875   6.000  65.852  1.00  0.00    -0.155 A  
HETATM   29  C   UNL     1      -7.802   8.152  66.310  1.00  0.00    -0.095 A  
HETATM   30  C   UNL     1     -10.032   6.535  66.455  1.00  0.00    -0.154 A  
BRANCH  28  31
HETATM   31  C   UNL     1      -8.858   4.622  65.263  1.00  0.00    -0.145 A  
HETATM   32  C   UNL     1      -9.246   3.234  63.256  1.00  0.00    -0.095 A  
HETATM   33  C   UNL     1      -8.970   4.467  63.857  1.00  0.00    -0.136 A  
HETATM   34  C   UNL     1      -9.345   2.094  64.035  1.00  0.00    -0.119 A  
HETATM   35  C   UNL     1      -9.130   2.186  65.406  1.00  0.00    -0.102 A  
HETATM   36  C   UNL     1      -8.868   3.428  66.021  1.00  0.00    -0.136 A  
BRANCH  36  37
HETATM   37  C   UNL     1      -8.587   3.354  67.467  1.00  0.00    -0.103 C  
HETATM   38  N   UNL     1      -7.431   3.553  68.009  1.00  0.00    -0.061 NA 
HETATM   39  O   UNL     1      -7.648   3.394  69.414  1.00  0.00    -0.051 OA 
HETATM   40  C   UNL     1      -8.981   3.113  69.568  1.00  0.00    -0.111 C  
HETATM   41  N   UNL     1      -9.556   3.107  68.357  1.00  0.00    -0.132 NA 
HETATM   42  O   UNL     1      -9.543   2.884  70.630  1.00  0.00    -0.156 OA 
ENDBRANCH  36  37
ENDBRANCH  28  31
ENDBRANCH  24  25
ENDBRANCH   8  24
ENDBRANCH   3   4
ENDBRANCH   2   3
TORSDOF 10
ENDMDL
MODEL       81
REMARK 921   NORMALIZED FREE ENERGY PREDICTED BY IDOCK:   -5.65 KCAL/MOL
REMARK 922        TOTAL FREE ENERGY PREDICTED BY IDOCK:  -11.87 KCAL/MOL
REMARK 923 INTER-LIGAND FREE ENERGY PREDICTED BY IDOCK:   -8.78 KCAL/MOL
REMARK 924 INTRA-LIGAND FREE ENERGY PREDICTED BY IDOCK:   -3.09 KCAL/MOL
REMARK 927      BINDING AFFINITY PREDICTED BY RF-SCORE:    0.00 PKD
ROOT
HETATM    1  C   UNL     1      -8.342  15.732  68.953  1.00  0.00    -0.213 C  
HETATM    2  C   UNL     1      -9.848  15.555  68.865  1.00  0.00    -0.219 C  
ENDROOT
BRANCH   2   3
HETATM    3  O   UNL     1     -10.166  14.162  68.910  1.00  0.00    -0.230 OA 
BRANCH   3   4
HETATM    4  C   UNL     1     -10.541  13.653  67.736  1.00  0.00    -0.242 A  
HETATM    5  N   UNL     1     -11.515  14.111  66.993  1.00  0.00    -0.335 NA 
HETATM    6  C   UNL     1     -11.531  13.305  65.890  1.00  0.00    -0.332 A  
HETATM    7  C   UNL     1     -10.547  12.308  65.952  1.00  0.00    -0.256 A  
HETATM    8  N   UNL     1      -9.896  12.592  67.140  1.00  0.00    -0.207 NA 
HETATM    9  C   UNL     1     -10.431  11.341  64.920  1.00  0.00    -0.375 A  
HETATM   10  C   UNL     1     -11.294  11.469  63.810  1.00  0.00    -0.420 A  
HETATM   11  C   UNL     1     -12.371  13.405  64.769  1.00  0.00    -0.444 A  
HETATM   12  C   UNL     1     -12.236  12.490  63.727  1.00  0.00    -0.615 A  
BRANCH   9  13
HETATM   13  C   UNL     1      -9.406  10.271  64.886  1.00  0.00    -0.252 C  
HETATM   14  O   UNL     1      -8.414  10.309  64.179  1.00  0.00    -0.168 OA 
BRANCH  13  15
HETATM   15  O   UNL     1      -9.774   9.236  65.687  1.00  0.00    -0.284 OA 
BRANCH  15  16
HETATM   16  C   UNL     1      -8.699   8.417  66.176  1.00  0.00    -0.151 C  
BRANCH  16  17
HETATM   17  C   UNL     1      -9.020   6.980  65.956  1.00  0.00    -0.107 C  
HETATM   18  O   UNL     1      -9.937   4.943  66.036  1.00  0.00    -0.187 OA 
HETATM   19  C   UNL     1      -9.944   6.231  66.519  1.00  0.00    -0.115 C  
HETATM   20  O   UNL     1      -8.273   6.242  65.053  1.00  0.00    -0.139 OA 
HETATM   21  C   UNL     1     -11.006   6.592  67.465  1.00  0.00    -0.444 C  
HETATM   22  C   UNL     1      -8.901   5.003  65.121  1.00  0.00    -0.153 C  
HETATM   23  O   UNL     1      -8.565   4.040  64.441  1.00  0.00    -0.102 OA 
ENDBRANCH  16  17
ENDBRANCH  15  16
ENDBRANCH  13  15
ENDBRANCH   9  13
BRANCH   8  24
HETATM   24  C   UNL     1      -8.627  12.075  67.626  1.00  0.00    -0.163 C  
BRANCH  24  25
HETATM   25  C   UNL     1      -8.718  11.006  68.691  1.00  0.00    -0.161 A  
HETATM   26  C   UNL     1      -9.902  10.373  69.069  1.00  0.00    -0.222 A  
HETATM   27  C   UNL     1      -7.539   9.652  70.350  1.00  0.00    -0.176 A  
HETATM   28  C   UNL     1      -8.723   9.017  70.754  1.00  0.00    -0.269 A  
HETATM   29  C   UNL     1      -7.534  10.616  69.332  1.00  0.00    -0.135 A  
HETATM   30  C   UNL     1      -9.887   9.359  70.034  1.00  0.00    -0.253 A  
BRANCH  28  31
HETATM   31  C   UNL     1      -8.739   7.975  71.830  1.00  0.00    -0.184 A  
HETATM   32  C   UNL     1      -9.018   7.506  74.240  1.00  0.00    -0.221 A  
HETATM   33  C   UNL     1      -9.228   8.315  73.118  1.00  0.00    -0.293 A  
HETATM   34  C   UNL     1      -8.375   6.288  74.102  1.00  0.00    -0.117 A  
HETATM   35  C   UNL     1      -7.979   5.868  72.836  1.00  0.00    -0.107 A  
HETATM   36  C   UNL     1      -8.172   6.686  71.703  1.00  0.00    -0.111 A  
BRANCH  36  37
HETATM   37  C   UNL     1      -7.771   6.072  70.424  1.00  0.00    -0.097 C  
HETATM   38  N   UNL     1      -8.440   5.164  69.793  1.00  0.00    -0.095 NA 
HETATM   39  O   UNL     1      -7.680   4.897  68.611  1.00  0.00    -0.076 OA 
HETATM   40  C   UNL     1      -6.588   5.724  68.660  1.00  0.00    -0.048 C  
HETATM   41  N   UNL     1      -6.663   6.459  69.779  1.00  0.00    -0.051 NA 
HETATM   42  O   UNL     1      -5.687   5.765  67.834  1.00  0.00    -0.011 OA 
ENDBRANCH  36  37
ENDBRANCH  28  31
ENDBRANCH  24  25
ENDBRANCH   8  24
ENDBRANCH   3   4
ENDBRANCH   2   3
TORSDOF 10
ENDMDL
MODEL       82
REMARK 921   NORMALIZED FREE ENERGY PREDICTED BY IDOCK:   -5.65 KCAL/MOL
REMARK 922        TOTAL FREE ENERGY PREDICTED BY IDOCK:  -11.87 KCAL/MOL
REMARK 923 INTER-LIGAND FREE ENERGY PREDICTED BY IDOCK:  -10.03 KCAL/MOL
REMARK 924 INTRA-LIGAND FREE ENERGY PREDICTED BY IDOCK:   -1.83 KCAL/MOL
REMARK 927      BINDING AFFINITY PREDICTED BY RF-SCORE:    0.00 PKD
ROOT
HETATM    1  C   UNL     1      -8.876  11.190  62.549  1.00  0.00    -0.331 C  
HETATM    2  C   UNL     1      -9.526  10.097  63.378  1.00  0.00    -0.261 C  
ENDROOT
BRANCH   2   3
HETATM    3  O   UNL     1      -9.635  10.532  64.736  1.00  0.00    -0.233 OA 
BRANCH   3   4
HETATM    4  C   UNL     1      -9.187   9.648  65.628  1.00  0.00    -0.215 A  
HETATM    5  N   UNL     1      -8.004   9.091  65.605  1.00  0.00    -0.101 NA 
HETATM    6  C   UNL     1      -7.972   8.278  66.704  1.00  0.00    -0.098 A  
HETATM    7  C   UNL     1      -9.174   8.320  67.424  1.00  0.00    -0.141 A  
HETATM    8  N   UNL     1      -9.921   9.252  66.723  1.00  0.00    -0.224 NA 
HETATM    9  C   UNL     1      -9.356   7.510  68.575  1.00  0.00    -0.142 A  
HETATM   10  C   UNL     1      -8.262   6.723  68.994  1.00  0.00    -0.117 A  
HETATM   11  C   UNL     1      -6.903   7.487  67.152  1.00  0.00    -0.071 A  
HETATM   12  C   UNL     1      -7.053   6.723  68.307  1.00  0.00    -0.086 A  
BRANCH   9  13
HETATM   13  C   UNL     1     -10.578   7.509  69.413  1.00  0.00    -0.223 C  
HETATM   14  O   UNL     1     -11.467   6.683  69.309  1.00  0.00    -0.280 OA 
BRANCH  13  15
HETATM   15  O   UNL     1     -10.586   8.587  70.243  1.00  0.00    -0.216 OA 
BRANCH  15  16
HETATM   16  C   UNL     1     -11.244   8.394  71.505  1.00  0.00    -0.267 C  
BRANCH  16  17
HETATM   17  C   UNL     1     -10.244   8.024  72.544  1.00  0.00    -0.294 C  
HETATM   18  O   UNL     1      -9.082   6.965  74.132  1.00  0.00    -0.176 OA 
HETATM   19  C   UNL     1     -10.172   6.945  73.294  1.00  0.00    -0.258 C  
HETATM   20  O   UNL     1      -9.210   8.897  72.839  1.00  0.00    -0.200 OA 
HETATM   21  C   UNL     1     -10.992   5.729  73.281  1.00  0.00    -0.292 C  
HETATM   22  C   UNL     1      -8.508   8.180  73.803  1.00  0.00    -0.244 C  
HETATM   23  O   UNL     1      -7.477   8.587  74.326  1.00  0.00    -0.297 OA 
ENDBRANCH  16  17
ENDBRANCH  15  16
ENDBRANCH  13  15
ENDBRANCH   9  13
BRANCH   8  24
HETATM   24  C   UNL     1     -11.151   9.916  67.123  1.00  0.00     0.064 C  
BRANCH  24  25
HETATM   25  C   UNL     1     -11.104  11.427  67.145  1.00  0.00    -0.366 A  
HETATM   26  C   UNL     1     -11.981  12.250  66.440  1.00  0.00    -0.286 A  
HETATM   27  C   UNL     1      -9.993  13.435  67.986  1.00  0.00    -0.239 A  
HETATM   28  C   UNL     1     -10.857  14.279  67.271  1.00  0.00    -0.285 A  
HETATM   29  C   UNL     1     -10.121  12.040  67.934  1.00  0.00    -0.199 A  
HETATM   30  C   UNL     1     -11.893  13.643  66.556  1.00  0.00    -0.441 A  
BRANCH  28  31
HETATM   31  C   UNL     1     -10.739  15.771  67.330  1.00  0.00    -0.317 A  
HETATM   32  C   UNL     1      -9.822  17.809  66.275  1.00  0.00    -0.301 A  
HETATM   33  C   UNL     1     -10.229  16.472  66.207  1.00  0.00    -0.343 A  
HETATM   34  C   UNL     1      -9.982  18.519  67.453  1.00  0.00    -0.351 A  
HETATM   35  C   UNL     1     -10.582  17.899  68.544  1.00  0.00    -0.221 A  
HETATM   36  C   UNL     1     -10.979  16.547  68.488  1.00  0.00    -0.350 A  
BRANCH  36  37
HETATM   37  C   UNL     1     -11.669  16.055  69.695  1.00  0.00    -0.276 C  
HETATM   38  N   UNL     1     -12.930  15.786  69.772  1.00  0.00     0.123 NA 
HETATM   39  O   UNL     1     -13.132  15.330  71.112  1.00  0.00    -0.408 OA 
HETATM   40  C   UNL     1     -11.904  15.368  71.720  1.00  0.00    -0.412 C  
HETATM   41  N   UNL     1     -11.002  15.803  70.828  1.00  0.00    -0.322 NA 
HETATM   42  O   UNL     1     -11.676  15.076  72.886  1.00  0.00    -0.340 OA 
ENDBRANCH  36  37
ENDBRANCH  28  31
ENDBRANCH  24  25
ENDBRANCH   8  24
ENDBRANCH   3   4
ENDBRANCH   2   3
TORSDOF 10
ENDMDL
MODEL       83
REMARK 921   NORMALIZED FREE ENERGY PREDICTED BY IDOCK:   -5.64 KCAL/MOL
REMARK 922        TOTAL FREE ENERGY PREDICTED BY IDOCK:  -11.86 KCAL/MOL
REMARK 923 INTER-LIGAND FREE ENERGY PREDICTED BY IDOCK:   -8.84 KCAL/MOL
REMARK 924 INTRA-LIGAND FREE ENERGY PREDICTED BY IDOCK:   -3.01 KCAL/MOL
REMARK 927      BINDING AFFINITY PREDICTED BY RF-SCORE:    0.00 PKD
ROOT
HETATM    1  C   UNL     1     -12.378  12.101  63.529  1.00  0.00    -0.682 C  
HETATM    2  C   UNL     1     -12.288  12.607  64.958  1.00  0.00    -0.497 C  
ENDROOT
BRANCH   2   3
HETATM    3  O   UNL     1     -11.872  11.541  65.815  1.00  0.00    -0.219 OA 
BRANCH   3   4
HETATM    4  C   UNL     1     -10.736  11.782  66.470  1.00  0.00    -0.265 A  
HETATM    5  N   UNL     1     -10.032  12.881  66.376  1.00  0.00    -0.261 NA 
HETATM    6  C   UNL     1      -8.975  12.699  67.223  1.00  0.00    -0.194 A  
HETATM    7  C   UNL     1      -9.014  11.447  67.853  1.00  0.00    -0.153 A  
HETATM    8  N   UNL     1     -10.192  10.899  67.375  1.00  0.00    -0.194 NA 
HETATM    9  C   UNL     1      -7.978  11.050  68.737  1.00  0.00    -0.144 A  
HETATM   10  C   UNL     1      -6.957  11.988  69.004  1.00  0.00    -0.094 A  
HETATM   11  C   UNL     1      -7.946  13.609  67.514  1.00  0.00    -0.189 A  
HETATM   12  C   UNL     1      -6.948  13.249  68.417  1.00  0.00    -0.105 A  
BRANCH   9  13
HETATM   13  C   UNL     1      -7.949   9.762  69.469  1.00  0.00    -0.137 C  
HETATM   14  O   UNL     1      -7.403   8.758  69.046  1.00  0.00    -0.071 OA 
BRANCH  13  15
HETATM   15  O   UNL     1      -8.670   9.852  70.619  1.00  0.00    -0.105 OA 
BRANCH  15  16
HETATM   16  C   UNL     1      -9.099   8.601  71.182  1.00  0.00    -0.209 C  
BRANCH  16  17
HETATM   17  C   UNL     1     -10.574   8.620  71.383  1.00  0.00    -0.264 C  
HETATM   18  O   UNL     1     -12.716   8.045  71.660  1.00  0.00    -0.313 OA 
HETATM   19  C   UNL     1     -11.425   7.619  71.447  1.00  0.00    -0.264 C  
HETATM   20  O   UNL     1     -11.231   9.833  71.514  1.00  0.00    -0.360 OA 
HETATM   21  C   UNL     1     -11.185   6.172  71.437  1.00  0.00    -0.346 C  
HETATM   22  C   UNL     1     -12.544   9.417  71.713  1.00  0.00    -0.387 C  
HETATM   23  O   UNL     1     -13.473  10.192  71.907  1.00  0.00    -0.385 OA 
ENDBRANCH  16  17
ENDBRANCH  15  16
ENDBRANCH  13  15
ENDBRANCH   9  13
BRANCH   8  24
HETATM   24  C   UNL     1     -10.911   9.730  67.858  1.00  0.00    -0.242 C  
BRANCH  24  25
HETATM   25  C   UNL     1     -10.464   8.404  67.288  1.00  0.00    -0.373 A  
HETATM   26  C   UNL     1      -9.411   8.251  66.386  1.00  0.00    -0.287 A  
HETATM   27  C   UNL     1     -10.809   5.986  67.198  1.00  0.00    -0.414 A  
HETATM   28  C   UNL     1      -9.763   5.815  66.278  1.00  0.00    -0.148 A  
HETATM   29  C   UNL     1     -11.144   7.250  67.702  1.00  0.00    -0.071 A  
HETATM   30  C   UNL     1      -9.035   6.976  65.945  1.00  0.00    -0.092 A  
BRANCH  28  31
HETATM   31  C   UNL     1      -9.386   4.467  65.744  1.00  0.00    -0.162 A  
HETATM   32  C   UNL     1      -9.518   2.893  63.844  1.00  0.00    -0.122 A  
HETATM   33  C   UNL     1      -9.571   4.190  64.365  1.00  0.00    -0.162 A  
HETATM   34  C   UNL     1      -9.201   1.830  64.672  1.00  0.00    -0.129 A  
HETATM   35  C   UNL     1      -8.902   2.075  66.008  1.00  0.00    -0.118 A  
HETATM   36  C   UNL     1      -8.971   3.377  66.544  1.00  0.00    -0.158 A  
BRANCH  36  37
HETATM   37  C   UNL     1      -8.552   3.488  67.954  1.00  0.00    -0.099 C  
HETATM   38  N   UNL     1      -7.415   3.951  68.357  1.00  0.00    -0.058 NA 
HETATM   39  O   UNL     1      -7.470   3.881  69.784  1.00  0.00    -0.051 OA 
HETATM   40  C   UNL     1      -8.702   3.367  70.097  1.00  0.00    -0.068 C  
HETATM   41  N   UNL     1      -9.370   3.143  68.956  1.00  0.00    -0.163 NA 
HETATM   42  O   UNL     1      -9.111   3.132  71.225  1.00  0.00    -0.090 OA 
ENDBRANCH  36  37
ENDBRANCH  28  31
ENDBRANCH  24  25
ENDBRANCH   8  24
ENDBRANCH   3   4
ENDBRANCH   2   3
TORSDOF 10
ENDMDL
MODEL       84
REMARK 921   NORMALIZED FREE ENERGY PREDICTED BY IDOCK:   -5.63 KCAL/MOL
REMARK 922        TOTAL FREE ENERGY PREDICTED BY IDOCK:  -11.84 KCAL/MOL
REMARK 923 INTER-LIGAND FREE ENERGY PREDICTED BY IDOCK:   -9.08 KCAL/MOL
REMARK 924 INTRA-LIGAND FREE ENERGY PREDICTED BY IDOCK:   -2.76 KCAL/MOL
REMARK 927      BINDING AFFINITY PREDICTED BY RF-SCORE:    0.00 PKD
ROOT
HETATM    1  C   UNL     1     -11.614  11.997  63.584  1.00  0.00    -0.578 C  
HETATM    2  C   UNL     1     -11.061  13.382  63.869  1.00  0.00    -0.151 C  
ENDROOT
BRANCH   2   3
HETATM    3  O   UNL     1     -11.931  14.063  64.777  1.00  0.00    -0.374 OA 
BRANCH   3   4
HETATM    4  C   UNL     1     -11.346  15.057  65.447  1.00  0.00    -0.328 A  
HETATM    5  N   UNL     1     -10.896  16.162  64.912  1.00  0.00    -0.643 NA 
HETATM    6  C   UNL     1     -10.401  16.888  65.959  1.00  0.00    -0.325 A  
HETATM    7  C   UNL     1     -10.535  16.211  67.179  1.00  0.00    -0.305 A  
HETATM    8  N   UNL     1     -11.192  15.048  66.815  1.00  0.00    -0.339 NA 
HETATM    9  C   UNL     1     -10.040  16.781  68.381  1.00  0.00    -0.285 A  
HETATM   10  C   UNL     1      -9.476  18.072  68.303  1.00  0.00    -0.305 A  
HETATM   11  C   UNL     1      -9.839  18.174  65.918  1.00  0.00    -0.042 A  
HETATM   12  C   UNL     1      -9.391  18.764  67.098  1.00  0.00    -0.315 A  
BRANCH   9  13
HETATM   13  C   UNL     1     -10.162  16.153  69.718  1.00  0.00    -0.208 C  
HETATM   14  O   UNL     1     -11.056  16.408  70.504  1.00  0.00    -0.340 OA 
BRANCH  13  15
HETATM   15  O   UNL     1      -9.106  15.327  69.952  1.00  0.00    -0.145 OA 
BRANCH  15  16
HETATM   16  C   UNL     1      -7.831  15.805  69.493  1.00  0.00    -0.151 C  
BRANCH  16  17
HETATM   17  C   UNL     1      -6.961  14.651  69.136  1.00  0.00    -0.134 C  
HETATM   18  O   UNL     1      -5.547  12.921  69.198  1.00  0.00    -0.069 OA 
HETATM   19  C   UNL     1      -6.190  13.912  69.904  1.00  0.00    -0.136 C  
HETATM   20  O   UNL     1      -6.878  14.240  67.815  1.00  0.00    -0.147 OA 
HETATM   21  C   UNL     1      -6.015  13.925  71.360  1.00  0.00    -0.073 C  
HETATM   22  C   UNL     1      -6.018  13.151  67.917  1.00  0.00    -0.134 C  
HETATM   23  O   UNL     1      -5.692  12.460  66.960  1.00  0.00    -0.286 OA 
ENDBRANCH  16  17
ENDBRANCH  15  16
ENDBRANCH  13  15
ENDBRANCH   9  13
BRANCH   8  24
HETATM   24  C   UNL     1     -11.840  14.065  67.670  1.00  0.00    -0.395 C  
BRANCH  24  25
HETATM   25  C   UNL     1     -11.172  12.711  67.734  1.00  0.00    -0.319 A  
HETATM   26  C   UNL     1     -11.856  11.496  67.702  1.00  0.00    -0.194 A  
HETATM   27  C   UNL     1      -9.081  11.457  67.913  1.00  0.00    -0.164 A  
HETATM   28  C   UNL     1      -9.754  10.226  67.898  1.00  0.00    -0.165 A  
HETATM   29  C   UNL     1      -9.773  12.673  67.820  1.00  0.00    -0.206 A  
HETATM   30  C   UNL     1     -11.152  10.286  67.721  1.00  0.00    -0.335 A  
BRANCH  28  31
HETATM   31  C   UNL     1      -9.024   8.920  67.982  1.00  0.00    -0.140 A  
HETATM   32  C   UNL     1      -8.328   7.037  69.422  1.00  0.00    -0.133 A  
HETATM   33  C   UNL     1      -9.177   8.112  69.138  1.00  0.00    -0.151 A  
HETATM   34  C   UNL     1      -7.340   6.681  68.521  1.00  0.00    -0.087 A  
HETATM   35  C   UNL     1      -7.230   7.379  67.322  1.00  0.00    -0.093 A  
HETATM   36  C   UNL     1      -8.071   8.475  67.037  1.00  0.00    -0.103 A  
BRANCH  36  37
HETATM   37  C   UNL     1      -7.886   9.063  65.697  1.00  0.00    -0.102 C  
HETATM   38  N   UNL     1      -8.800   9.141  64.787  1.00  0.00    -0.185 NA 
HETATM   39  O   UNL     1      -8.169   9.795  63.682  1.00  0.00    -0.136 OA 
HETATM   40  C   UNL     1      -6.883  10.060  64.075  1.00  0.00    -0.126 C  
HETATM   41  N   UNL     1      -6.723   9.617  65.331  1.00  0.00    -0.085 NA 
HETATM   42  O   UNL     1      -6.022  10.590  63.387  1.00  0.00    -0.144 OA 
ENDBRANCH  36  37
ENDBRANCH  28  31
ENDBRANCH  24  25
ENDBRANCH   8  24
ENDBRANCH   3   4
ENDBRANCH   2   3
TORSDOF 10
ENDMDL
MODEL       85
REMARK 921   NORMALIZED FREE ENERGY PREDICTED BY IDOCK:   -5.63 KCAL/MOL
REMARK 922        TOTAL FREE ENERGY PREDICTED BY IDOCK:  -11.84 KCAL/MOL
REMARK 923 INTER-LIGAND FREE ENERGY PREDICTED BY IDOCK:   -9.08 KCAL/MOL
REMARK 924 INTRA-LIGAND FREE ENERGY PREDICTED BY IDOCK:   -2.76 KCAL/MOL
REMARK 927      BINDING AFFINITY PREDICTED BY RF-SCORE:    0.00 PKD
ROOT
HETATM    1  C   UNL     1      -5.325   6.269  70.684  1.00  0.00    -0.014 C  
HETATM    2  C   UNL     1      -5.179   7.446  71.632  1.00  0.00    -0.035 C  
ENDROOT
BRANCH   2   3
HETATM    3  O   UNL     1      -5.744   8.613  71.031  1.00  0.00    -0.032 OA 
BRANCH   3   4
HETATM    4  C   UNL     1      -7.075   8.662  71.084  1.00  0.00    -0.081 A  
HETATM    5  N   UNL     1      -7.789   8.564  72.176  1.00  0.00    -0.258 NA 
HETATM    6  C   UNL     1      -9.087   8.683  71.764  1.00  0.00    -0.247 A  
HETATM    7  C   UNL     1      -9.186   8.846  70.376  1.00  0.00    -0.194 A  
HETATM    8  N   UNL     1      -7.861   8.873  69.973  1.00  0.00    -0.087 NA 
HETATM    9  C   UNL     1     -10.455   8.942  69.747  1.00  0.00    -0.217 A  
HETATM   10  C   UNL     1     -11.594   8.935  70.581  1.00  0.00    -0.251 A  
HETATM   11  C   UNL     1     -10.241   8.684  72.564  1.00  0.00    -0.238 A  
HETATM   12  C   UNL     1     -11.490   8.824  71.964  1.00  0.00    -0.441 A  
BRANCH   9  13
HETATM   13  C   UNL     1     -10.656   9.145  68.293  1.00  0.00    -0.174 C  
HETATM   14  O   UNL     1     -11.229  10.110  67.819  1.00  0.00    -0.289 OA 
BRANCH  13  15
HETATM   15  O   UNL     1     -10.182   8.078  67.595  1.00  0.00    -0.196 OA 
BRANCH  15  16
HETATM   16  C   UNL     1     -11.157   7.083  67.244  1.00  0.00    -0.232 C  
BRANCH  16  17
HETATM   17  C   UNL     1     -10.534   5.731  67.283  1.00  0.00    -0.266 C  
HETATM   18  O   UNL     1      -9.642   3.791  67.941  1.00  0.00    -0.181 OA 
HETATM   19  C   UNL     1     -10.176   5.002  68.318  1.00  0.00    -0.073 C  
HETATM   20  O   UNL     1     -10.238   5.080  66.097  1.00  0.00    -0.220 OA 
HETATM   21  C   UNL     1     -10.360   5.242  69.753  1.00  0.00    -0.369 C  
HETATM   22  C   UNL     1      -9.719   3.877  66.562  1.00  0.00    -0.164 C  
HETATM   23  O   UNL     1      -9.350   2.972  65.823  1.00  0.00    -0.150 OA 
ENDBRANCH  16  17
ENDBRANCH  15  16
ENDBRANCH  13  15
ENDBRANCH   9  13
BRANCH   8  24
HETATM   24  C   UNL     1      -7.310   9.275  68.689  1.00  0.00    -0.076 C  
BRANCH  24  25
HETATM   25  C   UNL     1      -7.610  10.694  68.263  1.00  0.00    -0.097 A  
HETATM   26  C   UNL     1      -7.605  11.791  69.124  1.00  0.00     0.080 A  
HETATM   27  C   UNL     1      -8.217  12.207  66.441  1.00  0.00     0.157 A  
HETATM   28  C   UNL     1      -8.232  13.319  67.297  1.00  0.00    -0.164 A  
HETATM   29  C   UNL     1      -7.901  10.925  66.911  1.00  0.00    -0.135 A  
HETATM   30  C   UNL     1      -7.849  13.079  68.632  1.00  0.00    -0.050 A  
BRANCH  28  31
HETATM   31  C   UNL     1      -8.554  14.697  66.803  1.00  0.00    -0.195 A  
HETATM   32  C   UNL     1      -7.933  17.089  66.819  1.00  0.00    -0.274 A  
HETATM   33  C   UNL     1      -7.607  15.738  66.986  1.00  0.00    -0.257 A  
HETATM   34  C   UNL     1      -9.200  17.445  66.389  1.00  0.00    -0.272 A  
HETATM   35  C   UNL     1     -10.122  16.447  66.092  1.00  0.00    -0.364 A  
HETATM   36  C   UNL     1      -9.807  15.085  66.274  1.00  0.00    -0.307 A  
BRANCH  36  37
HETATM   37  C   UNL     1     -10.858  14.144  65.844  1.00  0.00    -0.294 C  
HETATM   38  N   UNL     1     -11.676  13.532  66.634  1.00  0.00    -0.366 NA 
HETATM   39  O   UNL     1     -12.513  12.755  65.774  1.00  0.00    -0.579 OA 
HETATM   40  C   UNL     1     -12.090  13.008  64.495  1.00  0.00    -0.410 C  
HETATM   41  N   UNL     1     -11.076  13.883  64.549  1.00  0.00    -0.380 NA 
HETATM   42  O   UNL     1     -12.548  12.502  63.479  1.00  0.00    -0.690 OA 
ENDBRANCH  36  37
ENDBRANCH  28  31
ENDBRANCH  24  25
ENDBRANCH   8  24
ENDBRANCH   3   4
ENDBRANCH   2   3
TORSDOF 10
ENDMDL
MODEL       86
REMARK 921   NORMALIZED FREE ENERGY PREDICTED BY IDOCK:   -5.61 KCAL/MOL
REMARK 922        TOTAL FREE ENERGY PREDICTED BY IDOCK:  -11.82 KCAL/MOL
REMARK 923 INTER-LIGAND FREE ENERGY PREDICTED BY IDOCK:   -9.76 KCAL/MOL
REMARK 924 INTRA-LIGAND FREE ENERGY PREDICTED BY IDOCK:   -2.05 KCAL/MOL
REMARK 927      BINDING AFFINITY PREDICTED BY RF-SCORE:    0.00 PKD
ROOT
HETATM    1  C   UNL     1      -5.623   9.262  73.153  1.00  0.00    -0.012 C  
HETATM    2  C   UNL     1      -5.852   8.941  71.687  1.00  0.00    -0.060 C  
ENDROOT
BRANCH   2   3
HETATM    3  O   UNL     1      -6.958   9.705  71.200  1.00  0.00    -0.304 OA 
BRANCH   3   4
HETATM    4  C   UNL     1      -8.106   9.028  71.151  1.00  0.00    -0.139 A  
HETATM    5  N   UNL     1      -8.915   8.845  72.162  1.00  0.00    -0.384 NA 
HETATM    6  C   UNL     1      -9.958   8.121  71.656  1.00  0.00    -0.192 A  
HETATM    7  C   UNL     1      -9.788   7.833  70.294  1.00  0.00    -0.184 A  
HETATM    8  N   UNL     1      -8.599   8.475  69.990  1.00  0.00    -0.131 NA 
HETATM    9  C   UNL     1     -10.743   7.051  69.596  1.00  0.00    -0.265 A  
HETATM   10  C   UNL     1     -11.890   6.639  70.307  1.00  0.00    -0.378 A  
HETATM   11  C   UNL     1     -11.114   7.699  72.332  1.00  0.00    -0.362 A  
HETATM   12  C   UNL     1     -12.081   6.969  71.645  1.00  0.00    -0.384 A  
BRANCH   9  13
HETATM   13  C   UNL     1     -10.662   6.721  68.153  1.00  0.00    -0.236 C  
HETATM   14  O   UNL     1     -10.964   7.498  67.265  1.00  0.00    -0.264 OA 
BRANCH  13  15
HETATM   15  O   UNL     1     -10.281   5.426  67.983  1.00  0.00    -0.173 OA 
BRANCH  15  16
HETATM   16  C   UNL     1      -9.043   5.056  68.612  1.00  0.00    -0.110 C  
BRANCH  16  17
HETATM   17  C   UNL     1      -9.213   3.768  69.338  1.00  0.00    -0.156 C  
HETATM   18  O   UNL     1      -9.168   1.617  69.945  1.00  0.00    -0.084 OA 
HETATM   19  C   UNL     1      -8.843   2.553  68.991  1.00  0.00    -0.098 C  
HETATM   20  O   UNL     1      -9.862   3.752  70.562  1.00  0.00    -0.186 OA 
HETATM   21  C   UNL     1      -8.068   2.097  67.833  1.00  0.00    -0.066 C  
HETATM   22  C   UNL     1      -9.778   2.407  70.904  1.00  0.00    -0.058 C  
HETATM   23  O   UNL     1     -10.214   1.951  71.954  1.00  0.00    -0.161 OA 
ENDBRANCH  16  17
ENDBRANCH  15  16
ENDBRANCH  13  15
ENDBRANCH   9  13
BRANCH   8  24
HETATM   24  C   UNL     1      -8.030   8.761  68.683  1.00  0.00    -0.107 C  
BRANCH  24  25
HETATM   25  C   UNL     1      -8.293  10.148  68.143  1.00  0.00    -0.117 A  
HETATM   26  C   UNL     1      -7.333  10.940  67.513  1.00  0.00    -0.096 A  
HETATM   27  C   UNL     1      -9.905  11.957  67.823  1.00  0.00    -0.187 A  
HETATM   28  C   UNL     1      -8.948  12.774  67.201  1.00  0.00    -0.214 A  
HETATM   29  C   UNL     1      -9.588  10.668  68.273  1.00  0.00    -0.167 A  
HETATM   30  C   UNL     1      -7.677  12.197  67.001  1.00  0.00    -0.112 A  
BRANCH  28  31
HETATM   31  C   UNL     1      -9.278  14.148  66.704  1.00  0.00    -0.272 A  
HETATM   32  C   UNL     1      -9.251  16.573  67.178  1.00  0.00    -0.226 A  
HETATM   33  C   UNL     1      -8.769  15.278  67.395  1.00  0.00    -0.194 A  
HETATM   34  C   UNL     1     -10.209  16.798  66.204  1.00  0.00    -0.363 A  
HETATM   35  C   UNL     1     -10.652  15.732  65.427  1.00  0.00    -0.441 A  
HETATM   36  C   UNL     1     -10.184  14.421  65.652  1.00  0.00    -0.371 A  
BRANCH  36  37
HETATM   37  C   UNL     1     -10.687  13.414  64.700  1.00  0.00    -0.411 C  
HETATM   38  N   UNL     1      -9.948  12.604  64.016  1.00  0.00    -0.250 NA 
HETATM   39  O   UNL     1     -10.867  11.813  63.257  1.00  0.00    -0.374 OA 
HETATM   40  C   UNL     1     -12.121  12.251  63.596  1.00  0.00    -0.554 C  
HETATM   41  N   UNL     1     -11.998  13.231  64.503  1.00  0.00    -0.381 NA 
HETATM   42  O   UNL     1     -13.172  11.832  63.130  1.00  0.00    -0.538 OA 
ENDBRANCH  36  37
ENDBRANCH  28  31
ENDBRANCH  24  25
ENDBRANCH   8  24
ENDBRANCH   3   4
ENDBRANCH   2   3
TORSDOF 10
ENDMDL
MODEL       87
REMARK 921   NORMALIZED FREE ENERGY PREDICTED BY IDOCK:   -5.61 KCAL/MOL
REMARK 922        TOTAL FREE ENERGY PREDICTED BY IDOCK:  -11.80 KCAL/MOL
REMARK 923 INTER-LIGAND FREE ENERGY PREDICTED BY IDOCK:   -8.50 KCAL/MOL
REMARK 924 INTRA-LIGAND FREE ENERGY PREDICTED BY IDOCK:   -3.30 KCAL/MOL
REMARK 927      BINDING AFFINITY PREDICTED BY RF-SCORE:    0.00 PKD
ROOT
HETATM    1  C   UNL     1     -12.600   7.744  71.719  1.00  0.00    -0.356 C  
HETATM    2  C   UNL     1     -12.613   9.229  72.035  1.00  0.00    -0.390 C  
ENDROOT
BRANCH   2   3
HETATM    3  O   UNL     1     -13.320   9.927  71.006  1.00  0.00    -0.374 OA 
BRANCH   3   4
HETATM    4  C   UNL     1     -12.929  11.191  70.840  1.00  0.00    -0.187 A  
HETATM    5  N   UNL     1     -13.061  12.142  71.728  1.00  0.00    -0.420 NA 
HETATM    6  C   UNL     1     -12.514  13.251  71.145  1.00  0.00    -0.308 A  
HETATM    7  C   UNL     1     -12.039  12.987  69.853  1.00  0.00    -0.277 A  
HETATM    8  N   UNL     1     -12.284  11.632  69.706  1.00  0.00    -0.253 NA 
HETATM    9  C   UNL     1     -11.476  14.022  69.063  1.00  0.00    -0.337 A  
HETATM   10  C   UNL     1     -11.354  15.297  69.656  1.00  0.00    -0.304 A  
HETATM   11  C   UNL     1     -12.373  14.530  71.705  1.00  0.00    -0.408 A  
HETATM   12  C   UNL     1     -11.779  15.544  70.958  1.00  0.00    -0.423 A  
BRANCH   9  13
HETATM   13  C   UNL     1     -10.923  13.832  67.702  1.00  0.00    -0.264 C  
HETATM   14  O   UNL     1     -11.525  14.123  66.683  1.00  0.00    -0.337 OA 
BRANCH  13  15
HETATM   15  O   UNL     1      -9.705  13.229  67.763  1.00  0.00    -0.205 OA 
BRANCH  15  16
HETATM   16  C   UNL     1      -8.573  14.104  67.638  1.00  0.00    -0.189 C  
BRANCH  16  17
HETATM   17  C   UNL     1      -7.489  13.659  68.555  1.00  0.00    -0.119 C  
HETATM   18  O   UNL     1      -5.881  12.493  69.581  1.00  0.00    -0.094 OA 
HETATM   19  C   UNL     1      -6.828  12.521  68.583  1.00  0.00    -0.088 C  
HETATM   20  O   UNL     1      -7.063  14.499  69.571  1.00  0.00    -0.153 OA 
HETATM   21  C   UNL     1      -6.880  11.375  67.669  1.00  0.00    -0.080 C  
HETATM   22  C   UNL     1      -6.050  13.742  70.152  1.00  0.00    -0.139 C  
HETATM   23  O   UNL     1      -5.372  14.135  71.093  1.00  0.00    -0.133 OA 
ENDBRANCH  16  17
ENDBRANCH  15  16
ENDBRANCH  13  15
ENDBRANCH   9  13
BRANCH   8  24
HETATM   24  C   UNL     1     -11.781  10.723  68.688  1.00  0.00    -0.219 C  
BRANCH  24  25
HETATM   25  C   UNL     1     -10.654   9.814  69.119  1.00  0.00    -0.237 A  
HETATM   26  C   UNL     1      -9.582  10.216  69.916  1.00  0.00    -0.172 A  
HETATM   27  C   UNL     1      -9.673   7.576  69.036  1.00  0.00    -0.162 A  
HETATM   28  C   UNL     1      -8.578   7.967  69.823  1.00  0.00    -0.131 A  
HETATM   29  C   UNL     1     -10.694   8.476  68.702  1.00  0.00    -0.082 A  
HETATM   30  C   UNL     1      -8.604   9.292  70.306  1.00  0.00    -0.234 A  
BRANCH  28  31
HETATM   31  C   UNL     1      -7.488   7.011  70.199  1.00  0.00    -0.086 A  
HETATM   32  C   UNL     1      -5.345   5.970  69.545  1.00  0.00    -0.008 A  
HETATM   33  C   UNL     1      -6.283   7.003  69.450  1.00  0.00    -0.034 A  
HETATM   34  C   UNL     1      -5.540   4.942  70.452  1.00  0.00    -0.015 A  
HETATM   35  C   UNL     1      -6.654   4.973  71.285  1.00  0.00    -0.038 A  
HETATM   36  C   UNL     1      -7.613   6.002  71.182  1.00  0.00    -0.100 A  
BRANCH  36  37
HETATM   37  C   UNL     1      -8.695   5.940  72.183  1.00  0.00    -0.136 C  
HETATM   38  N   UNL     1      -8.810   6.726  73.201  1.00  0.00    -0.123 NA 
HETATM   39  O   UNL     1     -10.006   6.303  73.864  1.00  0.00    -0.189 OA 
HETATM   40  C   UNL     1     -10.506   5.263  73.125  1.00  0.00    -0.212 C  
HETATM   41  N   UNL     1      -9.696   5.057  72.077  1.00  0.00    -0.159 NA 
HETATM   42  O   UNL     1     -11.511   4.617  73.392  1.00  0.00    -0.328 OA 
ENDBRANCH  36  37
ENDBRANCH  28  31
ENDBRANCH  24  25
ENDBRANCH   8  24
ENDBRANCH   3   4
ENDBRANCH   2   3
TORSDOF 10
ENDMDL
MODEL       88
REMARK 921   NORMALIZED FREE ENERGY PREDICTED BY IDOCK:   -5.60 KCAL/MOL
REMARK 922        TOTAL FREE ENERGY PREDICTED BY IDOCK:  -11.80 KCAL/MOL
REMARK 923 INTER-LIGAND FREE ENERGY PREDICTED BY IDOCK:   -8.93 KCAL/MOL
REMARK 924 INTRA-LIGAND FREE ENERGY PREDICTED BY IDOCK:   -2.87 KCAL/MOL
REMARK 927      BINDING AFFINITY PREDICTED BY RF-SCORE:    0.00 PKD
ROOT
HETATM    1  C   UNL     1      -8.439   8.118  73.663  1.00  0.00    -0.308 C  
HETATM    2  C   UNL     1      -9.616   8.252  72.714  1.00  0.00    -0.268 C  
ENDROOT
BRANCH   2   3
HETATM    3  O   UNL     1      -9.137   8.562  71.403  1.00  0.00    -0.166 OA 
BRANCH   3   4
HETATM    4  C   UNL     1      -9.029   7.503  70.599  1.00  0.00    -0.154 A  
HETATM    5  N   UNL     1      -9.654   6.367  70.764  1.00  0.00    -0.178 NA 
HETATM    6  C   UNL     1      -9.265   5.590  69.710  1.00  0.00    -0.137 A  
HETATM    7  C   UNL     1      -8.361   6.256  68.870  1.00  0.00    -0.120 A  
HETATM    8  N   UNL     1      -8.266   7.509  69.453  1.00  0.00    -0.128 NA 
HETATM    9  C   UNL     1      -7.803   5.601  67.742  1.00  0.00    -0.097 A  
HETATM   10  C   UNL     1      -8.246   4.289  67.469  1.00  0.00    -0.099 A  
HETATM   11  C   UNL     1      -9.687   4.286  69.405  1.00  0.00    -0.257 A  
HETATM   12  C   UNL     1      -9.183   3.648  68.275  1.00  0.00    -0.218 A  
BRANCH   9  13
HETATM   13  C   UNL     1      -6.865   6.233  66.785  1.00  0.00    -0.062 C  
HETATM   14  O   UNL     1      -5.715   6.525  67.061  1.00  0.00    -0.012 OA 
BRANCH  13  15
HETATM   15  O   UNL     1      -7.493   6.496  65.608  1.00  0.00    -0.077 OA 
BRANCH  15  16
HETATM   16  C   UNL     1      -6.700   7.173  64.619  1.00  0.00    -0.046 C  
BRANCH  16  17
HETATM   17  C   UNL     1      -7.404   8.404  64.167  1.00  0.00    -0.101 C  
HETATM   18  O   UNL     1      -8.038  10.521  63.832  1.00  0.00    -0.129 OA 
HETATM   19  C   UNL     1      -7.172   9.664  64.470  1.00  0.00    -0.121 C  
HETATM   20  O   UNL     1      -8.488   8.297  63.310  1.00  0.00    -0.092 OA 
HETATM   21  C   UNL     1      -6.096  10.261  65.268  1.00  0.00    -0.127 C  
HETATM   22  C   UNL     1      -8.819   9.634  63.113  1.00  0.00    -0.240 C  
HETATM   23  O   UNL     1      -9.729  10.000  62.379  1.00  0.00    -0.197 OA 
ENDBRANCH  16  17
ENDBRANCH  15  16
ENDBRANCH  13  15
ENDBRANCH   9  13
BRANCH   8  24
HETATM   24  C   UNL     1      -7.688   8.724  68.903  1.00  0.00    -0.095 C  
BRANCH  24  25
HETATM   25  C   UNL     1      -8.625   9.588  68.090  1.00  0.00    -0.120 A  
HETATM   26  C   UNL     1      -9.779   9.119  67.463  1.00  0.00    -0.204 A  
HETATM   27  C   UNL     1      -9.125  11.812  67.209  1.00  0.00    -0.171 A  
HETATM   28  C   UNL     1     -10.281  11.355  66.558  1.00  0.00    -0.259 A  
HETATM   29  C   UNL     1      -8.321  10.951  67.969  1.00  0.00    -0.122 A  
HETATM   30  C   UNL     1     -10.616  10.001  66.768  1.00  0.00    -0.229 A  
BRANCH  28  31
HETATM   31  C   UNL     1     -11.155  12.269  65.755  1.00  0.00    -0.362 A  
HETATM   32  C   UNL     1     -11.954  12.906  63.505  1.00  0.00    -0.629 A  
HETATM   33  C   UNL     1     -11.397  11.975  64.388  1.00  0.00    -0.411 A  
HETATM   34  C   UNL     1     -12.361  14.143  63.975  1.00  0.00    -0.315 A  
HETATM   35  C   UNL     1     -12.244  14.428  65.331  1.00  0.00    -0.362 A  
HETATM   36  C   UNL     1     -11.668  13.501  66.224  1.00  0.00    -0.401 A  
BRANCH  36  37
HETATM   37  C   UNL     1     -11.684  13.914  67.639  1.00  0.00    -0.368 C  
HETATM   38  N   UNL     1     -11.325  15.075  68.078  1.00  0.00    -0.316 NA 
HETATM   39  O   UNL     1     -11.528  15.017  69.493  1.00  0.00    -0.259 OA 
HETATM   40  C   UNL     1     -12.021  13.766  69.759  1.00  0.00    -0.344 C  
HETATM   41  N   UNL     1     -12.130  13.097  68.602  1.00  0.00    -0.268 NA 
HETATM   42  O   UNL     1     -12.294  13.329  70.869  1.00  0.00    -0.364 OA 
ENDBRANCH  36  37
ENDBRANCH  28  31
ENDBRANCH  24  25
ENDBRANCH   8  24
ENDBRANCH   3   4
ENDBRANCH   2   3
TORSDOF 10
ENDMDL
MODEL       89
REMARK 921   NORMALIZED FREE ENERGY PREDICTED BY IDOCK:   -5.60 KCAL/MOL
REMARK 922        TOTAL FREE ENERGY PREDICTED BY IDOCK:  -11.80 KCAL/MOL
REMARK 923 INTER-LIGAND FREE ENERGY PREDICTED BY IDOCK:   -9.60 KCAL/MOL
REMARK 924 INTRA-LIGAND FREE ENERGY PREDICTED BY IDOCK:   -2.20 KCAL/MOL
REMARK 927      BINDING AFFINITY PREDICTED BY RF-SCORE:    0.00 PKD
ROOT
HETATM    1  C   UNL     1      -5.381   7.109  68.785  1.00  0.00    -0.018 C  
HETATM    2  C   UNL     1      -5.394   7.477  70.258  1.00  0.00    -0.023 C  
ENDROOT
BRANCH   2   3
HETATM    3  O   UNL     1      -5.759   8.853  70.401  1.00  0.00    -0.029 OA 
BRANCH   3   4
HETATM    4  C   UNL     1      -7.075   9.064  70.443  1.00  0.00    -0.065 A  
HETATM    5  N   UNL     1      -7.855   8.748  71.443  1.00  0.00    -0.184 NA 
HETATM    6  C   UNL     1      -9.103   9.158  71.064  1.00  0.00    -0.237 A  
HETATM    7  C   UNL     1      -9.102   9.735  69.787  1.00  0.00    -0.225 A  
HETATM    8  N   UNL     1      -7.763   9.698  69.433  1.00  0.00    -0.091 NA 
HETATM    9  C   UNL     1     -10.310  10.184  69.195  1.00  0.00    -0.237 A  
HETATM   10  C   UNL     1     -11.487  10.087  69.968  1.00  0.00    -0.310 A  
HETATM   11  C   UNL     1     -10.291   9.081  71.808  1.00  0.00    -0.407 A  
HETATM   12  C   UNL     1     -11.477   9.561  71.256  1.00  0.00    -0.447 A  
BRANCH   9  13
HETATM   13  C   UNL     1     -10.402  10.830  67.865  1.00  0.00    -0.185 C  
HETATM   14  O   UNL     1     -10.244  12.025  67.682  1.00  0.00    -0.195 OA 
BRANCH  13  15
HETATM   15  O   UNL     1     -10.755   9.920  66.917  1.00  0.00    -0.203 OA 
BRANCH  15  16
HETATM   16  C   UNL     1      -9.879   9.835  65.781  1.00  0.00    -0.290 C  
BRANCH  16  17
HETATM   17  C   UNL     1     -10.338  10.773  64.721  1.00  0.00    -0.310 C  
HETATM   18  O   UNL     1     -10.528  11.976  62.847  1.00  0.00    -0.198 OA 
HETATM   19  C   UNL     1      -9.787  11.064  63.561  1.00  0.00    -0.359 C  
HETATM   20  O   UNL     1     -11.500  11.503  64.908  1.00  0.00    -0.187 OA 
HETATM   21  C   UNL     1      -8.606  10.491  62.906  1.00  0.00    -0.205 C  
HETATM   22  C   UNL     1     -11.585  12.204  63.710  1.00  0.00    -0.470 C  
HETATM   23  O   UNL     1     -12.506  12.966  63.440  1.00  0.00    -0.695 OA 
ENDBRANCH  16  17
ENDBRANCH  15  16
ENDBRANCH  13  15
ENDBRANCH   9  13
BRANCH   8  24
HETATM   24  C   UNL     1      -7.094  10.382  68.338  1.00  0.00    -0.078 C  
BRANCH  24  25
HETATM   25  C   UNL     1      -6.963  11.881  68.483  1.00  0.00    -0.085 A  
HETATM   26  C   UNL     1      -6.645  12.529  69.677  1.00  0.00     0.002 A  
HETATM   27  C   UNL     1      -7.085  14.068  67.399  1.00  0.00    -0.096 A  
HETATM   28  C   UNL     1      -6.782  14.738  68.595  1.00  0.00    -0.088 A  
HETATM   29  C   UNL     1      -7.161  12.670  67.342  1.00  0.00    -0.138 A  
HETATM   30  C   UNL     1      -6.498  13.921  69.709  1.00  0.00    -0.095 A  
BRANCH  28  31
HETATM   31  C   UNL     1      -6.684  16.231  68.665  1.00  0.00    -0.138 A  
HETATM   32  C   UNL     1      -5.462  18.175  69.580  1.00  0.00    -0.209 A  
HETATM   33  C   UNL     1      -5.519  16.824  69.218  1.00  0.00    -0.142 A  
HETATM   34  C   UNL     1      -6.544  19.002  69.334  1.00  0.00    -0.320 A  
HETATM   35  C   UNL     1      -7.664  18.482  68.691  1.00  0.00    -0.332 A  
HETATM   36  C   UNL     1      -7.735  17.119  68.338  1.00  0.00    -0.237 A  
BRANCH  36  37
HETATM   37  C   UNL     1      -8.951  16.736  67.596  1.00  0.00    -0.210 C  
HETATM   38  N   UNL     1     -10.058  16.346  68.135  1.00  0.00    -0.244 NA 
HETATM   39  O   UNL     1     -10.942  16.107  67.036  1.00  0.00    -0.256 OA 
HETATM   40  C   UNL     1     -10.234  16.406  65.901  1.00  0.00    -0.359 C  
HETATM   41  N   UNL     1      -9.007  16.811  66.260  1.00  0.00    -0.346 NA 
HETATM   42  O   UNL     1     -10.647  16.299  64.755  1.00  0.00    -0.658 OA 
ENDBRANCH  36  37
ENDBRANCH  28  31
ENDBRANCH  24  25
ENDBRANCH   8  24
ENDBRANCH   3   4
ENDBRANCH   2   3
TORSDOF 10
ENDMDL
MODEL       90
REMARK 921   NORMALIZED FREE ENERGY PREDICTED BY IDOCK:   -5.58 KCAL/MOL
REMARK 922        TOTAL FREE ENERGY PREDICTED BY IDOCK:  -11.76 KCAL/MOL
REMARK 923 INTER-LIGAND FREE ENERGY PREDICTED BY IDOCK:   -9.50 KCAL/MOL
REMARK 924 INTRA-LIGAND FREE ENERGY PREDICTED BY IDOCK:   -2.26 KCAL/MOL
REMARK 927      BINDING AFFINITY PREDICTED BY RF-SCORE:    0.00 PKD
ROOT
HETATM    1  C   UNL     1      -8.357   4.038  71.286  1.00  0.00    -0.091 C  
HETATM    2  C   UNL     1      -9.487   5.047  71.181  1.00  0.00    -0.155 C  
ENDROOT
BRANCH   2   3
HETATM    3  O   UNL     1      -9.008   6.339  71.563  1.00  0.00    -0.142 OA 
BRANCH   3   4
HETATM    4  C   UNL     1      -9.930   7.301  71.501  1.00  0.00    -0.182 A  
HETATM    5  N   UNL     1     -10.993   7.374  72.259  1.00  0.00    -0.240 NA 
HETATM    6  C   UNL     1     -11.634   8.514  71.864  1.00  0.00    -0.341 A  
HETATM    7  C   UNL     1     -10.958   9.164  70.822  1.00  0.00    -0.270 A  
HETATM    8  N   UNL     1      -9.835   8.373  70.643  1.00  0.00    -0.178 NA 
HETATM    9  C   UNL     1     -11.488  10.345  70.241  1.00  0.00    -0.406 A  
HETATM   10  C   UNL     1     -12.675  10.866  70.799  1.00  0.00    -0.431 A  
HETATM   11  C   UNL     1     -12.810   9.063  72.398  1.00  0.00    -0.454 A  
HETATM   12  C   UNL     1     -13.317  10.247  71.868  1.00  0.00    -0.487 A  
BRANCH   9  13
HETATM   13  C   UNL     1     -10.831  11.114  69.158  1.00  0.00    -0.238 C  
HETATM   14  O   UNL     1      -9.674  11.492  69.205  1.00  0.00    -0.033 OA 
BRANCH  13  15
HETATM   15  O   UNL     1     -11.719  11.389  68.165  1.00  0.00    -0.459 OA 
BRANCH  15  16
HETATM   16  C   UNL     1     -11.749  12.755  67.720  1.00  0.00    -0.359 C  
BRANCH  16  17
HETATM   17  C   UNL     1     -11.581  12.806  66.242  1.00  0.00    -0.379 C  
HETATM   18  O   UNL     1     -10.824  12.569  64.152  1.00  0.00    -0.326 OA 
HETATM   19  C   UNL     1     -10.609  12.334  65.490  1.00  0.00    -0.269 C  
HETATM   20  O   UNL     1     -12.536  13.442  65.466  1.00  0.00    -0.475 OA 
HETATM   21  C   UNL     1      -9.438  11.530  65.856  1.00  0.00    -0.251 C  
HETATM   22  C   UNL     1     -12.034  13.239  64.185  1.00  0.00    -0.447 C  
HETATM   23  O   UNL     1     -12.602  13.626  63.170  1.00  0.00    -0.792 OA 
ENDBRANCH  16  17
ENDBRANCH  15  16
ENDBRANCH  13  15
ENDBRANCH   9  13
BRANCH   8  24
HETATM   24  C   UNL     1      -8.628   8.669  69.888  1.00  0.00    -0.131 C  
BRANCH  24  25
HETATM   25  C   UNL     1      -8.477   7.931  68.578  1.00  0.00    -0.128 A  
HETATM   26  C   UNL     1      -9.392   7.999  67.528  1.00  0.00    -0.171 A  
HETATM   27  C   UNL     1      -7.136   6.397  67.226  1.00  0.00    -0.073 A  
HETATM   28  C   UNL     1      -8.055   6.442  66.166  1.00  0.00    -0.117 A  
HETATM   29  C   UNL     1      -7.336   7.135  68.401  1.00  0.00    -0.100 A  
HETATM   30  C   UNL     1      -9.148   7.318  66.329  1.00  0.00    -0.186 A  
BRANCH  28  31
HETATM   31  C   UNL     1      -7.845   5.670  64.899  1.00  0.00    -0.110 A  
HETATM   32  C   UNL     1      -7.697   5.755  62.434  1.00  0.00    -0.074 A  
HETATM   33  C   UNL     1      -7.618   6.372  63.688  1.00  0.00    -0.091 A  
HETATM   34  C   UNL     1      -7.930   4.393  62.349  1.00  0.00    -0.066 A  
HETATM   35  C   UNL     1      -8.046   3.649  63.519  1.00  0.00    -0.088 A  
HETATM   36  C   UNL     1      -7.985   4.267  64.785  1.00  0.00    -0.090 A  
BRANCH  36  37
HETATM   37  C   UNL     1      -8.047   3.338  65.929  1.00  0.00    -0.093 C  
HETATM   38  N   UNL     1      -7.118   2.502  66.258  1.00  0.00    -0.062 NA 
HETATM   39  O   UNL     1      -7.612   1.840  67.426  1.00  0.00    -0.058 OA 
HETATM   40  C   UNL     1      -8.841   2.387  67.688  1.00  0.00    -0.135 C  
HETATM   41  N   UNL     1      -9.093   3.326  66.764  1.00  0.00    -0.158 NA 
HETATM   42  O   UNL     1      -9.589   2.057  68.598  1.00  0.00    -0.170 OA 
ENDBRANCH  36  37
ENDBRANCH  28  31
ENDBRANCH  24  25
ENDBRANCH   8  24
ENDBRANCH   3   4
ENDBRANCH   2   3
TORSDOF 10
ENDMDL
MODEL       91
REMARK 921   NORMALIZED FREE ENERGY PREDICTED BY IDOCK:   -5.57 KCAL/MOL
REMARK 922        TOTAL FREE ENERGY PREDICTED BY IDOCK:  -11.75 KCAL/MOL
REMARK 923 INTER-LIGAND FREE ENERGY PREDICTED BY IDOCK:   -9.62 KCAL/MOL
REMARK 924 INTRA-LIGAND FREE ENERGY PREDICTED BY IDOCK:   -2.13 KCAL/MOL
REMARK 927      BINDING AFFINITY PREDICTED BY RF-SCORE:    0.00 PKD
ROOT
HETATM    1  C   UNL     1     -13.407  10.304  71.853  1.00  0.00    -0.487 C  
HETATM    2  C   UNL     1     -13.690   8.815  71.953  1.00  0.00    -0.433 C  
ENDROOT
BRANCH   2   3
HETATM    3  O   UNL     1     -12.802   8.104  71.088  1.00  0.00    -0.223 OA 
BRANCH   3   4
HETATM    4  C   UNL     1     -11.520   8.169  71.452  1.00  0.00    -0.263 A  
HETATM    5  N   UNL     1     -11.074   7.988  72.668  1.00  0.00    -0.371 NA 
HETATM    6  C   UNL     1      -9.718   8.129  72.574  1.00  0.00    -0.287 A  
HETATM    7  C   UNL     1      -9.308   8.419  71.265  1.00  0.00    -0.187 A  
HETATM    8  N   UNL     1     -10.499   8.393  70.557  1.00  0.00    -0.203 NA 
HETATM    9  C   UNL     1      -7.940   8.647  70.969  1.00  0.00    -0.153 A  
HETATM   10  C   UNL     1      -7.014   8.502  72.025  1.00  0.00    -0.102 A  
HETATM   11  C   UNL     1      -8.770   7.989  73.600  1.00  0.00    -0.332 A  
HETATM   12  C   UNL     1      -7.418   8.164  73.313  1.00  0.00    -0.189 A  
BRANCH   9  13
HETATM   13  C   UNL     1      -7.412   8.931  69.614  1.00  0.00    -0.071 C  
HETATM   14  O   UNL     1      -7.406  10.040  69.110  1.00  0.00    -0.075 OA 
BRANCH  13  15
HETATM   15  O   UNL     1      -7.014   7.779  69.009  1.00  0.00    -0.065 OA 
BRANCH  15  16
HETATM   16  C   UNL     1      -8.071   6.889  68.614  1.00  0.00    -0.121 C  
BRANCH  16  17
HETATM   17  C   UNL     1      -8.088   6.754  67.132  1.00  0.00    -0.117 C  
HETATM   18  O   UNL     1      -8.122   5.959  65.043  1.00  0.00    -0.120 OA 
HETATM   19  C   UNL     1      -8.087   5.669  66.387  1.00  0.00    -0.106 C  
HETATM   20  O   UNL     1      -8.089   7.891  66.341  1.00  0.00    -0.102 OA 
HETATM   21  C   UNL     1      -8.165   4.257  66.776  1.00  0.00    -0.101 C  
HETATM   22  C   UNL     1      -8.141   7.342  65.064  1.00  0.00    -0.122 C  
HETATM   23  O   UNL     1      -8.188   8.018  64.043  1.00  0.00    -0.134 OA 
ENDBRANCH  16  17
ENDBRANCH  15  16
ENDBRANCH  13  15
ENDBRANCH   9  13
BRANCH   8  24
HETATM   24  C   UNL     1     -10.698   8.362  69.117  1.00  0.00    -0.106 C  
BRANCH  24  25
HETATM   25  C   UNL     1     -10.837   9.709  68.445  1.00  0.00    -0.212 A  
HETATM   26  C   UNL     1     -11.356  10.845  69.064  1.00  0.00    -0.348 A  
HETATM   27  C   UNL     1     -10.525  11.033  66.414  1.00  0.00    -0.312 A  
HETATM   28  C   UNL     1     -11.060  12.183  67.016  1.00  0.00    -0.347 A  
HETATM   29  C   UNL     1     -10.404   9.826  67.117  1.00  0.00    -0.311 A  
HETATM   30  C   UNL     1     -11.404  12.066  68.378  1.00  0.00    -0.332 A  
BRANCH  28  31
HETATM   31  C   UNL     1     -11.180  13.482  66.280  1.00  0.00    -0.310 A  
HETATM   32  C   UNL     1     -12.145  14.669  64.340  1.00  0.00    -0.481 A  
HETATM   33  C   UNL     1     -12.153  13.612  65.256  1.00  0.00    -0.429 A  
HETATM   34  C   UNL     1     -11.206  15.679  64.461  1.00  0.00    -0.337 A  
HETATM   35  C   UNL     1     -10.305  15.646  65.519  1.00  0.00    -0.421 A  
HETATM   36  C   UNL     1     -10.296  14.575  66.436  1.00  0.00    -0.296 A  
BRANCH  36  37
HETATM   37  C   UNL     1      -9.335  14.719  67.546  1.00  0.00    -0.194 C  
HETATM   38  N   UNL     1      -9.550  15.386  68.632  1.00  0.00    -0.197 NA 
HETATM   39  O   UNL     1      -8.358  15.227  69.407  1.00  0.00    -0.232 OA 
HETATM   40  C   UNL     1      -7.521  14.433  68.667  1.00  0.00    -0.126 C  
HETATM   41  N   UNL     1      -8.143  14.111  67.523  1.00  0.00    -0.174 NA 
HETATM   42  O   UNL     1      -6.390  14.096  68.988  1.00  0.00    -0.088 OA 
ENDBRANCH  36  37
ENDBRANCH  28  31
ENDBRANCH  24  25
ENDBRANCH   8  24
ENDBRANCH   3   4
ENDBRANCH   2   3
TORSDOF 10
ENDMDL
MODEL       92
REMARK 921   NORMALIZED FREE ENERGY PREDICTED BY IDOCK:   -5.56 KCAL/MOL
REMARK 922        TOTAL FREE ENERGY PREDICTED BY IDOCK:  -11.74 KCAL/MOL
REMARK 923 INTER-LIGAND FREE ENERGY PREDICTED BY IDOCK:   -9.06 KCAL/MOL
REMARK 924 INTRA-LIGAND FREE ENERGY PREDICTED BY IDOCK:   -2.68 KCAL/MOL
REMARK 927      BINDING AFFINITY PREDICTED BY RF-SCORE:    0.00 PKD
ROOT
HETATM    1  C   UNL     1      -5.160  11.698  70.735  1.00  0.00    -0.123 C  
HETATM    2  C   UNL     1      -6.375  11.002  70.148  1.00  0.00    -0.147 C  
ENDROOT
BRANCH   2   3
HETATM    3  O   UNL     1      -6.211   9.586  70.259  1.00  0.00    -0.048 OA 
BRANCH   3   4
HETATM    4  C   UNL     1      -7.272   8.954  70.763  1.00  0.00    -0.083 A  
HETATM    5  N   UNL     1      -7.707   9.077  71.990  1.00  0.00    -0.337 NA 
HETATM    6  C   UNL     1      -8.810   8.272  72.058  1.00  0.00    -0.193 A  
HETATM    7  C   UNL     1      -9.062   7.620  70.843  1.00  0.00    -0.149 A  
HETATM    8  N   UNL     1      -8.071   8.120  70.014  1.00  0.00    -0.112 NA 
HETATM    9  C   UNL     1     -10.139   6.704  70.723  1.00  0.00    -0.205 A  
HETATM   10  C   UNL     1     -10.975   6.535  71.847  1.00  0.00    -0.288 A  
HETATM   11  C   UNL     1      -9.665   8.083  73.156  1.00  0.00    -0.341 A  
HETATM   12  C   UNL     1     -10.753   7.223  73.036  1.00  0.00    -0.384 A  
BRANCH   9  13
HETATM   13  C   UNL     1     -10.497   5.992  69.474  1.00  0.00    -0.266 C  
HETATM   14  O   UNL     1     -11.531   6.186  68.860  1.00  0.00    -0.305 OA 
BRANCH  13  15
HETATM   15  O   UNL     1      -9.553   5.061  69.171  1.00  0.00    -0.129 OA 
BRANCH  15  16
HETATM   16  C   UNL     1      -9.783   3.747  69.707  1.00  0.00    -0.123 C  
BRANCH  16  17
HETATM   17  C   UNL     1      -8.626   3.338  70.549  1.00  0.00    -0.066 C  
HETATM   18  O   UNL     1      -7.329   2.610  72.218  1.00  0.00    -0.041 OA 
HETATM   19  C   UNL     1      -8.604   2.901  71.790  1.00  0.00    -0.072 C  
HETATM   20  O   UNL     1      -7.342   3.415  70.033  1.00  0.00    -0.041 OA 
HETATM   21  C   UNL     1      -9.710   2.587  72.701  1.00  0.00    -0.185 C  
HETATM   22  C   UNL     1      -6.587   2.925  71.094  1.00  0.00    -0.030 C  
HETATM   23  O   UNL     1      -5.370   2.793  71.048  1.00  0.00    -0.004 OA 
ENDBRANCH  16  17
ENDBRANCH  15  16
ENDBRANCH  13  15
ENDBRANCH   9  13
BRANCH   8  24
HETATM   24  C   UNL     1      -7.963   8.023  68.567  1.00  0.00    -0.120 C  
BRANCH  24  25
HETATM   25  C   UNL     1      -8.716   9.072  67.781  1.00  0.00    -0.125 A  
HETATM   26  C   UNL     1      -8.108  10.053  66.998  1.00  0.00    -0.117 A  
HETATM   27  C   UNL     1     -10.887  10.006  67.157  1.00  0.00    -0.240 A  
HETATM   28  C   UNL     1     -10.292  11.010  66.376  1.00  0.00    -0.302 A  
HETATM   29  C   UNL     1     -10.117   9.051  67.834  1.00  0.00    -0.246 A  
HETATM   30  C   UNL     1      -8.887  10.957  66.265  1.00  0.00    -0.187 A  
BRANCH  28  31
HETATM   31  C   UNL     1     -11.105  12.027  65.636  1.00  0.00    -0.361 A  
HETATM   32  C   UNL     1     -12.102  12.691  63.474  1.00  0.00    -0.648 A  
HETATM   33  C   UNL     1     -11.589  11.717  64.339  1.00  0.00    -0.325 A  
HETATM   34  C   UNL     1     -12.219  14.002  63.905  1.00  0.00    -0.336 A  
HETATM   35  C   UNL     1     -11.859  14.324  65.209  1.00  0.00    -0.374 A  
HETATM   36  C   UNL     1     -11.326  13.351  66.080  1.00  0.00    -0.329 A  
BRANCH  36  37
HETATM   37  C   UNL     1     -11.065  13.827  67.451  1.00  0.00    -0.296 C  
HETATM   38  N   UNL     1     -10.037  14.521  67.813  1.00  0.00    -0.224 NA 
HETATM   39  O   UNL     1     -10.224  14.760  69.211  1.00  0.00    -0.228 OA 
HETATM   40  C   UNL     1     -11.410  14.161  69.549  1.00  0.00    -0.259 C  
HETATM   41  N   UNL     1     -11.930  13.600  68.447  1.00  0.00    -0.367 NA 
HETATM   42  O   UNL     1     -11.897  14.125  70.670  1.00  0.00    -0.303 OA 
ENDBRANCH  36  37
ENDBRANCH  28  31
ENDBRANCH  24  25
ENDBRANCH   8  24
ENDBRANCH   3   4
ENDBRANCH   2   3
TORSDOF 10
ENDMDL
MODEL       93
REMARK 921   NORMALIZED FREE ENERGY PREDICTED BY IDOCK:   -5.56 KCAL/MOL
REMARK 922        TOTAL FREE ENERGY PREDICTED BY IDOCK:  -11.73 KCAL/MOL
REMARK 923 INTER-LIGAND FREE ENERGY PREDICTED BY IDOCK:   -9.40 KCAL/MOL
REMARK 924 INTRA-LIGAND FREE ENERGY PREDICTED BY IDOCK:   -2.33 KCAL/MOL
REMARK 927      BINDING AFFINITY PREDICTED BY RF-SCORE:    0.00 PKD
ROOT
HETATM    1  C   UNL     1      -7.780   5.040  71.040  1.00  0.00    -0.087 C  
HETATM    2  C   UNL     1      -9.035   5.894  71.096  1.00  0.00    -0.139 C  
ENDROOT
BRANCH   2   3
HETATM    3  O   UNL     1      -8.736   7.136  71.737  1.00  0.00    -0.118 OA 
BRANCH   3   4
HETATM    4  C   UNL     1      -9.707   8.045  71.641  1.00  0.00    -0.171 A  
HETATM    5  N   UNL     1     -10.720   8.152  72.461  1.00  0.00    -0.327 NA 
HETATM    6  C   UNL     1     -11.443   9.215  71.996  1.00  0.00    -0.281 A  
HETATM    7  C   UNL     1     -10.871   9.778  70.847  1.00  0.00    -0.328 A  
HETATM    8  N   UNL     1      -9.724   9.022  70.672  1.00  0.00    -0.214 NA 
HETATM    9  C   UNL     1     -11.497  10.866  70.186  1.00  0.00    -0.405 A  
HETATM   10  C   UNL     1     -12.670  11.392  70.769  1.00  0.00    -0.343 A  
HETATM   11  C   UNL     1     -12.608   9.766  72.552  1.00  0.00     0.068 A  
HETATM   12  C   UNL     1     -13.207  10.864  71.939  1.00  0.00    -0.508 A  
BRANCH   9  13
HETATM   13  C   UNL     1     -10.953  11.542  68.985  1.00  0.00    -0.234 C  
HETATM   14  O   UNL     1      -9.766  11.746  68.805  1.00  0.00    -0.168 OA 
BRANCH  13  15
HETATM   15  O   UNL     1     -11.964  11.955  68.173  1.00  0.00    -0.496 OA 
BRANCH  15  16
HETATM   16  C   UNL     1     -11.835  13.288  67.651  1.00  0.00    -0.357 C  
BRANCH  16  17
HETATM   17  C   UNL     1     -11.809  13.245  66.164  1.00  0.00    -0.390 C  
HETATM   18  O   UNL     1     -11.352  13.616  64.007  1.00  0.00    -0.342 OA 
HETATM   19  C   UNL     1     -11.108  13.967  65.315  1.00  0.00    -0.318 C  
HETATM   20  O   UNL     1     -12.627  12.352  65.490  1.00  0.00    -0.616 OA 
HETATM   21  C   UNL     1     -10.068  14.970  65.563  1.00  0.00    -0.400 C  
HETATM   22  C   UNL     1     -12.282  12.603  64.166  1.00  0.00    -0.450 C  
HETATM   23  O   UNL     1     -12.762  11.994  63.218  1.00  0.00    -0.685 OA 
ENDBRANCH  16  17
ENDBRANCH  15  16
ENDBRANCH  13  15
ENDBRANCH   9  13
BRANCH   8  24
HETATM   24  C   UNL     1      -8.585   9.287  69.807  1.00  0.00    -0.159 C  
BRANCH  24  25
HETATM   25  C   UNL     1      -8.488   8.426  68.569  1.00  0.00    -0.132 A  
HETATM   26  C   UNL     1      -7.359   7.689  68.211  1.00  0.00    -0.099 A  
HETATM   27  C   UNL     1      -9.590   7.599  66.550  1.00  0.00    -0.254 A  
HETATM   28  C   UNL     1      -8.457   6.864  66.166  1.00  0.00    -0.136 A  
HETATM   29  C   UNL     1      -9.610   8.353  67.731  1.00  0.00    -0.185 A  
HETATM   30  C   UNL     1      -7.374   6.880  67.068  1.00  0.00    -0.086 A  
BRANCH  28  31
HETATM   31  C   UNL     1      -8.430   6.043  64.913  1.00  0.00    -0.060 A  
HETATM   32  C   UNL     1      -8.378   3.772  63.939  1.00  0.00    -0.091 A  
HETATM   33  C   UNL     1      -8.663   4.645  64.995  1.00  0.00    -0.143 A  
HETATM   34  C   UNL     1      -7.920   4.275  62.733  1.00  0.00    -0.068 A  
HETATM   35  C   UNL     1      -7.785   5.651  62.577  1.00  0.00    -0.074 A  
HETATM   36  C   UNL     1      -8.054   6.535  63.642  1.00  0.00    -0.014 A  
BRANCH  36  37
HETATM   37  C   UNL     1      -7.939   7.965  63.301  1.00  0.00    -0.125 C  
HETATM   38  N   UNL     1      -6.831   8.626  63.232  1.00  0.00    -0.089 NA 
HETATM   39  O   UNL     1      -7.213   9.952  62.854  1.00  0.00    -0.115 OA 
HETATM   40  C   UNL     1      -8.577   9.937  62.722  1.00  0.00    -0.189 C  
HETATM   41  N   UNL     1      -9.015   8.697  62.984  1.00  0.00     0.215 NA 
HETATM   42  O   UNL     1      -9.276  10.899  62.435  1.00  0.00    -0.286 OA 
ENDBRANCH  36  37
ENDBRANCH  28  31
ENDBRANCH  24  25
ENDBRANCH   8  24
ENDBRANCH   3   4
ENDBRANCH   2   3
TORSDOF 10
ENDMDL
MODEL       94
REMARK 921   NORMALIZED FREE ENERGY PREDICTED BY IDOCK:   -5.55 KCAL/MOL
REMARK 922        TOTAL FREE ENERGY PREDICTED BY IDOCK:  -11.71 KCAL/MOL
REMARK 923 INTER-LIGAND FREE ENERGY PREDICTED BY IDOCK:  -10.68 KCAL/MOL
REMARK 924 INTRA-LIGAND FREE ENERGY PREDICTED BY IDOCK:   -1.03 KCAL/MOL
REMARK 927      BINDING AFFINITY PREDICTED BY RF-SCORE:    0.00 PKD
ROOT
HETATM    1  C   UNL     1     -11.028  19.922  66.889  1.00  0.00    -0.220 C  
HETATM    2  C   UNL     1     -10.501  18.685  66.183  1.00  0.00    -0.430 C  
ENDROOT
BRANCH   2   3
HETATM    3  O   UNL     1      -9.164  18.927  65.737  1.00  0.00    -0.384 OA 
BRANCH   3   4
HETATM    4  C   UNL     1      -8.235  18.728  66.674  1.00  0.00    -0.289 A  
HETATM    5  N   UNL     1      -7.692  19.667  67.405  1.00  0.00    -0.256 NA 
HETATM    6  C   UNL     1      -6.819  19.014  68.229  1.00  0.00    -0.246 A  
HETATM    7  C   UNL     1      -6.808  17.632  67.997  1.00  0.00    -0.193 A  
HETATM    8  N   UNL     1      -7.771  17.478  67.013  1.00  0.00    -0.203 NA 
HETATM    9  C   UNL     1      -5.933  16.783  68.723  1.00  0.00    -0.147 A  
HETATM   10  C   UNL     1      -5.134  17.377  69.723  1.00  0.00    -0.180 A  
HETATM   11  C   UNL     1      -6.013  19.571  69.235  1.00  0.00    -0.297 A  
HETATM   12  C   UNL     1      -5.184  18.743  69.987  1.00  0.00    -0.204 A  
BRANCH   9  13
HETATM   13  C   UNL     1      -5.873  15.311  68.566  1.00  0.00    -0.097 C  
HETATM   14  O   UNL     1      -5.280  14.752  67.660  1.00  0.00    -0.303 OA 
BRANCH  13  15
HETATM   15  O   UNL     1      -6.623  14.700  69.522  1.00  0.00    -0.126 OA 
BRANCH  15  16
HETATM   16  C   UNL     1      -5.902  13.849  70.427  1.00  0.00    -0.161 C  
BRANCH  16  17
HETATM   17  C   UNL     1      -6.351  12.440  70.259  1.00  0.00     0.145 C  
HETATM   18  O   UNL     1      -7.305  10.559  69.519  1.00  0.00    -0.120 OA 
HETATM   19  C   UNL     1      -7.136  11.913  69.343  1.00  0.00     0.055 C  
HETATM   20  O   UNL     1      -5.943  11.478  71.168  1.00  0.00    -0.366 OA 
HETATM   21  C   UNL     1      -7.737  12.520  68.151  1.00  0.00    -0.141 C  
HETATM   22  C   UNL     1      -6.535  10.333  70.646  1.00  0.00    -0.061 C  
HETATM   23  O   UNL     1      -6.401   9.220  71.141  1.00  0.00    -0.074 OA 
ENDBRANCH  16  17
ENDBRANCH  15  16
ENDBRANCH  13  15
ENDBRANCH   9  13
BRANCH   8  24
HETATM   24  C   UNL     1      -8.400  16.254  66.543  1.00  0.00    -0.308 C  
BRANCH  24  25
HETATM   25  C   UNL     1      -9.439  15.654  67.463  1.00  0.00    -0.214 A  
HETATM   26  C   UNL     1     -10.560  14.950  67.027  1.00  0.00    -0.289 A  
HETATM   27  C   UNL     1     -10.189  15.304  69.762  1.00  0.00    -0.241 A  
HETATM   28  C   UNL     1     -11.332  14.607  69.341  1.00  0.00    -0.314 A  
HETATM   29  C   UNL     1      -9.256  15.806  68.844  1.00  0.00    -0.227 A  
HETATM   30  C   UNL     1     -11.448  14.388  67.953  1.00  0.00    -0.346 A  
BRANCH  28  31
HETATM   31  C   UNL     1     -12.328  14.053  70.314  1.00  0.00    -0.425 A  
HETATM   32  C   UNL     1     -13.818  14.521  72.229  1.00  0.00    -0.587 A  
HETATM   33  C   UNL     1     -13.087  14.945  71.114  1.00  0.00    -0.459 A  
HETATM   34  C   UNL     1     -13.878  13.173  72.542  1.00  0.00    -0.495 A  
HETATM   35  C   UNL     1     -13.238  12.255  71.716  1.00  0.00    -0.428 A  
HETATM   36  C   UNL     1     -12.486  12.677  70.600  1.00  0.00    -0.323 A  
BRANCH  36  37
HETATM   37  C   UNL     1     -11.932  11.584  69.779  1.00  0.00    -0.346 C  
HETATM   38  N   UNL     1     -12.229  11.361  68.542  1.00  0.00    -0.520 NA 
HETATM   39  O   UNL     1     -11.443  10.225  68.170  1.00  0.00    -0.270 OA 
HETATM   40  C   UNL     1     -10.717   9.880  69.280  1.00  0.00    -0.224 C  
HETATM   41  N   UNL     1     -11.015  10.739  70.266  1.00  0.00    -0.184 NA 
HETATM   42  O   UNL     1      -9.945   8.934  69.362  1.00  0.00    -0.182 OA 
ENDBRANCH  36  37
ENDBRANCH  28  31
ENDBRANCH  24  25
ENDBRANCH   8  24
ENDBRANCH   3   4
ENDBRANCH   2   3
TORSDOF 10
ENDMDL
MODEL       95
REMARK 921   NORMALIZED FREE ENERGY PREDICTED BY IDOCK:   -5.54 KCAL/MOL
REMARK 922        TOTAL FREE ENERGY PREDICTED BY IDOCK:  -11.70 KCAL/MOL
REMARK 923 INTER-LIGAND FREE ENERGY PREDICTED BY IDOCK:   -9.03 KCAL/MOL
REMARK 924 INTRA-LIGAND FREE ENERGY PREDICTED BY IDOCK:   -2.67 KCAL/MOL
REMARK 927      BINDING AFFINITY PREDICTED BY RF-SCORE:    0.00 PKD
ROOT
HETATM    1  C   UNL     1      -7.826   3.199  63.119  1.00  0.00    -0.068 C  
HETATM    2  C   UNL     1      -9.078   3.371  63.961  1.00  0.00    -0.110 C  
ENDROOT
BRANCH   2   3
HETATM    3  O   UNL     1      -9.051   4.652  64.596  1.00  0.00    -0.155 OA 
BRANCH   3   4
HETATM    4  C   UNL     1      -9.052   4.597  65.928  1.00  0.00    -0.135 A  
HETATM    5  N   UNL     1      -9.462   3.578  66.639  1.00  0.00    -0.184 NA 
HETATM    6  C   UNL     1      -9.269   3.951  67.940  1.00  0.00    -0.165 A  
HETATM    7  C   UNL     1      -8.736   5.244  68.043  1.00  0.00    -0.102 A  
HETATM    8  N   UNL     1      -8.567   5.614  66.719  1.00  0.00    -0.111 NA 
HETATM    9  C   UNL     1      -8.504   5.832  69.314  1.00  0.00    -0.108 A  
HETATM   10  C   UNL     1      -8.767   5.040  70.452  1.00  0.00    -0.128 A  
HETATM   11  C   UNL     1      -9.515   3.190  69.093  1.00  0.00    -0.177 A  
HETATM   12  C   UNL     1      -9.248   3.738  70.346  1.00  0.00    -0.213 A  
BRANCH   9  13
HETATM   13  C   UNL     1      -7.919   7.177  69.521  1.00  0.00    -0.128 C  
HETATM   14  O   UNL     1      -6.721   7.394  69.552  1.00  0.00    -0.039 OA 
BRANCH  13  15
HETATM   15  O   UNL     1      -8.900   8.093  69.739  1.00  0.00    -0.140 OA 
BRANCH  15  16
HETATM   16  C   UNL     1      -8.900   8.705  71.039  1.00  0.00    -0.191 C  
BRANCH  16  17
HETATM   17  C   UNL     1     -10.301   8.899  71.504  1.00  0.00    -0.324 C  
HETATM   18  O   UNL     1     -12.286   8.680  72.508  1.00  0.00    -0.381 OA 
HETATM   19  C   UNL     1     -11.031   8.153  72.305  1.00  0.00    -0.332 C  
HETATM   20  O   UNL     1     -11.022   9.996  71.062  1.00  0.00    -0.322 OA 
HETATM   21  C   UNL     1     -10.672   6.951  73.065  1.00  0.00    -0.328 C  
HETATM   22  C   UNL     1     -12.227   9.826  71.736  1.00  0.00    -0.367 C  
HETATM   23  O   UNL     1     -13.163  10.613  71.650  1.00  0.00    -0.412 OA 
ENDBRANCH  16  17
ENDBRANCH  15  16
ENDBRANCH  13  15
ENDBRANCH   9  13
BRANCH   8  24
HETATM   24  C   UNL     1      -7.816   6.736  66.179  1.00  0.00    -0.102 C  
BRANCH  24  25
HETATM   25  C   UNL     1      -8.611   7.996  65.924  1.00  0.00    -0.171 A  
HETATM   26  C   UNL     1      -9.872   8.251  66.463  1.00  0.00    -0.323 A  
HETATM   27  C   UNL     1      -8.724  10.161  64.795  1.00  0.00    -0.202 A  
HETATM   28  C   UNL     1     -10.001  10.427  65.315  1.00  0.00    -0.376 A  
HETATM   29  C   UNL     1      -8.039   8.977  65.103  1.00  0.00    -0.130 A  
HETATM   30  C   UNL     1     -10.518   9.468  66.210  1.00  0.00    -0.137 A  
BRANCH  28  31
HETATM   31  C   UNL     1     -10.736  11.695  65.005  1.00  0.00    -0.351 A  
HETATM   32  C   UNL     1     -12.286  12.855  63.470  1.00  0.00    -0.521 A  
HETATM   33  C   UNL     1     -11.755  11.682  64.017  1.00  0.00    -0.339 A  
HETATM   34  C   UNL     1     -11.872  14.088  63.945  1.00  0.00    -0.263 A  
HETATM   35  C   UNL     1     -10.957  14.140  64.991  1.00  0.00    -0.391 A  
HETATM   36  C   UNL     1     -10.404  12.963  65.537  1.00  0.00    -0.304 A  
BRANCH  36  37
HETATM   37  C   UNL     1      -9.509  13.177  66.689  1.00  0.00    -0.260 C  
HETATM   38  N   UNL     1      -9.633  12.607  67.842  1.00  0.00    -0.204 NA 
HETATM   39  O   UNL     1      -8.540  13.102  68.620  1.00  0.00    -0.095 OA 
HETATM   40  C   UNL     1      -7.838  13.949  67.803  1.00  0.00    -0.168 C  
HETATM   41  N   UNL     1      -8.438  13.975  66.604  1.00  0.00     0.026 NA 
HETATM   42  O   UNL     1      -6.847  14.590  68.123  1.00  0.00    -0.100 OA 
ENDBRANCH  36  37
ENDBRANCH  28  31
ENDBRANCH  24  25
ENDBRANCH   8  24
ENDBRANCH   3   4
ENDBRANCH   2   3
TORSDOF 10
ENDMDL
MODEL       96
REMARK 921   NORMALIZED FREE ENERGY PREDICTED BY IDOCK:   -5.53 KCAL/MOL
REMARK 922        TOTAL FREE ENERGY PREDICTED BY IDOCK:  -11.68 KCAL/MOL
REMARK 923 INTER-LIGAND FREE ENERGY PREDICTED BY IDOCK:   -9.97 KCAL/MOL
REMARK 924 INTRA-LIGAND FREE ENERGY PREDICTED BY IDOCK:   -1.72 KCAL/MOL
REMARK 927      BINDING AFFINITY PREDICTED BY RF-SCORE:    0.00 PKD
ROOT
HETATM    1  C   UNL     1      -5.345   7.053  69.611  1.00  0.00    -0.015 C  
HETATM    2  C   UNL     1      -6.537   7.883  70.054  1.00  0.00    -0.037 C  
ENDROOT
BRANCH   2   3
HETATM    3  O   UNL     1      -6.449   9.187  69.475  1.00  0.00    -0.042 OA 
BRANCH   3   4
HETATM    4  C   UNL     1      -7.619   9.819  69.377  1.00  0.00    -0.104 A  
HETATM    5  N   UNL     1      -8.719   9.464  69.990  1.00  0.00    -0.190 NA 
HETATM    6  C   UNL     1      -9.649  10.392  69.618  1.00  0.00    -0.109 A  
HETATM    7  C   UNL     1      -9.119  11.346  68.738  1.00  0.00    -0.089 A  
HETATM    8  N   UNL     1      -7.790  10.969  68.640  1.00  0.00    -0.128 NA 
HETATM    9  C   UNL     1      -9.940  12.371  68.200  1.00  0.00    -0.215 A  
HETATM   10  C   UNL     1     -11.280  12.425  68.639  1.00  0.00    -0.314 A  
HETATM   11  C   UNL     1     -10.986  10.480  70.037  1.00  0.00    -0.351 A  
HETATM   12  C   UNL     1     -11.791  11.508  69.553  1.00  0.00    -0.419 A  
BRANCH   9  13
HETATM   13  C   UNL     1      -9.462  13.436  67.288  1.00  0.00    -0.234 C  
HETATM   14  O   UNL     1      -9.525  14.625  67.547  1.00  0.00    -0.194 OA 
BRANCH  13  15
HETATM   15  O   UNL     1      -9.022  12.898  66.119  1.00  0.00    -0.017 OA 
BRANCH  15  16
HETATM   16  C   UNL     1     -10.022  12.237  65.325  1.00  0.00    -0.230 C  
BRANCH  16  17
HETATM   17  C   UNL     1     -10.967  13.242  64.768  1.00  0.00    -0.350 C  
HETATM   18  O   UNL     1     -12.722  14.255  63.824  1.00  0.00    -0.779 OA 
HETATM   19  C   UNL     1     -12.141  13.066  64.200  1.00  0.00    -0.427 C  
HETATM   20  O   UNL     1     -10.631  14.586  64.794  1.00  0.00    -0.425 OA 
HETATM   21  C   UNL     1     -12.930  11.843  64.022  1.00  0.00    -0.181 C  
HETATM   22  C   UNL     1     -11.762  15.166  64.229  1.00  0.00    -0.224 C  
HETATM   23  O   UNL     1     -11.898  16.375  64.087  1.00  0.00    -0.901 OA 
ENDBRANCH  16  17
ENDBRANCH  15  16
ENDBRANCH  13  15
ENDBRANCH   9  13
BRANCH   8  24
HETATM   24  C   UNL     1      -6.673  11.715  68.083  1.00  0.00    -0.063 C  
BRANCH  24  25
HETATM   25  C   UNL     1      -6.519  13.134  68.580  1.00  0.00    -0.087 A  
HETATM   26  C   UNL     1      -6.908  13.568  69.847  1.00  0.00     0.246 A  
HETATM   27  C   UNL     1      -5.785  15.414  68.092  1.00  0.00    -0.138 A  
HETATM   28  C   UNL     1      -6.184  15.872  69.357  1.00  0.00    -0.153 A  
HETATM   29  C   UNL     1      -5.937  14.072  67.716  1.00  0.00    -0.115 A  
HETATM   30  C   UNL     1      -6.684  14.894  70.241  1.00  0.00    -0.046 A  
BRANCH  28  31
HETATM   31  C   UNL     1      -6.013  17.300  69.775  1.00  0.00    -0.243 A  
HETATM   32  C   UNL     1      -5.311  18.853  71.565  1.00  0.00    -0.284 A  
HETATM   33  C   UNL     1      -5.279  17.595  70.954  1.00  0.00    -0.243 A  
HETATM   34  C   UNL     1      -6.020  19.888  70.977  1.00  0.00    -0.280 A  
HETATM   35  C   UNL     1      -6.661  19.668  69.763  1.00  0.00    -0.336 A  
HETATM   36  C   UNL     1      -6.647  18.399  69.149  1.00  0.00    -0.280 A  
BRANCH  36  37
HETATM   37  C   UNL     1      -7.304  18.343  67.830  1.00  0.00    -0.235 C  
HETATM   38  N   UNL     1      -6.699  18.450  66.694  1.00  0.00    -0.187 NA 
HETATM   39  O   UNL     1      -7.729  18.317  65.710  1.00  0.00    -0.517 OA 
HETATM   40  C   UNL     1      -8.897  18.125  66.401  1.00  0.00    -0.236 C  
HETATM   41  N   UNL     1      -8.620  18.125  67.713  1.00  0.00    -0.252 NA 
HETATM   42  O   UNL     1     -10.007  17.997  65.902  1.00  0.00    -0.541 OA 
ENDBRANCH  36  37
ENDBRANCH  28  31
ENDBRANCH  24  25
ENDBRANCH   8  24
ENDBRANCH   3   4
ENDBRANCH   2   3
TORSDOF 10
ENDMDL
MODEL       97
REMARK 921   NORMALIZED FREE ENERGY PREDICTED BY IDOCK:   -5.52 KCAL/MOL
REMARK 922        TOTAL FREE ENERGY PREDICTED BY IDOCK:  -11.67 KCAL/MOL
REMARK 923 INTER-LIGAND FREE ENERGY PREDICTED BY IDOCK:   -9.05 KCAL/MOL
REMARK 924 INTRA-LIGAND FREE ENERGY PREDICTED BY IDOCK:   -2.62 KCAL/MOL
REMARK 927      BINDING AFFINITY PREDICTED BY RF-SCORE:    0.00 PKD
ROOT
HETATM    1  C   UNL     1      -9.410  11.662  64.773  1.00  0.00     0.000 C  
HETATM    2  C   UNL     1      -9.998  10.310  64.412  1.00  0.00    -0.261 C  
ENDROOT
BRANCH   2   3
HETATM    3  O   UNL     1     -10.283   9.580  65.607  1.00  0.00    -0.228 OA 
BRANCH   3   4
HETATM    4  C   UNL     1      -9.199   9.125  66.237  1.00  0.00    -0.194 A  
HETATM    5  N   UNL     1      -8.107   8.711  65.650  1.00  0.00    -0.104 NA 
HETATM    6  C   UNL     1      -7.267   8.357  66.669  1.00  0.00    -0.077 A  
HETATM    7  C   UNL     1      -7.858   8.544  67.927  1.00  0.00    -0.103 A  
HETATM    8  N   UNL     1      -9.093   9.084  67.609  1.00  0.00    -0.133 NA 
HETATM    9  C   UNL     1      -7.162   8.192  69.112  1.00  0.00    -0.073 A  
HETATM   10  C   UNL     1      -5.841   7.716  68.972  1.00  0.00    -0.030 A  
HETATM   11  C   UNL     1      -5.949   7.885  66.567  1.00  0.00    -0.041 A  
HETATM   12  C   UNL     1      -5.239   7.580  67.725  1.00  0.00    -0.029 A  
BRANCH   9  13
HETATM   13  C   UNL     1      -7.694   8.379  70.482  1.00  0.00    -0.080 C  
HETATM   14  O   UNL     1      -7.904   9.471  70.981  1.00  0.00    -0.316 OA 
BRANCH  13  15
HETATM   15  O   UNL     1      -7.835   7.178  71.106  1.00  0.00    -0.096 OA 
BRANCH  15  16
HETATM   16  C   UNL     1      -8.516   6.163  70.349  1.00  0.00    -0.133 C  
BRANCH  16  17
HETATM   17  C   UNL     1      -9.985   6.389  70.415  1.00  0.00    -0.183 C  
HETATM   18  O   UNL     1     -12.154   6.603  69.918  1.00  0.00    -0.227 OA 
HETATM   19  C   UNL     1     -10.883   6.354  69.453  1.00  0.00    -0.321 C  
HETATM   20  O   UNL     1     -10.576   6.704  71.627  1.00  0.00    -0.213 OA 
HETATM   21  C   UNL     1     -10.740   5.991  68.039  1.00  0.00    -0.359 C  
HETATM   22  C   UNL     1     -11.917   6.795  71.268  1.00  0.00    -0.365 C  
HETATM   23  O   UNL     1     -12.813   7.035  72.067  1.00  0.00    -0.270 OA 
ENDBRANCH  16  17
ENDBRANCH  15  16
ENDBRANCH  13  15
ENDBRANCH   9  13
BRANCH   8  24
HETATM   24  C   UNL     1     -10.054   9.730  68.489  1.00  0.00    -0.166 C  
BRANCH  24  25
HETATM   25  C   UNL     1     -10.263  11.209  68.259  1.00  0.00    -0.197 A  
HETATM   26  C   UNL     1     -11.456  11.773  67.808  1.00  0.00    -0.381 A  
HETATM   27  C   UNL     1      -9.295  13.453  68.313  1.00  0.00    -0.205 A  
HETATM   28  C   UNL     1     -10.483  14.036  67.845  1.00  0.00    -0.241 A  
HETATM   29  C   UNL     1      -9.191  12.072  68.528  1.00  0.00    -0.116 A  
HETATM   30  C   UNL     1     -11.575  13.161  67.667  1.00  0.00    -0.392 A  
BRANCH  28  31
HETATM   31  C   UNL     1     -10.611  15.513  67.626  1.00  0.00    -0.291 A  
HETATM   32  C   UNL     1     -10.005  17.447  66.212  1.00  0.00    -0.306 A  
HETATM   33  C   UNL     1     -10.186  16.071  66.392  1.00  0.00    -0.315 A  
HETATM   34  C   UNL     1     -10.315  18.324  67.237  1.00  0.00    -0.407 A  
HETATM   35  C   UNL     1     -10.841  17.823  68.424  1.00  0.00    -0.088 A  
HETATM   36  C   UNL     1     -11.011  16.437  68.619  1.00  0.00    -0.345 A  
BRANCH  36  37
HETATM   37  C   UNL     1     -11.650  16.067  69.896  1.00  0.00    -0.299 C  
HETATM   38  N   UNL     1     -12.912  15.846  70.058  1.00  0.00     0.011 NA 
HETATM   39  O   UNL     1     -13.056  15.506  71.440  1.00  0.00    -0.453 OA 
HETATM   40  C   UNL     1     -11.797  15.553  71.980  1.00  0.00    -0.453 C  
HETATM   41  N   UNL     1     -10.931  15.885  71.010  1.00  0.00    -0.218 NA 
HETATM   42  O   UNL     1     -11.516  15.349  73.153  1.00  0.00    -0.355 OA 
ENDBRANCH  36  37
ENDBRANCH  28  31
ENDBRANCH  24  25
ENDBRANCH   8  24
ENDBRANCH   3   4
ENDBRANCH   2   3
TORSDOF 10
ENDMDL
MODEL       98
REMARK 921   NORMALIZED FREE ENERGY PREDICTED BY IDOCK:   -5.48 KCAL/MOL
REMARK 922        TOTAL FREE ENERGY PREDICTED BY IDOCK:  -11.61 KCAL/MOL
REMARK 923 INTER-LIGAND FREE ENERGY PREDICTED BY IDOCK:   -9.06 KCAL/MOL
REMARK 924 INTRA-LIGAND FREE ENERGY PREDICTED BY IDOCK:   -2.54 KCAL/MOL
REMARK 927      BINDING AFFINITY PREDICTED BY RF-SCORE:    0.00 PKD
ROOT
HETATM    1  C   UNL     1     -11.008  11.728  63.881  1.00  0.00    -0.476 C  
HETATM    2  C   UNL     1     -12.488  12.061  63.942  1.00  0.00    -0.436 C  
ENDROOT
BRANCH   2   3
HETATM    3  O   UNL     1     -12.788  12.665  65.202  1.00  0.00    -0.721 OA 
BRANCH   3   4
HETATM    4  C   UNL     1     -12.168  13.828  65.408  1.00  0.00    -0.440 A  
HETATM    5  N   UNL     1     -12.136  14.824  64.561  1.00  0.00    -0.472 NA 
HETATM    6  C   UNL     1     -11.414  15.801  65.188  1.00  0.00    -0.048 A  
HETATM    7  C   UNL     1     -10.972  15.398  66.456  1.00  0.00    -0.271 A  
HETATM    8  N   UNL     1     -11.517  14.131  66.583  1.00  0.00    -0.350 NA 
HETATM    9  C   UNL     1     -10.168  16.256  67.248  1.00  0.00    -0.279 A  
HETATM   10  C   UNL     1      -9.893  17.543  66.737  1.00  0.00    -0.306 A  
HETATM   11  C   UNL     1     -11.126  17.090  64.712  1.00  0.00     0.227 A  
HETATM   12  C   UNL     1     -10.376  17.959  65.500  1.00  0.00     0.075 A  
BRANCH   9  13
HETATM   13  C   UNL     1      -9.679  15.928  68.608  1.00  0.00    -0.207 C  
HETATM   14  O   UNL     1     -10.326  16.123  69.622  1.00  0.00    -0.263 OA 
BRANCH  13  15
HETATM   15  O   UNL     1      -8.404  15.458  68.555  1.00  0.00    -0.139 OA 
BRANCH  15  16
HETATM   16  C   UNL     1      -7.495  16.020  69.516  1.00  0.00    -0.125 C  
BRANCH  16  17
HETATM   17  C   UNL     1      -6.951  17.307  69.003  1.00  0.00    -0.235 C  
HETATM   18  O   UNL     1      -6.028  18.901  67.737  1.00  0.00    -0.196 OA 
HETATM   19  C   UNL     1      -6.393  17.579  67.843  1.00  0.00    -0.165 C  
HETATM   20  O   UNL     1      -6.982  18.433  69.809  1.00  0.00     0.013 OA 
HETATM   21  C   UNL     1      -6.215  16.733  66.658  1.00  0.00    -0.130 C  
HETATM   22  C   UNL     1      -6.429  19.392  68.967  1.00  0.00    -0.299 C  
HETATM   23  O   UNL     1      -6.295  20.568  69.284  1.00  0.00    -0.297 OA 
ENDBRANCH  16  17
ENDBRANCH  15  16
ENDBRANCH  13  15
ENDBRANCH   9  13
BRANCH   8  24
HETATM   24  C   UNL     1     -11.631  13.307  67.776  1.00  0.00    -0.342 C  
BRANCH  24  25
HETATM   25  C   UNL     1     -10.833  12.024  67.766  1.00  0.00    -0.256 A  
HETATM   26  C   UNL     1     -11.380  10.757  67.971  1.00  0.00    -0.378 A  
HETATM   27  C   UNL     1      -8.641  10.970  67.524  1.00  0.00    -0.128 A  
HETATM   28  C   UNL     1      -9.171   9.689  67.744  1.00  0.00    -0.135 A  
HETATM   29  C   UNL     1      -9.455  12.110  67.522  1.00  0.00    -0.180 A  
HETATM   30  C   UNL     1     -10.571   9.616  67.897  1.00  0.00    -0.308 A  
BRANCH  28  31
HETATM   31  C   UNL     1      -8.314   8.461  67.734  1.00  0.00    -0.130 A  
HETATM   32  C   UNL     1      -7.149   6.772  66.355  1.00  0.00    -0.071 A  
HETATM   33  C   UNL     1      -7.719   8.040  66.516  1.00  0.00    -0.093 A  
HETATM   34  C   UNL     1      -7.086   5.903  67.431  1.00  0.00    -0.074 A  
HETATM   35  C   UNL     1      -7.558   6.321  68.671  1.00  0.00    -0.093 A  
HETATM   36  C   UNL     1      -8.148   7.591  68.837  1.00  0.00    -0.127 A  
BRANCH  36  37
HETATM   37  C   UNL     1      -8.529   7.919  70.223  1.00  0.00    -0.128 C  
HETATM   38  N   UNL     1      -8.039   8.892  70.918  1.00  0.00    -0.151 NA 
HETATM   39  O   UNL     1      -8.716   8.828  72.176  1.00  0.00    -0.352 OA 
HETATM   40  C   UNL     1      -9.590   7.776  72.089  1.00  0.00    -0.176 C  
HETATM   41  N   UNL     1      -9.478   7.231  70.869  1.00  0.00    -0.160 NA 
HETATM   42  O   UNL     1     -10.329   7.388  72.983  1.00  0.00    -0.241 OA 
ENDBRANCH  36  37
ENDBRANCH  28  31
ENDBRANCH  24  25
ENDBRANCH   8  24
ENDBRANCH   3   4
ENDBRANCH   2   3
TORSDOF 10
ENDMDL
MODEL       99
REMARK 921   NORMALIZED FREE ENERGY PREDICTED BY IDOCK:   -5.44 KCAL/MOL
REMARK 922        TOTAL FREE ENERGY PREDICTED BY IDOCK:  -11.55 KCAL/MOL
REMARK 923 INTER-LIGAND FREE ENERGY PREDICTED BY IDOCK:   -9.48 KCAL/MOL
REMARK 924 INTRA-LIGAND FREE ENERGY PREDICTED BY IDOCK:   -2.06 KCAL/MOL
REMARK 927      BINDING AFFINITY PREDICTED BY RF-SCORE:    0.00 PKD
ROOT
HETATM    1  C   UNL     1      -6.878   7.751  62.743  1.00  0.00    -0.080 C  
HETATM    2  C   UNL     1      -7.908   7.825  63.856  1.00  0.00    -0.126 C  
ENDROOT
BRANCH   2   3
HETATM    3  O   UNL     1      -7.679   9.000  64.639  1.00  0.00    -0.106 OA 
BRANCH   3   4
HETATM    4  C   UNL     1      -8.603   9.948  64.480  1.00  0.00    -0.186 A  
HETATM    5  N   UNL     1      -9.532   9.945  63.560  1.00  0.00    -0.201 NA 
HETATM    6  C   UNL     1     -10.254  11.084  63.780  1.00  0.00    -0.364 A  
HETATM    7  C   UNL     1      -9.753  11.825  64.860  1.00  0.00    -0.175 A  
HETATM    8  N   UNL     1      -8.710  11.036  65.317  1.00  0.00    -0.143 NA 
HETATM    9  C   UNL     1     -10.339  13.066  65.221  1.00  0.00    -0.318 A  
HETATM   10  C   UNL     1     -11.477  13.481  64.496  1.00  0.00    -0.407 A  
HETATM   11  C   UNL     1     -11.391  11.525  63.084  1.00  0.00    -0.068 A  
HETATM   12  C   UNL     1     -12.004  12.719  63.458  1.00  0.00    -0.633 A  
BRANCH   9  13
HETATM   13  C   UNL     1      -9.896  13.901  66.361  1.00  0.00    -0.295 C  
HETATM   14  O   UNL     1      -8.927  14.639  66.321  1.00  0.00    -0.215 OA 
BRANCH  13  15
HETATM   15  O   UNL     1     -10.673  13.667  67.452  1.00  0.00    -0.263 OA 
BRANCH  15  16
HETATM   16  C   UNL     1     -11.756  14.590  67.652  1.00  0.00    -0.382 C  
BRANCH  16  17
HETATM   17  C   UNL     1     -11.242  15.841  68.274  1.00  0.00    -0.356 C  
HETATM   18  O   UNL     1     -10.531  17.394  69.716  1.00  0.00    -0.096 OA 
HETATM   19  C   UNL     1     -11.030  16.123  69.541  1.00  0.00    -0.341 C  
HETATM   20  O   UNL     1     -10.933  16.927  67.471  1.00  0.00    -0.254 OA 
HETATM   21  C   UNL     1     -11.140  15.271  70.730  1.00  0.00    -0.340 C  
HETATM   22  C   UNL     1     -10.471  17.844  68.409  1.00  0.00    -0.330 C  
HETATM   23  O   UNL     1     -10.056  18.958  68.113  1.00  0.00    -0.351 OA 
ENDBRANCH  16  17
ENDBRANCH  15  16
ENDBRANCH  13  15
ENDBRANCH   9  13
BRANCH   8  24
HETATM   24  C   UNL     1      -7.974  11.138  66.566  1.00  0.00    -0.158 C  
BRANCH  24  25
HETATM   25  C   UNL     1      -8.447  10.235  67.683  1.00  0.00    -0.118 A  
HETATM   26  C   UNL     1      -7.600   9.495  68.506  1.00  0.00    -0.081 A  
HETATM   27  C   UNL     1     -10.348   9.309  68.909  1.00  0.00    -0.231 A  
HETATM   28  C   UNL     1      -9.511   8.544  69.737  1.00  0.00    -0.166 A  
HETATM   29  C   UNL     1      -9.827  10.146  67.912  1.00  0.00    -0.176 A  
HETATM   30  C   UNL     1      -8.124   8.719  69.548  1.00  0.00    -0.105 A  
BRANCH  28  31
HETATM   31  C   UNL     1     -10.055   7.658  70.815  1.00  0.00    -0.189 A  
HETATM   32  C   UNL     1     -10.959   7.524  73.111  1.00  0.00    -0.420 A  
HETATM   33  C   UNL     1     -10.684   8.244  71.944  1.00  0.00    -0.350 A  
HETATM   34  C   UNL     1     -10.684   6.168  73.166  1.00  0.00    -0.283 A  
HETATM   35  C   UNL     1     -10.169   5.533  72.040  1.00  0.00    -0.249 A  
HETATM   36  C   UNL     1      -9.874   6.256  70.866  1.00  0.00    -0.207 A  
BRANCH  36  37
HETATM   37  C   UNL     1      -9.408   5.433  69.734  1.00  0.00    -0.142 C  
HETATM   38  N   UNL     1      -8.194   5.026  69.562  1.00  0.00    -0.084 NA 
HETATM   39  O   UNL     1      -8.227   4.257  68.357  1.00  0.00    -0.084 OA 
HETATM   40  C   UNL     1      -9.527   4.279  67.922  1.00  0.00    -0.165 C  
HETATM   41  N   UNL     1     -10.253   4.997  68.792  1.00  0.00    -0.136 NA 
HETATM   42  O   UNL     1      -9.946   3.752  66.901  1.00  0.00    -0.109 OA 
ENDBRANCH  36  37
ENDBRANCH  28  31
ENDBRANCH  24  25
ENDBRANCH   8  24
ENDBRANCH   3   4
ENDBRANCH   2   3
TORSDOF 10
ENDMDL
MODEL      100
REMARK 921   NORMALIZED FREE ENERGY PREDICTED BY IDOCK:   -5.44 KCAL/MOL
REMARK 922        TOTAL FREE ENERGY PREDICTED BY IDOCK:  -11.54 KCAL/MOL
REMARK 923 INTER-LIGAND FREE ENERGY PREDICTED BY IDOCK:   -7.95 KCAL/MOL
REMARK 924 INTRA-LIGAND FREE ENERGY PREDICTED BY IDOCK:   -3.59 KCAL/MOL
REMARK 927      BINDING AFFINITY PREDICTED BY RF-SCORE:    0.00 PKD
ROOT
HETATM    1  C   UNL     1      -8.796   4.662  70.175  1.00  0.00    -0.126 C  
HETATM    2  C   UNL     1      -8.575   3.930  68.863  1.00  0.00    -0.084 C  
ENDROOT
BRANCH   2   3
HETATM    3  O   UNL     1      -7.517   4.561  68.139  1.00  0.00    -0.065 OA 
BRANCH   3   4
HETATM    4  C   UNL     1      -7.761   4.707  66.836  1.00  0.00    -0.091 A  
HETATM    5  N   UNL     1      -8.226   3.772  66.049  1.00  0.00    -0.100 NA 
HETATM    6  C   UNL     1      -8.335   4.363  64.821  1.00  0.00    -0.109 A  
HETATM    7  C   UNL     1      -7.914   5.700  64.841  1.00  0.00    -0.117 A  
HETATM    8  N   UNL     1      -7.592   5.902  66.173  1.00  0.00    -0.088 NA 
HETATM    9  C   UNL     1      -7.908   6.475  63.652  1.00  0.00    -0.106 A  
HETATM   10  C   UNL     1      -8.403   5.866  62.479  1.00  0.00    -0.065 A  
HETATM   11  C   UNL     1      -8.825   3.791  63.637  1.00  0.00    -0.101 A  
HETATM   12  C   UNL     1      -8.868   4.554  62.473  1.00  0.00    -0.124 A  
BRANCH   9  13
HETATM   13  C   UNL     1      -7.509   7.900  63.583  1.00  0.00    -0.118 C  
HETATM   14  O   UNL     1      -6.431   8.279  63.159  1.00  0.00    -0.084 OA 
BRANCH  13  15
HETATM   15  O   UNL     1      -8.476   8.691  64.120  1.00  0.00    -0.157 OA 
BRANCH  15  16
HETATM   16  C   UNL     1      -8.203  10.102  64.105  1.00  0.00    -0.165 C  
BRANCH  16  17
HETATM   17  C   UNL     1      -7.828  10.556  65.472  1.00  0.00    -0.138 C  
HETATM   18  O   UNL     1      -6.703  11.160  67.307  1.00  0.00    -0.077 OA 
HETATM   19  C   UNL     1      -6.637  10.700  66.012  1.00  0.00    -0.128 C  
HETATM   20  O   UNL     1      -8.822  10.878  66.383  1.00  0.00    -0.160 OA 
HETATM   21  C   UNL     1      -5.305  10.553  65.415  1.00  0.00    -0.125 C  
HETATM   22  C   UNL     1      -8.071  11.273  67.485  1.00  0.00    -0.124 C  
HETATM   23  O   UNL     1      -8.569  11.675  68.529  1.00  0.00    -0.159 OA 
ENDBRANCH  16  17
ENDBRANCH  15  16
ENDBRANCH  13  15
ENDBRANCH   9  13
BRANCH   8  24
HETATM   24  C   UNL     1      -7.342   7.155  66.867  1.00  0.00    -0.088 C  
BRANCH  24  25
HETATM   25  C   UNL     1      -8.428   7.606  67.817  1.00  0.00    -0.122 A  
HETATM   26  C   UNL     1      -9.793   7.541  67.537  1.00  0.00    -0.209 A  
HETATM   27  C   UNL     1      -8.983   8.577  69.990  1.00  0.00    -0.142 A  
HETATM   28  C   UNL     1     -10.360   8.533  69.720  1.00  0.00    -0.212 A  
HETATM   29  C   UNL     1      -8.039   8.112  69.065  1.00  0.00    -0.115 A  
HETATM   30  C   UNL     1     -10.732   7.938  68.497  1.00  0.00    -0.069 A  
BRANCH  28  31
HETATM   31  C   UNL     1     -11.379   9.014  70.707  1.00  0.00    -0.329 A  
HETATM   32  C   UNL     1     -12.733   8.469  72.701  1.00  0.00    -0.241 A  
HETATM   33  C   UNL     1     -11.619   8.255  71.881  1.00  0.00    -0.377 A  
HETATM   34  C   UNL     1     -13.609   9.503  72.418  1.00  0.00    -0.459 A  
HETATM   35  C   UNL     1     -13.346  10.340  71.339  1.00  0.00    -0.395 A  
HETATM   36  C   UNL     1     -12.235  10.120  70.498  1.00  0.00    -0.352 A  
BRANCH  36  37
HETATM   37  C   UNL     1     -12.047  11.135  69.445  1.00  0.00    -0.326 C  
HETATM   38  N   UNL     1     -12.148  10.916  68.176  1.00  0.00    -0.484 NA 
HETATM   39  O   UNL     1     -11.905  12.184  67.560  1.00  0.00    -0.499 OA 
HETATM   40  C   UNL     1     -11.683  13.071  68.580  1.00  0.00    -0.323 C  
HETATM   41  N   UNL     1     -11.790  12.414  69.745  1.00  0.00    -0.331 NA 
HETATM   42  O   UNL     1     -11.411  14.256  68.448  1.00  0.00    -0.269 OA 
ENDBRANCH  36  37
ENDBRANCH  28  31
ENDBRANCH  24  25
ENDBRANCH   8  24
ENDBRANCH   3   4
ENDBRANCH   2   3
TORSDOF 10
ENDMDL
MODEL      101
REMARK 921   NORMALIZED FREE ENERGY PREDICTED BY IDOCK:   -5.44 KCAL/MOL
REMARK 922        TOTAL FREE ENERGY PREDICTED BY IDOCK:  -11.54 KCAL/MOL
REMARK 923 INTER-LIGAND FREE ENERGY PREDICTED BY IDOCK:   -9.23 KCAL/MOL
REMARK 924 INTRA-LIGAND FREE ENERGY PREDICTED BY IDOCK:   -2.31 KCAL/MOL
REMARK 927      BINDING AFFINITY PREDICTED BY RF-SCORE:    0.00 PKD
ROOT
HETATM    1  C   UNL     1     -12.039   9.627  70.987  1.00  0.00    -0.421 C  
HETATM    2  C   UNL     1     -10.866   9.113  71.803  1.00  0.00    -0.345 C  
ENDROOT
BRANCH   2   3
HETATM    3  O   UNL     1      -9.765   8.840  70.933  1.00  0.00    -0.188 OA 
BRANCH   3   4
HETATM    4  C   UNL     1      -9.550   7.541  70.720  1.00  0.00    -0.166 A  
HETATM    5  N   UNL     1     -10.236   6.567  71.261  1.00  0.00    -0.197 NA 
HETATM    6  C   UNL     1      -9.687   5.422  70.754  1.00  0.00    -0.180 A  
HETATM    7  C   UNL     1      -8.621   5.690  69.884  1.00  0.00    -0.125 A  
HETATM    8  N   UNL     1      -8.590   7.074  69.851  1.00  0.00    -0.140 NA 
HETATM    9  C   UNL     1      -7.890   4.630  69.288  1.00  0.00    -0.063 A  
HETATM   10  C   UNL     1      -8.322   3.313  69.555  1.00  0.00    -0.087 A  
HETATM   11  C   UNL     1     -10.093   4.100  70.994  1.00  0.00    -0.130 A  
HETATM   12  C   UNL     1      -9.413   3.052  70.379  1.00  0.00    -0.218 A  
BRANCH   9  13
HETATM   13  C   UNL     1      -6.770   4.816  68.336  1.00  0.00    -0.050 C  
HETATM   14  O   UNL     1      -5.720   5.361  68.627  1.00  0.00    -0.014 OA 
BRANCH  13  15
HETATM   15  O   UNL     1      -7.117   4.362  67.101  1.00  0.00    -0.065 OA 
BRANCH  15  16
HETATM   16  C   UNL     1      -7.568   5.366  66.176  1.00  0.00    -0.087 C  
BRANCH  16  17
HETATM   17  C   UNL     1      -8.741   4.858  65.415  1.00  0.00    -0.143 C  
HETATM   18  O   UNL     1     -10.794   4.234  64.787  1.00  0.00    -0.246 OA 
HETATM   19  C   UNL     1      -9.996   4.735  65.790  1.00  0.00    -0.207 C  
HETATM   20  O   UNL     1      -8.572   4.410  64.115  1.00  0.00    -0.112 OA 
HETATM   21  C   UNL     1     -10.655   5.145  67.035  1.00  0.00    -0.201 C  
HETATM   22  C   UNL     1      -9.874   4.066  63.767  1.00  0.00    -0.145 C  
HETATM   23  O   UNL     1     -10.186   3.642  62.661  1.00  0.00    -0.145 OA 
ENDBRANCH  16  17
ENDBRANCH  15  16
ENDBRANCH  13  15
ENDBRANCH   9  13
BRANCH   8  24
HETATM   24  C   UNL     1      -7.878   7.944  68.930  1.00  0.00    -0.117 C  
BRANCH  24  25
HETATM   25  C   UNL     1      -8.740   8.869  68.101  1.00  0.00    -0.134 A  
HETATM   26  C   UNL     1      -9.826   8.451  67.332  1.00  0.00    -0.249 A  
HETATM   27  C   UNL     1      -9.168  11.156  67.352  1.00  0.00    -0.157 A  
HETATM   28  C   UNL     1     -10.255  10.751  66.560  1.00  0.00    -0.287 A  
HETATM   29  C   UNL     1      -8.435  10.238  68.115  1.00  0.00    -0.123 A  
HETATM   30  C   UNL     1     -10.598   9.385  66.631  1.00  0.00    -0.170 A  
BRANCH  28  31
HETATM   31  C   UNL     1     -11.055  11.726  65.751  1.00  0.00    -0.351 A  
HETATM   32  C   UNL     1     -11.569  12.602  63.499  1.00  0.00    -0.584 A  
HETATM   33  C   UNL     1     -11.093  11.590  64.340  1.00  0.00    -0.359 A  
HETATM   34  C   UNL     1     -12.098  13.759  64.044  1.00  0.00    -0.448 A  
HETATM   35  C   UNL     1     -12.181  13.883  65.427  1.00  0.00    -0.463 A  
HETATM   36  C   UNL     1     -11.687  12.875  66.280  1.00  0.00    -0.457 A  
BRANCH  36  37
HETATM   37  C   UNL     1     -11.917  13.115  67.717  1.00  0.00    -0.307 C  
HETATM   38  N   UNL     1     -12.229  12.207  68.582  1.00  0.00    -0.210 NA 
HETATM   39  O   UNL     1     -12.328  12.900  69.829  1.00  0.00    -0.188 OA 
HETATM   40  C   UNL     1     -12.039  14.213  69.563  1.00  0.00    -0.340 C  
HETATM   41  N   UNL     1     -11.770  14.332  68.255  1.00  0.00    -0.325 NA 
HETATM   42  O   UNL     1     -12.050  15.124  70.379  1.00  0.00    -0.282 OA 
ENDBRANCH  36  37
ENDBRANCH  28  31
ENDBRANCH  24  25
ENDBRANCH   8  24
ENDBRANCH   3   4
ENDBRANCH   2   3
TORSDOF 10
ENDMDL
MODEL      102
REMARK 921   NORMALIZED FREE ENERGY PREDICTED BY IDOCK:   -5.42 KCAL/MOL
REMARK 922        TOTAL FREE ENERGY PREDICTED BY IDOCK:  -11.51 KCAL/MOL
REMARK 923 INTER-LIGAND FREE ENERGY PREDICTED BY IDOCK:  -10.58 KCAL/MOL
REMARK 924 INTRA-LIGAND FREE ENERGY PREDICTED BY IDOCK:   -0.93 KCAL/MOL
REMARK 927      BINDING AFFINITY PREDICTED BY RF-SCORE:    0.00 PKD
ROOT
HETATM    1  C   UNL     1      -9.735  10.862  62.533  1.00  0.00    -0.171 C  
HETATM    2  C   UNL     1      -9.505  11.406  63.931  1.00  0.00    -0.153 C  
ENDROOT
BRANCH   2   3
HETATM    3  O   UNL     1     -10.507  10.892  64.812  1.00  0.00    -0.328 OA 
BRANCH   3   4
HETATM    4  C   UNL     1     -10.034  10.468  65.985  1.00  0.00    -0.237 A  
HETATM    5  N   UNL     1      -8.927   9.791  66.149  1.00  0.00    -0.147 NA 
HETATM    6  C   UNL     1      -8.830   9.590  67.497  1.00  0.00    -0.125 A  
HETATM    7  C   UNL     1      -9.913  10.146  68.192  1.00  0.00    -0.147 A  
HETATM    8  N   UNL     1     -10.650  10.746  67.184  1.00  0.00    -0.241 NA 
HETATM    9  C   UNL     1     -10.019  10.005  69.600  1.00  0.00    -0.263 A  
HETATM   10  C   UNL     1      -8.964   9.347  70.267  1.00  0.00    -0.277 A  
HETATM   11  C   UNL     1      -7.796   8.945  68.194  1.00  0.00    -0.101 A  
HETATM   12  C   UNL     1      -7.864   8.840  69.581  1.00  0.00    -0.090 A  
BRANCH   9  13
HETATM   13  C   UNL     1     -11.110  10.582  70.420  1.00  0.00    -0.244 C  
HETATM   14  O   UNL     1     -11.596  11.681  70.219  1.00  0.00    -0.280 OA 
BRANCH  13  15
HETATM   15  O   UNL     1     -11.423   9.748  71.448  1.00  0.00    -0.371 OA 
BRANCH  15  16
HETATM   16  C   UNL     1     -12.326   8.678  71.126  1.00  0.00    -0.213 C  
BRANCH  16  17
HETATM   17  C   UNL     1     -11.565   7.411  70.954  1.00  0.00    -0.291 C  
HETATM   18  O   UNL     1     -10.330   5.579  71.293  1.00  0.00    -0.215 OA 
HETATM   19  C   UNL     1     -10.890   6.710  71.840  1.00  0.00    -0.236 C  
HETATM   20  O   UNL     1     -11.489   6.823  69.702  1.00  0.00    -0.287 OA 
HETATM   21  C   UNL     1     -10.753   6.899  73.288  1.00  0.00    -0.349 C  
HETATM   22  C   UNL     1     -10.742   5.682  69.976  1.00  0.00    -0.320 C  
HETATM   23  O   UNL     1     -10.461   4.842  69.129  1.00  0.00    -0.126 OA 
ENDBRANCH  16  17
ENDBRANCH  15  16
ENDBRANCH  13  15
ENDBRANCH   9  13
BRANCH   8  24
HETATM   24  C   UNL     1     -11.741  11.700  67.302  1.00  0.00    -0.175 C  
BRANCH  24  25
HETATM   25  C   UNL     1     -11.335  13.154  67.383  1.00  0.00    -0.344 A  
HETATM   26  C   UNL     1     -11.782  14.041  68.362  1.00  0.00    -0.389 A  
HETATM   27  C   UNL     1     -10.038  14.982  66.407  1.00  0.00    -0.289 A  
HETATM   28  C   UNL     1     -10.491  15.892  67.375  1.00  0.00    -0.306 A  
HETATM   29  C   UNL     1     -10.441  13.639  66.418  1.00  0.00    -0.288 A  
HETATM   30  C   UNL     1     -11.317  15.361  68.387  1.00  0.00    -0.345 A  
BRANCH  28  31
HETATM   31  C   UNL     1     -10.056  17.326  67.382  1.00  0.00    -0.307 A  
HETATM   32  C   UNL     1     -10.638  19.659  66.813  1.00  0.00    -0.602 A  
HETATM   33  C   UNL     1     -11.007  18.341  67.105  1.00  0.00    -0.085 A  
HETATM   34  C   UNL     1      -9.305  20.029  66.862  1.00  0.00    -0.515 A  
HETATM   35  C   UNL     1      -8.352  19.088  67.239  1.00  0.00    -0.296 A  
HETATM   36  C   UNL     1      -8.715  17.754  67.518  1.00  0.00    -0.239 A  
BRANCH  36  37
HETATM   37  C   UNL     1      -7.607  16.896  67.979  1.00  0.00    -0.179 C  
HETATM   38  N   UNL     1      -7.241  16.752  69.209  1.00  0.00    -0.219 NA 
HETATM   39  O   UNL     1      -6.155  15.823  69.168  1.00  0.00    -0.113 OA 
HETATM   40  C   UNL     1      -5.987  15.486  67.850  1.00  0.00    -0.147 C  
HETATM   41  N   UNL     1      -6.903  16.144  67.124  1.00  0.00    -0.200 NA 
HETATM   42  O   UNL     1      -5.131  14.730  67.410  1.00  0.00    -0.330 OA 
ENDBRANCH  36  37
ENDBRANCH  28  31
ENDBRANCH  24  25
ENDBRANCH   8  24
ENDBRANCH   3   4
ENDBRANCH   2   3
TORSDOF 10
ENDMDL
MODEL      103
REMARK 921   NORMALIZED FREE ENERGY PREDICTED BY IDOCK:   -5.39 KCAL/MOL
REMARK 922        TOTAL FREE ENERGY PREDICTED BY IDOCK:  -11.47 KCAL/MOL
REMARK 923 INTER-LIGAND FREE ENERGY PREDICTED BY IDOCK:   -8.72 KCAL/MOL
REMARK 924 INTRA-LIGAND FREE ENERGY PREDICTED BY IDOCK:   -2.75 KCAL/MOL
REMARK 927      BINDING AFFINITY PREDICTED BY RF-SCORE:    0.00 PKD
ROOT
HETATM    1  C   UNL     1     -12.172  13.411  63.108  1.00  0.00    -0.139 C  
HETATM    2  C   UNL     1     -12.241  12.096  63.865  1.00  0.00    -0.489 C  
ENDROOT
BRANCH   2   3
HETATM    3  O   UNL     1     -12.793  12.324  65.164  1.00  0.00    -0.522 OA 
BRANCH   3   4
HETATM    4  C   UNL     1     -11.963  12.940  66.007  1.00  0.00    -0.446 A  
HETATM    5  N   UNL     1     -12.204  14.078  66.604  1.00  0.00    -0.448 NA 
HETATM    6  C   UNL     1     -11.102  14.316  67.375  1.00  0.00    -0.304 A  
HETATM    7  C   UNL     1     -10.140  13.305  67.245  1.00  0.00    -0.234 A  
HETATM    8  N   UNL     1     -10.751  12.408  66.385  1.00  0.00    -0.242 NA 
HETATM    9  C   UNL     1      -8.902  13.392  67.933  1.00  0.00    -0.194 A  
HETATM   10  C   UNL     1      -8.714  14.493  68.795  1.00  0.00    -0.147 A  
HETATM   11  C   UNL     1     -10.883  15.397  68.245  1.00  0.00    -0.269 A  
HETATM   12  C   UNL     1      -9.691  15.470  68.961  1.00  0.00    -0.237 A  
BRANCH   9  13
HETATM   13  C   UNL     1      -7.839  12.360  67.879  1.00  0.00    -0.145 C  
HETATM   14  O   UNL     1      -7.568  11.622  68.810  1.00  0.00    -0.128 OA 
BRANCH  13  15
HETATM   15  O   UNL     1      -7.184  12.415  66.689  1.00  0.00     0.124 OA 
BRANCH  15  16
HETATM   16  C   UNL     1      -6.109  11.474  66.528  1.00  0.00    -0.086 C  
BRANCH  16  17
HETATM   17  C   UNL     1      -6.603  10.263  65.816  1.00  0.00    -0.119 C  
HETATM   18  O   UNL     1      -7.219   8.182  65.281  1.00  0.00    -0.065 OA 
HETATM   19  C   UNL     1      -6.693   9.020  66.238  1.00  0.00    -0.070 C  
HETATM   20  O   UNL     1      -7.036  10.369  64.505  1.00  0.00    -0.104 OA 
HETATM   21  C   UNL     1      -6.427   8.450  67.563  1.00  0.00    -0.058 C  
HETATM   22  C   UNL     1      -7.432   9.064  64.236  1.00  0.00    -0.106 C  
HETATM   23  O   UNL     1      -7.918   8.714  63.167  1.00  0.00    -0.146 OA 
ENDBRANCH  16  17
ENDBRANCH  15  16
ENDBRANCH  13  15
ENDBRANCH   9  13
BRANCH   8  24
HETATM   24  C   UNL     1     -10.365  11.040  66.076  1.00  0.00    -0.254 C  
BRANCH  24  25
HETATM   25  C   UNL     1     -10.433  10.063  67.228  1.00  0.00    -0.313 A  
HETATM   26  C   UNL     1     -10.071   8.719  67.140  1.00  0.00    -0.320 A  
HETATM   27  C   UNL     1     -10.996   9.694  69.578  1.00  0.00    -0.233 A  
HETATM   28  C   UNL     1     -10.651   8.335  69.503  1.00  0.00    -0.216 A  
HETATM   29  C   UNL     1     -10.878  10.542  68.468  1.00  0.00    -0.275 A  
HETATM   30  C   UNL     1     -10.122   7.896  68.272  1.00  0.00    -0.225 A  
BRANCH  28  31
HETATM   31  C   UNL     1     -10.760   7.422  70.686  1.00  0.00    -0.242 A  
HETATM   32  C   UNL     1     -12.265   6.144  72.172  1.00  0.00    -0.202 A  
HETATM   33  C   UNL     1     -11.994   6.775  70.953  1.00  0.00    -0.437 A  
HETATM   34  C   UNL     1     -11.282   6.071  73.144  1.00  0.00    -0.177 A  
HETATM   35  C   UNL     1     -10.022   6.595  72.877  1.00  0.00    -0.187 A  
HETATM   36  C   UNL     1      -9.747   7.247  71.657  1.00  0.00    -0.166 A  
BRANCH  36  37
HETATM   37  C   UNL     1      -8.347   7.680  71.491  1.00  0.00    -0.107 C  
HETATM   38  N   UNL     1      -7.364   6.908  71.162  1.00  0.00    -0.077 NA 
HETATM   39  O   UNL     1      -6.221   7.765  71.105  1.00  0.00    -0.035 OA 
HETATM   40  C   UNL     1      -6.668   9.024  71.411  1.00  0.00    -0.074 C  
HETATM   41  N   UNL     1      -7.990   8.963  71.632  1.00  0.00    -0.326 NA 
HETATM   42  O   UNL     1      -5.974  10.028  71.492  1.00  0.00    -0.278 OA 
ENDBRANCH  36  37
ENDBRANCH  28  31
ENDBRANCH  24  25
ENDBRANCH   8  24
ENDBRANCH   3   4
ENDBRANCH   2   3
TORSDOF 10
ENDMDL
MODEL      104
REMARK 921   NORMALIZED FREE ENERGY PREDICTED BY IDOCK:   -5.37 KCAL/MOL
REMARK 922        TOTAL FREE ENERGY PREDICTED BY IDOCK:  -11.44 KCAL/MOL
REMARK 923 INTER-LIGAND FREE ENERGY PREDICTED BY IDOCK:   -8.54 KCAL/MOL
REMARK 924 INTRA-LIGAND FREE ENERGY PREDICTED BY IDOCK:   -2.89 KCAL/MOL
REMARK 927      BINDING AFFINITY PREDICTED BY RF-SCORE:    0.00 PKD
ROOT
HETATM    1  C   UNL     1     -10.306  15.993  66.383  1.00  0.00    -0.312 C  
HETATM    2  C   UNL     1     -11.152  14.732  66.345  1.00  0.00    -0.340 C  
ENDROOT
BRANCH   2   3
HETATM    3  O   UNL     1     -10.527  13.717  67.135  1.00  0.00    -0.269 OA 
BRANCH   3   4
HETATM    4  C   UNL     1     -11.109  13.513  68.317  1.00  0.00    -0.261 A  
HETATM    5  N   UNL     1     -11.308  14.432  69.226  1.00  0.00    -0.270 NA 
HETATM    6  C   UNL     1     -11.940  13.787  70.252  1.00  0.00    -0.326 A  
HETATM    7  C   UNL     1     -12.129  12.425  69.980  1.00  0.00    -0.263 A  
HETATM    8  N   UNL     1     -11.619  12.293  68.700  1.00  0.00    -0.300 NA 
HETATM    9  C   UNL     1     -12.729  11.572  70.942  1.00  0.00    -0.372 A  
HETATM   10  C   UNL     1     -13.182  12.163  72.141  1.00  0.00    -0.438 A  
HETATM   11  C   UNL     1     -12.407  14.343  71.453  1.00  0.00    -0.433 A  
HETATM   12  C   UNL     1     -13.040  13.525  72.387  1.00  0.00    -0.494 A  
BRANCH   9  13
HETATM   13  C   UNL     1     -12.995  10.129  70.733  1.00  0.00    -0.305 C  
HETATM   14  O   UNL     1     -14.103   9.672  70.515  1.00  0.00     0.212 OA 
BRANCH  13  15
HETATM   15  O   UNL     1     -11.852   9.408  70.893  1.00  0.00    -0.281 OA 
BRANCH  15  16
HETATM   16  C   UNL     1     -11.767   8.642  72.106  1.00  0.00    -0.371 C  
BRANCH  16  17
HETATM   17  C   UNL     1     -10.346   8.296  72.384  1.00  0.00    -0.332 C  
HETATM   18  O   UNL     1      -8.470   7.395  73.199  1.00  0.00    -0.117 OA 
HETATM   19  C   UNL     1      -9.844   7.445  73.252  1.00  0.00    -0.272 C  
HETATM   20  O   UNL     1      -9.337   8.931  71.679  1.00  0.00    -0.264 OA 
HETATM   21  C   UNL     1     -10.520   6.503  74.151  1.00  0.00    -0.261 C  
HETATM   22  C   UNL     1      -8.204   8.315  72.200  1.00  0.00    -0.157 C  
HETATM   23  O   UNL     1      -7.067   8.567  71.822  1.00  0.00    -0.085 OA 
ENDBRANCH  16  17
ENDBRANCH  15  16
ENDBRANCH  13  15
ENDBRANCH   9  13
BRANCH   8  24
HETATM   24  C   UNL     1     -11.764  11.180  67.775  1.00  0.00    -0.139 C  
BRANCH  24  25
HETATM   25  C   UNL     1     -10.592  10.228  67.705  1.00  0.00    -0.296 A  
HETATM   26  C   UNL     1      -9.435  10.349  68.474  1.00  0.00    -0.159 A  
HETATM   27  C   UNL     1      -9.624   8.234  66.674  1.00  0.00    -0.299 A  
HETATM   28  C   UNL     1      -8.446   8.350  67.428  1.00  0.00    -0.124 A  
HETATM   29  C   UNL     1     -10.679   9.146  66.818  1.00  0.00    -0.108 A  
HETATM   30  C   UNL     1      -8.417   9.392  68.378  1.00  0.00    -0.120 A  
BRANCH  28  31
HETATM   31  C   UNL     1      -7.317   7.373  67.294  1.00  0.00    -0.098 A  
HETATM   32  C   UNL     1      -5.133   6.880  66.248  1.00  0.00    -0.021 A  
HETATM   33  C   UNL     1      -6.113   7.787  66.667  1.00  0.00    -0.048 A  
HETATM   34  C   UNL     1      -5.287   5.529  66.510  1.00  0.00    -0.012 A  
HETATM   35  C   UNL     1      -6.401   5.097  67.222  1.00  0.00    -0.040 A  
HETATM   36  C   UNL     1      -7.401   6.003  67.632  1.00  0.00    -0.077 A  
BRANCH  36  37
HETATM   37  C   UNL     1      -8.479   5.407  68.442  1.00  0.00    -0.096 C  
HETATM   38  N   UNL     1      -9.458   4.705  67.975  1.00  0.00    -0.138 NA 
HETATM   39  O   UNL     1     -10.228   4.332  69.121  1.00  0.00     0.020 OA 
HETATM   40  C   UNL     1      -9.588   4.870  70.207  1.00  0.00    -0.195 C  
HETATM   41  N   UNL     1      -8.496   5.520  69.776  1.00  0.00    -0.104 NA 
HETATM   42  O   UNL     1      -9.963   4.790  71.368  1.00  0.00    -0.181 OA 
ENDBRANCH  36  37
ENDBRANCH  28  31
ENDBRANCH  24  25
ENDBRANCH   8  24
ENDBRANCH   3   4
ENDBRANCH   2   3
TORSDOF 10
ENDMDL
MODEL      105
REMARK 921   NORMALIZED FREE ENERGY PREDICTED BY IDOCK:   -5.37 KCAL/MOL
REMARK 922        TOTAL FREE ENERGY PREDICTED BY IDOCK:  -11.43 KCAL/MOL
REMARK 923 INTER-LIGAND FREE ENERGY PREDICTED BY IDOCK:   -8.36 KCAL/MOL
REMARK 924 INTRA-LIGAND FREE ENERGY PREDICTED BY IDOCK:   -3.06 KCAL/MOL
REMARK 927      BINDING AFFINITY PREDICTED BY RF-SCORE:    0.00 PKD
ROOT
HETATM    1  C   UNL     1     -12.009  12.695  66.636  1.00  0.00    -0.382 C  
HETATM    2  C   UNL     1     -11.717  13.084  68.074  1.00  0.00    -0.355 C  
ENDROOT
BRANCH   2   3
HETATM    3  O   UNL     1     -10.691  12.236  68.597  1.00  0.00    -0.225 OA 
BRANCH   3   4
HETATM    4  C   UNL     1     -11.120  11.364  69.511  1.00  0.00    -0.211 A  
HETATM    5  N   UNL     1     -12.357  11.249  69.918  1.00  0.00    -0.265 NA 
HETATM    6  C   UNL     1     -12.338  10.233  70.832  1.00  0.00    -0.373 A  
HETATM    7  C   UNL     1     -11.050   9.708  71.009  1.00  0.00    -0.368 A  
HETATM    8  N   UNL     1     -10.295  10.435  70.104  1.00  0.00    -0.155 NA 
HETATM    9  C   UNL     1     -10.813   8.674  71.951  1.00  0.00    -0.419 A  
HETATM   10  C   UNL     1     -11.930   8.158  72.643  1.00  0.00    -0.353 A  
HETATM   11  C   UNL     1     -13.427   9.693  71.534  1.00  0.00    -0.430 A  
HETATM   12  C   UNL     1     -13.216   8.646  72.428  1.00  0.00    -0.388 A  
BRANCH   9  13
HETATM   13  C   UNL     1      -9.495   8.040  72.185  1.00  0.00    -0.202 C  
HETATM   14  O   UNL     1      -8.504   8.654  72.537  1.00  0.00    -0.364 OA 
BRANCH  13  15
HETATM   15  O   UNL     1      -9.545   6.715  71.881  1.00  0.00    -0.152 OA 
BRANCH  15  16
HETATM   16  C   UNL     1      -8.441   6.212  71.111  1.00  0.00    -0.125 C  
BRANCH  16  17
HETATM   17  C   UNL     1      -8.924   5.184  70.150  1.00  0.00    -0.119 C  
HETATM   18  O   UNL     1     -10.126   4.017  68.670  1.00  0.00     0.056 OA 
HETATM   19  C   UNL     1     -10.053   5.130  69.476  1.00  0.00    -0.246 C  
HETATM   20  O   UNL     1      -8.137   4.076  69.880  1.00  0.00    -0.055 OA 
HETATM   21  C   UNL     1     -11.146   6.103  69.383  1.00  0.00    -0.479 C  
HETATM   22  C   UNL     1      -8.913   3.407  68.939  1.00  0.00    -0.128 C  
HETATM   23  O   UNL     1      -8.565   2.363  68.400  1.00  0.00    -0.068 OA 
ENDBRANCH  16  17
ENDBRANCH  15  16
ENDBRANCH  13  15
ENDBRANCH   9  13
BRANCH   8  24
HETATM   24  C   UNL     1      -8.943  10.176  69.635  1.00  0.00    -0.169 C  
BRANCH  24  25
HETATM   25  C   UNL     1      -8.813   9.133  68.549  1.00  0.00    -0.129 A  
HETATM   26  C   UNL     1      -7.706   8.301  68.388  1.00  0.00    -0.105 A  
HETATM   27  C   UNL     1      -9.826   8.061  66.600  1.00  0.00    -0.322 A  
HETATM   28  C   UNL     1      -8.713   7.225  66.413  1.00  0.00    -0.152 A  
HETATM   29  C   UNL     1      -9.881   8.985  67.652  1.00  0.00    -0.220 A  
HETATM   30  C   UNL     1      -7.692   7.329  67.379  1.00  0.00    -0.110 A  
BRANCH  28  31
HETATM   31  C   UNL     1      -8.650   6.223  65.302  1.00  0.00    -0.068 A  
HETATM   32  C   UNL     1      -8.926   3.858  64.642  1.00  0.00    -0.131 A  
HETATM   33  C   UNL     1      -9.192   4.927  65.504  1.00  0.00    -0.160 A  
HETATM   34  C   UNL     1      -8.170   4.063  63.501  1.00  0.00    -0.091 A  
HETATM   35  C   UNL     1      -7.714   5.345  63.209  1.00  0.00    -0.081 A  
HETATM   36  C   UNL     1      -7.964   6.424  64.082  1.00  0.00    -0.096 A  
BRANCH  36  37
HETATM   37  C   UNL     1      -7.485   7.732  63.598  1.00  0.00    -0.108 C  
HETATM   38  N   UNL     1      -6.247   8.041  63.394  1.00  0.00    -0.071 NA 
HETATM   39  O   UNL     1      -6.274   9.389  62.917  1.00  0.00    -0.093 OA 
HETATM   40  C   UNL     1      -7.594   9.756  62.876  1.00  0.00    -0.124 C  
HETATM   41  N   UNL     1      -8.336   8.716  63.284  1.00  0.00    -0.168 NA 
HETATM   42  O   UNL     1      -8.018  10.854  62.545  1.00  0.00    -0.159 OA 
ENDBRANCH  36  37
ENDBRANCH  28  31
ENDBRANCH  24  25
ENDBRANCH   8  24
ENDBRANCH   3   4
ENDBRANCH   2   3
TORSDOF 10
ENDMDL
MODEL      106
REMARK 921   NORMALIZED FREE ENERGY PREDICTED BY IDOCK:   -5.36 KCAL/MOL
REMARK 922        TOTAL FREE ENERGY PREDICTED BY IDOCK:  -11.42 KCAL/MOL
REMARK 923 INTER-LIGAND FREE ENERGY PREDICTED BY IDOCK:   -8.96 KCAL/MOL
REMARK 924 INTRA-LIGAND FREE ENERGY PREDICTED BY IDOCK:   -2.46 KCAL/MOL
REMARK 927      BINDING AFFINITY PREDICTED BY RF-SCORE:    0.00 PKD
ROOT
HETATM    1  C   UNL     1      -5.362   9.125  73.252  1.00  0.00    -0.103 C  
HETATM    2  C   UNL     1      -5.700   8.851  71.797  1.00  0.00    -0.060 C  
ENDROOT
BRANCH   2   3
HETATM    3  O   UNL     1      -6.836   9.631  71.417  1.00  0.00    -0.320 OA 
BRANCH   3   4
HETATM    4  C   UNL     1      -7.964   8.928  71.303  1.00  0.00    -0.129 A  
HETATM    5  N   UNL     1      -8.778   8.647  72.287  1.00  0.00    -0.369 NA 
HETATM    6  C   UNL     1      -9.795   7.935  71.715  1.00  0.00    -0.173 A  
HETATM    7  C   UNL     1      -9.603   7.756  70.338  1.00  0.00    -0.175 A  
HETATM    8  N   UNL     1      -8.429   8.451  70.098  1.00  0.00    -0.122 NA 
HETATM    9  C   UNL     1     -10.528   7.003  69.571  1.00  0.00    -0.235 A  
HETATM   10  C   UNL     1     -11.670   6.507  70.235  1.00  0.00    -0.430 A  
HETATM   11  C   UNL     1     -10.945   7.432  72.343  1.00  0.00    -0.319 A  
HETATM   12  C   UNL     1     -11.884   6.730  71.592  1.00  0.00    -0.370 A  
BRANCH   9  13
HETATM   13  C   UNL     1     -10.423   6.785  68.109  1.00  0.00    -0.211 C  
HETATM   14  O   UNL     1     -11.283   7.118  67.313  1.00  0.00    -0.240 OA 
BRANCH  13  15
HETATM   15  O   UNL     1      -9.282   6.107  67.810  1.00  0.00    -0.114 OA 
BRANCH  15  16
HETATM   16  C   UNL     1      -9.259   5.467  66.524  1.00  0.00    -0.138 C  
BRANCH  16  17
HETATM   17  C   UNL     1      -8.430   6.264  65.580  1.00  0.00    -0.144 C  
HETATM   18  O   UNL     1      -7.003   6.909  63.984  1.00  0.00    -0.051 OA 
HETATM   19  C   UNL     1      -7.561   5.860  64.678  1.00  0.00    -0.089 C  
HETATM   20  O   UNL     1      -8.510   7.647  65.598  1.00  0.00    -0.141 OA 
HETATM   21  C   UNL     1      -7.204   4.503  64.251  1.00  0.00    -0.058 C  
HETATM   22  C   UNL     1      -7.633   7.991  64.574  1.00  0.00    -0.114 C  
HETATM   23  O   UNL     1      -7.424   9.147  64.227  1.00  0.00    -0.101 OA 
ENDBRANCH  16  17
ENDBRANCH  15  16
ENDBRANCH  13  15
ENDBRANCH   9  13
BRANCH   8  24
HETATM   24  C   UNL     1      -7.855   8.850  68.823  1.00  0.00    -0.101 C  
BRANCH  24  25
HETATM   25  C   UNL     1      -8.311  10.189  68.289  1.00  0.00    -0.115 A  
HETATM   26  C   UNL     1      -9.610  10.682  68.410  1.00  0.00    -0.170 A  
HETATM   27  C   UNL     1      -7.712  12.235  67.094  1.00  0.00    -0.134 A  
HETATM   28  C   UNL     1      -9.018  12.740  67.192  1.00  0.00    -0.214 A  
HETATM   29  C   UNL     1      -7.362  10.994  67.641  1.00  0.00    -0.094 A  
HETATM   30  C   UNL     1      -9.932  11.956  67.925  1.00  0.00    -0.195 A  
BRANCH  28  31
HETATM   31  C   UNL     1      -9.400  14.073  66.624  1.00  0.00    -0.292 A  
HETATM   32  C   UNL     1      -9.514  16.514  66.992  1.00  0.00    -0.249 A  
HETATM   33  C   UNL     1      -8.975  15.255  67.283  1.00  0.00    -0.209 A  
HETATM   34  C   UNL     1     -10.445  16.647  65.977  1.00  0.00    -0.306 A  
HETATM   35  C   UNL     1     -10.804  15.528  65.232  1.00  0.00    -0.425 A  
HETATM   36  C   UNL     1     -10.278  14.254  65.530  1.00  0.00    -0.379 A  
BRANCH  36  37
HETATM   37  C   UNL     1     -10.694  13.183  64.606  1.00  0.00    -0.380 C  
HETATM   38  N   UNL     1     -11.917  12.881  64.321  1.00  0.00    -0.373 NA 
HETATM   39  O   UNL     1     -11.825  11.807  63.380  1.00  0.00    -0.453 OA 
HETATM   40  C   UNL     1     -10.488  11.579  63.187  1.00  0.00    -0.291 C  
HETATM   41  N   UNL     1      -9.796  12.448  63.938  1.00  0.00    -0.219 NA 
HETATM   42  O   UNL     1     -10.009  10.713  62.468  1.00  0.00    -0.151 OA 
ENDBRANCH  36  37
ENDBRANCH  28  31
ENDBRANCH  24  25
ENDBRANCH   8  24
ENDBRANCH   3   4
ENDBRANCH   2   3
TORSDOF 10
ENDMDL
MODEL      107
REMARK 921   NORMALIZED FREE ENERGY PREDICTED BY IDOCK:   -5.34 KCAL/MOL
REMARK 922        TOTAL FREE ENERGY PREDICTED BY IDOCK:  -11.39 KCAL/MOL
REMARK 923 INTER-LIGAND FREE ENERGY PREDICTED BY IDOCK:   -9.18 KCAL/MOL
REMARK 924 INTRA-LIGAND FREE ENERGY PREDICTED BY IDOCK:   -2.21 KCAL/MOL
REMARK 927      BINDING AFFINITY PREDICTED BY RF-SCORE:    0.00 PKD
ROOT
HETATM    1  C   UNL     1     -10.425   4.934  65.888  1.00  0.00    -0.282 C  
HETATM    2  C   UNL     1     -11.027   5.973  66.818  1.00  0.00    -0.225 C  
ENDROOT
BRANCH   2   3
HETATM    3  O   UNL     1     -10.141   7.091  66.917  1.00  0.00    -0.197 OA 
BRANCH   3   4
HETATM    4  C   UNL     1      -9.266   7.004  67.919  1.00  0.00    -0.125 A  
HETATM    5  N   UNL     1      -8.068   6.488  67.829  1.00  0.00    -0.114 NA 
HETATM    6  C   UNL     1      -7.527   6.624  69.077  1.00  0.00    -0.095 A  
HETATM    7  C   UNL     1      -8.418   7.230  69.974  1.00  0.00    -0.139 A  
HETATM    8  N   UNL     1      -9.518   7.503  69.178  1.00  0.00    -0.150 NA 
HETATM    9  C   UNL     1      -8.059   7.420  71.333  1.00  0.00    -0.097 A  
HETATM   10  C   UNL     1      -6.756   7.038  71.719  1.00  0.00    -0.053 A  
HETATM   11  C   UNL     1      -6.237   6.261  69.494  1.00  0.00    -0.033 A  
HETATM   12  C   UNL     1      -5.855   6.484  70.815  1.00  0.00    -0.027 A  
BRANCH   9  13
HETATM   13  C   UNL     1      -8.921   8.074  72.344  1.00  0.00    -0.176 C  
HETATM   14  O   UNL     1      -9.091   9.279  72.408  1.00  0.00    -0.017 OA 
BRANCH  13  15
HETATM   15  O   UNL     1      -9.421   7.153  73.211  1.00  0.00    -0.151 OA 
BRANCH  15  16
HETATM   16  C   UNL     1     -10.522   6.372  72.719  1.00  0.00    -0.214 C  
BRANCH  16  17
HETATM   17  C   UNL     1     -10.183   4.924  72.789  1.00  0.00    -0.180 C  
HETATM   18  O   UNL     1      -9.641   2.814  72.289  1.00  0.00    -0.109 OA 
HETATM   19  C   UNL     1      -9.928   4.074  71.817  1.00  0.00    -0.170 C  
HETATM   20  O   UNL     1     -10.123   4.293  74.021  1.00  0.00    -0.140 OA 
HETATM   21  C   UNL     1      -9.804   4.299  70.373  1.00  0.00    -0.268 C  
HETATM   22  C   UNL     1      -9.754   3.003  73.655  1.00  0.00    -0.099 C  
HETATM   23  O   UNL     1      -9.557   2.105  74.464  1.00  0.00    -0.080 OA 
ENDBRANCH  16  17
ENDBRANCH  15  16
ENDBRANCH  13  15
ENDBRANCH   9  13
BRANCH   8  24
HETATM   24  C   UNL     1     -10.660   8.355  69.469  1.00  0.00    -0.213 C  
BRANCH  24  25
HETATM   25  C   UNL     1     -10.501   9.813  69.102  1.00  0.00    -0.232 A  
HETATM   26  C   UNL     1      -9.346  10.361  68.546  1.00  0.00    -0.160 A  
HETATM   27  C   UNL     1     -11.513  12.036  69.038  1.00  0.00    -0.357 A  
HETATM   28  C   UNL     1     -10.353  12.609  68.493  1.00  0.00    -0.232 A  
HETATM   29  C   UNL     1     -11.590  10.667  69.324  1.00  0.00    -0.346 A  
HETATM   30  C   UNL     1      -9.303  11.716  68.194  1.00  0.00    -0.188 A  
BRANCH  28  31
HETATM   31  C   UNL     1     -10.264  14.069  68.169  1.00  0.00    -0.243 A  
HETATM   32  C   UNL     1      -9.914  16.355  69.039  1.00  0.00    -0.267 A  
HETATM   33  C   UNL     1      -9.767  14.968  69.147  1.00  0.00    -0.212 A  
HETATM   34  C   UNL     1     -10.498  16.900  67.908  1.00  0.00    -0.344 A  
HETATM   35  C   UNL     1     -10.898  16.057  66.876  1.00  0.00    -0.203 A  
HETATM   36  C   UNL     1     -10.768  14.657  66.986  1.00  0.00    -0.290 A  
BRANCH  36  37
HETATM   37  C   UNL     1     -11.164  13.904  65.781  1.00  0.00    -0.303 C  
HETATM   38  N   UNL     1     -10.453  13.793  64.708  1.00  0.00    -0.422 NA 
HETATM   39  O   UNL     1     -11.227  12.967  63.834  1.00  0.00    -0.390 OA 
HETATM   40  C   UNL     1     -12.371  12.648  64.518  1.00  0.00    -0.464 C  
HETATM   41  N   UNL     1     -12.314  13.221  65.730  1.00  0.00    -0.451 NA 
HETATM   42  O   UNL     1     -13.296  11.975  64.086  1.00  0.00    -0.725 OA 
ENDBRANCH  36  37
ENDBRANCH  28  31
ENDBRANCH  24  25
ENDBRANCH   8  24
ENDBRANCH   3   4
ENDBRANCH   2   3
TORSDOF 10
ENDMDL
MODEL      108
REMARK 921   NORMALIZED FREE ENERGY PREDICTED BY IDOCK:   -5.34 KCAL/MOL
REMARK 922        TOTAL FREE ENERGY PREDICTED BY IDOCK:  -11.39 KCAL/MOL
REMARK 923 INTER-LIGAND FREE ENERGY PREDICTED BY IDOCK:   -9.38 KCAL/MOL
REMARK 924 INTRA-LIGAND FREE ENERGY PREDICTED BY IDOCK:   -2.01 KCAL/MOL
REMARK 927      BINDING AFFINITY PREDICTED BY RF-SCORE:    0.00 PKD
ROOT
HETATM    1  C   UNL     1     -13.364   9.000  72.444  1.00  0.00    -0.516 C  
HETATM    2  C   UNL     1     -12.990   9.739  71.171  1.00  0.00    -0.348 C  
ENDROOT
BRANCH   2   3
HETATM    3  O   UNL     1     -11.666  10.264  71.299  1.00  0.00    -0.354 OA 
BRANCH   3   4
HETATM    4  C   UNL     1     -10.708   9.337  71.270  1.00  0.00    -0.352 A  
HETATM    5  N   UNL     1     -10.246   8.700  72.314  1.00  0.00    -0.322 NA 
HETATM    6  C   UNL     1      -9.301   7.845  71.819  1.00  0.00    -0.150 A  
HETATM    7  C   UNL     1      -9.161   7.962  70.429  1.00  0.00    -0.154 A  
HETATM    8  N   UNL     1     -10.120   8.906  70.102  1.00  0.00    -0.183 NA 
HETATM    9  C   UNL     1      -8.197   7.190  69.732  1.00  0.00    -0.131 A  
HETATM   10  C   UNL     1      -7.443   6.261  70.482  1.00  0.00    -0.091 A  
HETATM   11  C   UNL     1      -8.538   6.908  72.534  1.00  0.00    -0.130 A  
HETATM   12  C   UNL     1      -7.620   6.111  71.854  1.00  0.00    -0.096 A  
BRANCH   9  13
HETATM   13  C   UNL     1      -7.997   7.225  68.264  1.00  0.00    -0.124 C  
HETATM   14  O   UNL     1      -8.839   6.869  67.460  1.00  0.00    -0.119 OA 
BRANCH  13  15
HETATM   15  O   UNL     1      -6.734   7.636  67.967  1.00  0.00    -0.059 OA 
BRANCH  15  16
HETATM   16  C   UNL     1      -6.520   9.056  67.997  1.00  0.00    -0.060 C  
BRANCH  16  17
HETATM   17  C   UNL     1      -6.282   9.559  66.617  1.00  0.00    -0.065 C  
HETATM   18  O   UNL     1      -5.897  10.849  64.832  1.00  0.00    -0.047 OA 
HETATM   19  C   UNL     1      -6.105  10.791  66.191  1.00  0.00    -0.133 C  
HETATM   20  O   UNL     1      -6.243   8.664  65.560  1.00  0.00    -0.051 OA 
HETATM   21  C   UNL     1      -5.992  12.045  66.945  1.00  0.00    -0.076 C  
HETATM   22  C   UNL     1      -5.973   9.510  64.489  1.00  0.00    -0.080 C  
HETATM   23  O   UNL     1      -5.824   9.114  63.340  1.00  0.00    -0.085 OA 
ENDBRANCH  16  17
ENDBRANCH  15  16
ENDBRANCH  13  15
ENDBRANCH   9  13
BRANCH   8  24
HETATM   24  C   UNL     1     -10.635   9.259  68.788  1.00  0.00    -0.193 C  
BRANCH  24  25
HETATM   25  C   UNL     1     -10.666  10.737  68.472  1.00  0.00    -0.245 A  
HETATM   26  C   UNL     1     -11.804  11.426  68.052  1.00  0.00    -0.273 A  
HETATM   27  C   UNL     1      -9.417  12.832  68.320  1.00  0.00    -0.203 A  
HETATM   28  C   UNL     1     -10.548  13.538  67.881  1.00  0.00    -0.255 A  
HETATM   29  C   UNL     1      -9.478  11.465  68.621  1.00  0.00    -0.168 A  
HETATM   30  C   UNL     1     -11.752  12.807  67.825  1.00  0.00    -0.412 A  
BRANCH  28  31
HETATM   31  C   UNL     1     -10.499  15.003  67.571  1.00  0.00    -0.256 A  
HETATM   32  C   UNL     1      -9.616  16.766  66.081  1.00  0.00    -0.302 A  
HETATM   33  C   UNL     1      -9.959  15.432  66.331  1.00  0.00    -0.295 A  
HETATM   34  C   UNL     1      -9.872  17.735  67.037  1.00  0.00    -0.309 A  
HETATM   35  C   UNL     1     -10.504  17.371  68.221  1.00  0.00    -0.385 A  
HETATM   36  C   UNL     1     -10.837  16.026  68.487  1.00  0.00    -0.304 A  
BRANCH  36  37
HETATM   37  C   UNL     1     -11.571  15.810  69.748  1.00  0.00    -0.355 C  
HETATM   38  N   UNL     1     -12.851  15.661  69.846  1.00  0.00    -0.070 NA 
HETATM   39  O   UNL     1     -13.096  15.463  71.241  1.00  0.00    -0.427 OA 
HETATM   40  C   UNL     1     -11.872  15.507  71.857  1.00  0.00    -0.434 C  
HETATM   41  N   UNL     1     -10.933  15.706  70.920  1.00  0.00    -0.319 NA 
HETATM   42  O   UNL     1     -11.674  15.406  73.059  1.00  0.00    -0.446 OA 
ENDBRANCH  36  37
ENDBRANCH  28  31
ENDBRANCH  24  25
ENDBRANCH   8  24
ENDBRANCH   3   4
ENDBRANCH   2   3
TORSDOF 10
ENDMDL
MODEL      109
REMARK 921   NORMALIZED FREE ENERGY PREDICTED BY IDOCK:   -5.32 KCAL/MOL
REMARK 922        TOTAL FREE ENERGY PREDICTED BY IDOCK:  -11.34 KCAL/MOL
REMARK 923 INTER-LIGAND FREE ENERGY PREDICTED BY IDOCK:   -9.69 KCAL/MOL
REMARK 924 INTRA-LIGAND FREE ENERGY PREDICTED BY IDOCK:   -1.65 KCAL/MOL
REMARK 927      BINDING AFFINITY PREDICTED BY RF-SCORE:    0.00 PKD
ROOT
HETATM    1  C   UNL     1     -12.463   7.942  71.363  1.00  0.00    -0.330 C  
HETATM    2  C   UNL     1     -12.580   9.420  71.691  1.00  0.00    -0.375 C  
ENDROOT
BRANCH   2   3
HETATM    3  O   UNL     1     -13.110  10.117  70.561  1.00  0.00    -0.288 OA 
BRANCH   3   4
HETATM    4  C   UNL     1     -12.775  11.407  70.513  1.00  0.00    -0.137 A  
HETATM    5  N   UNL     1     -12.899  12.253  71.502  1.00  0.00    -0.340 NA 
HETATM    6  C   UNL     1     -12.425  13.440  71.017  1.00  0.00    -0.353 A  
HETATM    7  C   UNL     1     -12.006  13.333  69.683  1.00  0.00    -0.314 A  
HETATM    8  N   UNL     1     -12.206  11.992  69.404  1.00  0.00    -0.165 NA 
HETATM    9  C   UNL     1     -11.522  14.469  68.984  1.00  0.00    -0.318 A  
HETATM   10  C   UNL     1     -11.419  15.679  69.704  1.00  0.00    -0.345 A  
HETATM   11  C   UNL     1     -12.304  14.658  71.704  1.00  0.00    -0.416 A  
HETATM   12  C   UNL     1     -11.788  15.770  71.043  1.00  0.00    -0.460 A  
BRANCH   9  13
HETATM   13  C   UNL     1     -11.032  14.446  67.586  1.00  0.00    -0.286 C  
HETATM   14  O   UNL     1     -11.678  14.006  66.652  1.00  0.00    -0.359 OA 
BRANCH  13  15
HETATM   15  O   UNL     1      -9.756  14.912  67.523  1.00  0.00    -0.211 OA 
BRANCH  15  16
HETATM   16  C   UNL     1      -9.377  15.517  66.275  1.00  0.00    -0.320 C  
BRANCH  16  17
HETATM   17  C   UNL     1      -9.329  16.996  66.427  1.00  0.00    -0.270 C  
HETATM   18  O   UNL     1      -8.663  19.126  66.557  1.00  0.00    -0.313 OA 
HETATM   19  C   UNL     1      -8.296  17.811  66.385  1.00  0.00    -0.248 C  
HETATM   20  O   UNL     1     -10.498  17.698  66.670  1.00  0.00    -0.335 OA 
HETATM   21  C   UNL     1      -6.888  17.537  66.082  1.00  0.00    -0.311 C  
HETATM   22  C   UNL     1     -10.033  19.008  66.710  1.00  0.00    -0.360 C  
HETATM   23  O   UNL     1     -10.764  19.977  66.877  1.00  0.00    -0.408 OA 
ENDBRANCH  16  17
ENDBRANCH  15  16
ENDBRANCH  13  15
ENDBRANCH   9  13
BRANCH   8  24
HETATM   24  C   UNL     1     -11.721  11.218  68.273  1.00  0.00    -0.274 C  
BRANCH  24  25
HETATM   25  C   UNL     1     -10.609  10.239  68.576  1.00  0.00    -0.240 A  
HETATM   26  C   UNL     1      -9.471  10.549  69.318  1.00  0.00    -0.191 A  
HETATM   27  C   UNL     1      -9.738   7.972  68.302  1.00  0.00    -0.177 A  
HETATM   28  C   UNL     1      -8.578   8.271  69.034  1.00  0.00    -0.135 A  
HETATM   29  C   UNL     1     -10.737   8.931  68.089  1.00  0.00    -0.148 A  
HETATM   30  C   UNL     1      -8.512   9.565  69.590  1.00  0.00    -0.174 A  
BRANCH  28  31
HETATM   31  C   UNL     1      -7.509   7.250  69.282  1.00  0.00    -0.096 A  
HETATM   32  C   UNL     1      -5.554   6.604  70.648  1.00  0.00    -0.023 A  
HETATM   33  C   UNL     1      -6.739   7.327  70.471  1.00  0.00    -0.048 A  
HETATM   34  C   UNL     1      -5.134   5.719  69.670  1.00  0.00    -0.004 A  
HETATM   35  C   UNL     1      -5.921   5.532  68.538  1.00  0.00    -0.021 A  
HETATM   36  C   UNL     1      -7.108   6.269  68.346  1.00  0.00    -0.083 A  
BRANCH  36  37
HETATM   37  C   UNL     1      -7.871   5.906  67.137  1.00  0.00    -0.102 C  
HETATM   38  N   UNL     1      -7.698   6.423  65.966  1.00  0.00    -0.090 NA 
HETATM   39  O   UNL     1      -8.639   5.753  65.122  1.00  0.00    -0.149 OA 
HETATM   40  C   UNL     1      -9.300   4.855  65.919  1.00  0.00    -0.159 C  
HETATM   41  N   UNL     1      -8.804   4.946  67.162  1.00  0.00    -0.107 NA 
HETATM   42  O   UNL     1     -10.204   4.113  65.560  1.00  0.00    -0.210 OA 
ENDBRANCH  36  37
ENDBRANCH  28  31
ENDBRANCH  24  25
ENDBRANCH   8  24
ENDBRANCH   3   4
ENDBRANCH   2   3
TORSDOF 10
ENDMDL
MODEL      110
REMARK 921   NORMALIZED FREE ENERGY PREDICTED BY IDOCK:   -5.28 KCAL/MOL
REMARK 922        TOTAL FREE ENERGY PREDICTED BY IDOCK:  -11.29 KCAL/MOL
REMARK 923 INTER-LIGAND FREE ENERGY PREDICTED BY IDOCK:   -8.49 KCAL/MOL
REMARK 924 INTRA-LIGAND FREE ENERGY PREDICTED BY IDOCK:   -2.81 KCAL/MOL
REMARK 927      BINDING AFFINITY PREDICTED BY RF-SCORE:    0.00 PKD
ROOT
HETATM    1  C   UNL     1     -14.057   7.722  71.972  1.00  0.00    -0.379 C  
HETATM    2  C   UNL     1     -12.870   8.637  71.729  1.00  0.00    -0.359 C  
ENDROOT
BRANCH   2   3
HETATM    3  O   UNL     1     -11.781   8.234  72.563  1.00  0.00    -0.386 OA 
BRANCH   3   4
HETATM    4  C   UNL     1     -11.007   7.289  72.027  1.00  0.00    -0.238 A  
HETATM    5  N   UNL     1     -11.319   6.022  71.941  1.00  0.00    -0.284 NA 
HETATM    6  C   UNL     1     -10.254   5.435  71.315  1.00  0.00    -0.223 A  
HETATM    7  C   UNL     1      -9.246   6.361  71.014  1.00  0.00    -0.154 A  
HETATM    8  N   UNL     1      -9.787   7.559  71.449  1.00  0.00    -0.177 NA 
HETATM    9  C   UNL     1      -8.037   5.940  70.402  1.00  0.00    -0.107 A  
HETATM   10  C   UNL     1      -7.926   4.577  70.053  1.00  0.00    -0.063 A  
HETATM   11  C   UNL     1     -10.113   4.087  70.950  1.00  0.00    -0.061 A  
HETATM   12  C   UNL     1      -8.950   3.670  70.306  1.00  0.00    -0.170 A  
BRANCH   9  13
HETATM   13  C   UNL     1      -6.930   6.849  70.021  1.00  0.00    -0.062 C  
HETATM   14  O   UNL     1      -5.941   7.033  70.709  1.00  0.00    -0.027 OA 
BRANCH  13  15
HETATM   15  O   UNL     1      -7.217   7.484  68.853  1.00  0.00    -0.077 OA 
BRANCH  15  16
HETATM   16  C   UNL     1      -6.610   6.922  67.677  1.00  0.00    -0.055 C  
BRANCH  16  17
HETATM   17  C   UNL     1      -7.655   6.301  66.819  1.00  0.00    -0.099 C  
HETATM   18  O   UNL     1      -8.752   5.286  65.157  1.00  0.00    -0.149 OA 
HETATM   19  C   UNL     1      -7.552   5.777  65.617  1.00  0.00    -0.086 C  
HETATM   20  O   UNL     1      -8.964   6.239  67.271  1.00  0.00    -0.114 OA 
HETATM   21  C   UNL     1      -6.367   5.552  64.782  1.00  0.00    -0.037 C  
HETATM   22  C   UNL     1      -9.589   5.577  66.220  1.00  0.00    -0.156 C  
HETATM   23  O   UNL     1     -10.779   5.284  66.222  1.00  0.00    -0.294 OA 
ENDBRANCH  16  17
ENDBRANCH  15  16
ENDBRANCH  13  15
ENDBRANCH   9  13
BRANCH   8  24
HETATM   24  C   UNL     1      -9.332   8.913  71.177  1.00  0.00    -0.257 C  
BRANCH  24  25
HETATM   25  C   UNL     1      -9.738   9.485  69.838  1.00  0.00    -0.252 A  
HETATM   26  C   UNL     1     -10.541   8.821  68.911  1.00  0.00    -0.178 A  
HETATM   27  C   UNL     1      -9.596  11.360  68.277  1.00  0.00    -0.192 A  
HETATM   28  C   UNL     1     -10.389  10.700  67.326  1.00  0.00    -0.265 A  
HETATM   29  C   UNL     1      -9.287  10.771  69.511  1.00  0.00     0.085 A  
HETATM   30  C   UNL     1     -10.906   9.446  67.713  1.00  0.00    -0.223 A  
BRANCH  28  31
HETATM   31  C   UNL     1     -10.738  11.326  66.010  1.00  0.00    -0.301 A  
HETATM   32  C   UNL     1     -12.390  12.643  64.728  1.00  0.00    -0.556 A  
HETATM   33  C   UNL     1     -11.822  12.239  65.942  1.00  0.00    -0.420 A  
HETATM   34  C   UNL     1     -11.845  12.207  63.533  1.00  0.00    -0.597 A  
HETATM   35  C   UNL     1     -10.712  11.400  63.556  1.00  0.00    -0.453 A  
HETATM   36  C   UNL     1     -10.145  10.975  64.775  1.00  0.00    -0.367 A  
BRANCH  36  37
HETATM   37  C   UNL     1      -8.905  10.189  64.638  1.00  0.00    -0.196 C  
HETATM   38  N   UNL     1      -8.766   9.144  63.890  1.00  0.00    -0.172 NA 
HETATM   39  O   UNL     1      -7.405   8.740  64.065  1.00  0.00    -0.097 OA 
HETATM   40  C   UNL     1      -6.846   9.639  64.935  1.00  0.00    -0.109 C  
HETATM   41  N   UNL     1      -7.779  10.542  65.271  1.00  0.00    -0.123 NA 
HETATM   42  O   UNL     1      -5.696   9.607  65.352  1.00  0.00    -0.055 OA 
ENDBRANCH  36  37
ENDBRANCH  28  31
ENDBRANCH  24  25
ENDBRANCH   8  24
ENDBRANCH   3   4
ENDBRANCH   2   3
TORSDOF 10
ENDMDL
MODEL      111
REMARK 921   NORMALIZED FREE ENERGY PREDICTED BY IDOCK:   -5.23 KCAL/MOL
REMARK 922        TOTAL FREE ENERGY PREDICTED BY IDOCK:  -11.21 KCAL/MOL
REMARK 923 INTER-LIGAND FREE ENERGY PREDICTED BY IDOCK:   -9.10 KCAL/MOL
REMARK 924 INTRA-LIGAND FREE ENERGY PREDICTED BY IDOCK:   -2.11 KCAL/MOL
REMARK 927      BINDING AFFINITY PREDICTED BY RF-SCORE:    0.00 PKD
ROOT
HETATM    1  C   UNL     1     -10.780   4.704  65.016  1.00  0.00     0.006 C  
HETATM    2  C   UNL     1     -10.632   5.084  66.479  1.00  0.00    -0.231 C  
ENDROOT
BRANCH   2   3
HETATM    3  O   UNL     1     -10.686   6.506  66.609  1.00  0.00    -0.252 OA 
BRANCH   3   4
HETATM    4  C   UNL     1      -9.497   7.081  66.795  1.00  0.00    -0.163 A  
HETATM    5  N   UNL     1      -8.362   6.441  66.905  1.00  0.00    -0.109 NA 
HETATM    6  C   UNL     1      -7.418   7.416  67.064  1.00  0.00    -0.098 A  
HETATM    7  C   UNL     1      -7.982   8.699  67.067  1.00  0.00    -0.096 A  
HETATM    8  N   UNL     1      -9.325   8.446  66.845  1.00  0.00    -0.163 NA 
HETATM    9  C   UNL     1      -7.170   9.846  67.266  1.00  0.00    -0.086 A  
HETATM   10  C   UNL     1      -5.779   9.642  67.390  1.00  0.00    -0.040 A  
HETATM   11  C   UNL     1      -6.029   7.250  67.187  1.00  0.00    -0.041 A  
HETATM   12  C   UNL     1      -5.216   8.371  67.336  1.00  0.00    -0.034 A  
BRANCH   9  13
HETATM   13  C   UNL     1      -7.672  11.240  67.256  1.00  0.00    -0.138 C  
HETATM   14  O   UNL     1      -8.182  11.767  66.283  1.00  0.00    -0.075 OA 
BRANCH  13  15
HETATM   15  O   UNL     1      -7.414  11.846  68.446  1.00  0.00    -0.090 OA 
BRANCH  15  16
HETATM   16  C   UNL     1      -7.732  13.246  68.511  1.00  0.00    -0.120 C  
BRANCH  16  17
HETATM   17  C   UNL     1      -6.787  13.935  69.432  1.00  0.00    -0.065 C  
HETATM   18  O   UNL     1      -5.333  15.361  70.352  1.00  0.00    -0.127 OA 
HETATM   19  C   UNL     1      -6.088  15.034  69.249  1.00  0.00    -0.107 C  
HETATM   20  O   UNL     1      -6.536  13.395  70.683  1.00  0.00     0.092 OA 
HETATM   21  C   UNL     1      -6.087  15.977  68.126  1.00  0.00    -0.126 C  
HETATM   22  C   UNL     1      -5.657  14.332  71.218  1.00  0.00    -0.205 C  
HETATM   23  O   UNL     1      -5.197  14.253  72.350  1.00  0.00    -0.181 OA 
ENDBRANCH  16  17
ENDBRANCH  15  16
ENDBRANCH  13  15
ENDBRANCH   9  13
BRANCH   8  24
HETATM   24  C   UNL     1     -10.379   9.382  66.487  1.00  0.00    -0.198 C  
BRANCH  24  25
HETATM   25  C   UNL     1     -10.845  10.300  67.593  1.00  0.00    -0.363 A  
HETATM   26  C   UNL     1     -10.677  10.040  68.953  1.00  0.00    -0.243 A  
HETATM   27  C   UNL     1     -11.963  12.389  68.195  1.00  0.00    -0.272 A  
HETATM   28  C   UNL     1     -11.817  12.135  69.568  1.00  0.00    -0.386 A  
HETATM   29  C   UNL     1     -11.477  11.497  67.229  1.00  0.00    -0.338 A  
HETATM   30  C   UNL     1     -11.099  10.971  69.910  1.00  0.00    -0.276 A  
BRANCH  28  31
HETATM   31  C   UNL     1     -12.319  13.088  70.609  1.00  0.00    -0.391 A  
HETATM   32  C   UNL     1     -13.853  13.435  72.515  1.00  0.00    -0.595 A  
HETATM   33  C   UNL     1     -13.116  12.594  71.674  1.00  0.00    -0.421 A  
HETATM   34  C   UNL     1     -13.759  14.809  72.371  1.00  0.00    -0.576 A  
HETATM   35  C   UNL     1     -12.901  15.334  71.410  1.00  0.00    -0.485 A  
HETATM   36  C   UNL     1     -12.168  14.492  70.548  1.00  0.00    -0.399 A  
BRANCH  36  37
HETATM   37  C   UNL     1     -11.245  15.195  69.637  1.00  0.00    -0.272 C  
HETATM   38  N   UNL     1     -10.008  15.465  69.896  1.00  0.00    -0.261 NA 
HETATM   39  O   UNL     1      -9.519  16.126  68.726  1.00  0.00    -0.210 OA 
HETATM   40  C   UNL     1     -10.568  16.173  67.844  1.00  0.00    -0.309 C  
HETATM   41  N   UNL     1     -11.627  15.578  68.413  1.00  0.00    -0.367 NA 
HETATM   42  O   UNL     1     -10.545  16.691  66.737  1.00  0.00    -0.293 OA 
ENDBRANCH  36  37
ENDBRANCH  28  31
ENDBRANCH  24  25
ENDBRANCH   8  24
ENDBRANCH   3   4
ENDBRANCH   2   3
TORSDOF 10
ENDMDL
MODEL      112
REMARK 921   NORMALIZED FREE ENERGY PREDICTED BY IDOCK:   -5.22 KCAL/MOL
REMARK 922        TOTAL FREE ENERGY PREDICTED BY IDOCK:  -11.20 KCAL/MOL
REMARK 923 INTER-LIGAND FREE ENERGY PREDICTED BY IDOCK:   -8.47 KCAL/MOL
REMARK 924 INTRA-LIGAND FREE ENERGY PREDICTED BY IDOCK:   -2.73 KCAL/MOL
REMARK 927      BINDING AFFINITY PREDICTED BY RF-SCORE:    0.00 PKD
ROOT
HETATM    1  C   UNL     1     -11.098   4.748  73.177  1.00  0.00    -0.388 C  
HETATM    2  C   UNL     1     -11.318   6.117  72.557  1.00  0.00    -0.286 C  
ENDROOT
BRANCH   2   3
HETATM    3  O   UNL     1     -11.154   6.028  71.139  1.00  0.00    -0.277 OA 
BRANCH   3   4
HETATM    4  C   UNL     1      -9.896   6.187  70.727  1.00  0.00    -0.186 A  
HETATM    5  N   UNL     1      -9.109   5.223  70.325  1.00  0.00    -0.131 NA 
HETATM    6  C   UNL     1      -7.937   5.839  69.985  1.00  0.00    -0.099 A  
HETATM    7  C   UNL     1      -7.990   7.224  70.194  1.00  0.00    -0.112 A  
HETATM    8  N   UNL     1      -9.289   7.419  70.632  1.00  0.00    -0.161 NA 
HETATM    9  C   UNL     1      -6.855   8.038  69.943  1.00  0.00    -0.041 A  
HETATM   10  C   UNL     1      -5.708   7.406  69.416  1.00  0.00    -0.023 A  
HETATM   11  C   UNL     1      -6.780   5.244  69.456  1.00  0.00    -0.052 A  
HETATM   12  C   UNL     1      -5.675   6.039  69.162  1.00  0.00    -0.019 A  
BRANCH   9  13
HETATM   13  C   UNL     1      -6.827   9.510  70.107  1.00  0.00    -0.085 C  
HETATM   14  O   UNL     1      -6.821  10.068  71.190  1.00  0.00    -0.336 OA 
BRANCH  13  15
HETATM   15  O   UNL     1      -6.883  10.124  68.894  1.00  0.00    -0.052 OA 
BRANCH  15  16
HETATM   16  C   UNL     1      -5.866  11.109  68.650  1.00  0.00    -0.042 C  
BRANCH  16  17
HETATM   17  C   UNL     1      -6.487  12.458  68.548  1.00  0.00    -0.068 C  
HETATM   18  O   UNL     1      -7.134  14.564  68.927  1.00  0.00    -0.105 OA 
HETATM   19  C   UNL     1      -6.438  13.470  69.388  1.00  0.00    -0.103 C  
HETATM   20  O   UNL     1      -7.262  12.773  67.445  1.00  0.00    -0.146 OA 
HETATM   21  C   UNL     1      -5.685  13.626  70.637  1.00  0.00    -0.187 C  
HETATM   22  C   UNL     1      -7.610  14.092  67.716  1.00  0.00    -0.166 C  
HETATM   23  O   UNL     1      -8.287  14.779  66.961  1.00  0.00    -0.206 OA 
ENDBRANCH  16  17
ENDBRANCH  15  16
ENDBRANCH  13  15
ENDBRANCH   9  13
BRANCH   8  24
HETATM   24  C   UNL     1     -10.025   8.667  70.763  1.00  0.00    -0.197 C  
BRANCH  24  25
HETATM   25  C   UNL     1     -10.294   9.408  69.474  1.00  0.00    -0.223 A  
HETATM   26  C   UNL     1     -10.488   8.791  68.239  1.00  0.00    -0.236 A  
HETATM   27  C   UNL     1     -10.582  11.569  68.369  1.00  0.00    -0.227 A  
HETATM   28  C   UNL     1     -10.764  10.965  67.115  1.00  0.00    -0.320 A  
HETATM   29  C   UNL     1     -10.365  10.807  69.525  1.00  0.00    -0.178 A  
HETATM   30  C   UNL     1     -10.779   9.555  67.102  1.00  0.00    -0.252 A  
BRANCH  28  31
HETATM   31  C   UNL     1     -11.012  11.769  65.875  1.00  0.00    -0.354 A  
HETATM   32  C   UNL     1     -12.515  13.344  64.706  1.00  0.00    -0.416 A  
HETATM   33  C   UNL     1     -12.030  12.757  65.880  1.00  0.00    -0.506 A  
HETATM   34  C   UNL     1     -11.946  13.019  63.487  1.00  0.00    -0.615 A  
HETATM   35  C   UNL     1     -10.871  12.137  63.451  1.00  0.00    -0.474 A  
HETATM   36  C   UNL     1     -10.388  11.529  64.628  1.00  0.00    -0.349 A  
BRANCH  36  37
HETATM   37  C   UNL     1      -9.197  10.680  64.440  1.00  0.00    -0.234 C  
HETATM   38  N   UNL     1      -8.076  10.822  65.068  1.00  0.00    -0.037 NA 
HETATM   39  O   UNL     1      -7.239   9.772  64.576  1.00  0.00    -0.116 OA 
HETATM   40  C   UNL     1      -7.991   9.074  63.668  1.00  0.00    -0.150 C  
HETATM   41  N   UNL     1      -9.208   9.634  63.604  1.00  0.00    -0.198 NA 
HETATM   42  O   UNL     1      -7.608   8.115  63.012  1.00  0.00    -0.113 OA 
ENDBRANCH  36  37
ENDBRANCH  28  31
ENDBRANCH  24  25
ENDBRANCH   8  24
ENDBRANCH   3   4
ENDBRANCH   2   3
TORSDOF 10
ENDMDL
MODEL      113
REMARK 921   NORMALIZED FREE ENERGY PREDICTED BY IDOCK:   -5.22 KCAL/MOL
REMARK 922        TOTAL FREE ENERGY PREDICTED BY IDOCK:  -11.19 KCAL/MOL
REMARK 923 INTER-LIGAND FREE ENERGY PREDICTED BY IDOCK:   -9.42 KCAL/MOL
REMARK 924 INTRA-LIGAND FREE ENERGY PREDICTED BY IDOCK:   -1.77 KCAL/MOL
REMARK 927      BINDING AFFINITY PREDICTED BY RF-SCORE:    0.00 PKD
ROOT
HETATM    1  C   UNL     1     -14.375   7.600  71.724  1.00  0.00    -0.586 C  
HETATM    2  C   UNL     1     -13.308   8.653  71.485  1.00  0.00    -0.305 C  
ENDROOT
BRANCH   2   3
HETATM    3  O   UNL     1     -12.059   8.191  72.007  1.00  0.00    -0.304 OA 
BRANCH   3   4
HETATM    4  C   UNL     1     -11.306   7.542  71.119  1.00  0.00    -0.267 A  
HETATM    5  N   UNL     1     -11.582   6.369  70.611  1.00  0.00    -0.369 NA 
HETATM    6  C   UNL     1     -10.558   6.106  69.745  1.00  0.00    -0.280 A  
HETATM    7  C   UNL     1      -9.610   7.138  69.722  1.00  0.00    -0.155 A  
HETATM    8  N   UNL     1     -10.150   8.072  70.590  1.00  0.00    -0.193 NA 
HETATM    9  C   UNL     1      -8.446   7.032  68.917  1.00  0.00    -0.125 A  
HETATM   10  C   UNL     1      -8.323   5.887  68.101  1.00  0.00    -0.115 A  
HETATM   11  C   UNL     1     -10.406   4.982  68.917  1.00  0.00    -0.134 A  
HETATM   12  C   UNL     1      -9.291   4.888  68.088  1.00  0.00    -0.164 A  
BRANCH   9  13
HETATM   13  C   UNL     1      -7.406   8.082  68.807  1.00  0.00    -0.085 C  
HETATM   14  O   UNL     1      -7.503   9.054  68.078  1.00  0.00    -0.083 OA 
BRANCH  13  15
HETATM   15  O   UNL     1      -6.325   7.761  69.568  1.00  0.00    -0.033 OA 
BRANCH  15  16
HETATM   16  C   UNL     1      -6.341   8.268  70.913  1.00  0.00    -0.037 C  
BRANCH  16  17
HETATM   17  C   UNL     1      -6.713   7.179  71.856  1.00  0.00    -0.056 C  
HETATM   18  O   UNL     1      -7.466   6.013  73.608  1.00  0.00    -0.092 OA 
HETATM   19  C   UNL     1      -7.261   7.253  73.050  1.00  0.00    -0.072 C  
HETATM   20  O   UNL     1      -6.466   5.860  71.511  1.00  0.00    -0.046 OA 
HETATM   21  C   UNL     1      -7.762   8.417  73.789  1.00  0.00    -0.167 C  
HETATM   22  C   UNL     1      -6.978   5.184  72.613  1.00  0.00    -0.084 C  
HETATM   23  O   UNL     1      -6.988   3.962  72.708  1.00  0.00    -0.047 OA 
ENDBRANCH  16  17
ENDBRANCH  15  16
ENDBRANCH  13  15
ENDBRANCH   9  13
BRANCH   8  24
HETATM   24  C   UNL     1      -9.764   9.460  70.784  1.00  0.00    -0.264 C  
BRANCH  24  25
HETATM   25  C   UNL     1     -10.130  10.406  69.663  1.00  0.00    -0.226 A  
HETATM   26  C   UNL     1      -9.215  11.212  68.986  1.00  0.00    -0.045 A  
HETATM   27  C   UNL     1     -11.899  11.339  68.258  1.00  0.00    -0.299 A  
HETATM   28  C   UNL     1     -10.995  12.169  67.577  1.00  0.00    -0.304 A  
HETATM   29  C   UNL     1     -11.474  10.467  69.270  1.00  0.00    -0.323 A  
HETATM   30  C   UNL     1      -9.637  12.025  67.926  1.00  0.00    -0.196 A  
BRANCH  28  31
HETATM   31  C   UNL     1     -11.435  13.094  66.483  1.00  0.00    -0.378 A  
HETATM   32  C   UNL     1     -11.973  13.339  64.084  1.00  0.00    -0.505 A  
HETATM   33  C   UNL     1     -11.825  12.552  65.231  1.00  0.00    -0.461 A  
HETATM   34  C   UNL     1     -11.809  14.712  64.163  1.00  0.00    -0.263 A  
HETATM   35  C   UNL     1     -11.537  15.294  65.397  1.00  0.00    -0.102 A  
HETATM   36  C   UNL     1     -11.370  14.505  66.554  1.00  0.00    -0.354 A  
BRANCH  36  37
HETATM   37  C   UNL     1     -11.162  15.270  67.798  1.00  0.00    -0.326 C  
HETATM   38  N   UNL     1     -10.280  16.200  67.959  1.00  0.00    -0.246 NA 
HETATM   39  O   UNL     1     -10.463  16.658  69.302  1.00  0.00    -0.300 OA 
HETATM   40  C   UNL     1     -11.495  15.920  69.822  1.00  0.00    -0.342 C  
HETATM   41  N   UNL     1     -11.931  15.075  68.876  1.00  0.00    -0.286 NA 
HETATM   42  O   UNL     1     -11.927  16.004  70.963  1.00  0.00    -0.403 OA 
ENDBRANCH  36  37
ENDBRANCH  28  31
ENDBRANCH  24  25
ENDBRANCH   8  24
ENDBRANCH   3   4
ENDBRANCH   2   3
TORSDOF 10
ENDMDL
MODEL      114
REMARK 921   NORMALIZED FREE ENERGY PREDICTED BY IDOCK:   -5.20 KCAL/MOL
REMARK 922        TOTAL FREE ENERGY PREDICTED BY IDOCK:  -11.16 KCAL/MOL
REMARK 923 INTER-LIGAND FREE ENERGY PREDICTED BY IDOCK:   -9.58 KCAL/MOL
REMARK 924 INTRA-LIGAND FREE ENERGY PREDICTED BY IDOCK:   -1.58 KCAL/MOL
REMARK 927      BINDING AFFINITY PREDICTED BY RF-SCORE:    0.00 PKD
ROOT
HETATM    1  C   UNL     1      -9.446   8.210  66.410  1.00  0.00    -0.285 C  
HETATM    2  C   UNL     1      -8.769   8.767  65.170  1.00  0.00    -0.167 C  
ENDROOT
BRANCH   2   3
HETATM    3  O   UNL     1      -8.146  10.013  65.488  1.00  0.00    -0.126 OA 
BRANCH   3   4
HETATM    4  C   UNL     1      -9.004  11.011  65.701  1.00  0.00    -0.199 A  
HETATM    5  N   UNL     1     -10.187  11.115  65.154  1.00  0.00    -0.273 NA 
HETATM    6  C   UNL     1     -10.715  12.268  65.664  1.00  0.00    -0.267 A  
HETATM    7  C   UNL     1      -9.831  12.908  66.544  1.00  0.00    -0.254 A  
HETATM    8  N   UNL     1      -8.751  12.042  66.578  1.00  0.00    -0.175 NA 
HETATM    9  C   UNL     1     -10.177  14.145  67.145  1.00  0.00    -0.258 A  
HETATM   10  C   UNL     1     -11.463  14.661  66.873  1.00  0.00    -0.372 A  
HETATM   11  C   UNL     1     -11.988  12.808  65.419  1.00  0.00    -0.482 A  
HETATM   12  C   UNL     1     -12.358  13.999  66.040  1.00  0.00    -0.504 A  
BRANCH   9  13
HETATM   13  C   UNL     1      -9.322  14.878  68.107  1.00  0.00    -0.193 C  
HETATM   14  O   UNL     1      -9.534  14.916  69.306  1.00  0.00    -0.187 OA 
BRANCH  13  15
HETATM   15  O   UNL     1      -8.333  15.544  67.452  1.00  0.00    -0.158 OA 
BRANCH  15  16
HETATM   16  C   UNL     1      -8.074  16.880  67.912  1.00  0.00    -0.188 C  
BRANCH  16  17
HETATM   17  C   UNL     1      -9.099  17.809  67.363  1.00  0.00    -0.244 C  
HETATM   18  O   UNL     1     -10.560  19.476  67.075  1.00  0.00    -0.441 OA 
HETATM   19  C   UNL     1      -9.659  18.864  67.916  1.00  0.00    -0.316 C  
HETATM   20  O   UNL     1      -9.607  17.593  66.092  1.00  0.00    -0.440 OA 
HETATM   21  C   UNL     1      -9.386  19.513  69.202  1.00  0.00    -0.254 C  
HETATM   22  C   UNL     1     -10.480  18.668  65.955  1.00  0.00    -0.414 C  
HETATM   23  O   UNL     1     -11.132  18.880  64.940  1.00  0.00    -0.364 OA 
ENDBRANCH  16  17
ENDBRANCH  15  16
ENDBRANCH  13  15
ENDBRANCH   9  13
BRANCH   8  24
HETATM   24  C   UNL     1      -7.631  12.023  67.506  1.00  0.00    -0.147 C  
BRANCH  24  25
HETATM   25  C   UNL     1      -7.623  10.885  68.501  1.00  0.00    -0.111 A  
HETATM   26  C   UNL     1      -6.483  10.169  68.865  1.00  0.00    -0.048 A  
HETATM   27  C   UNL     1      -8.920   9.472  70.017  1.00  0.00    -0.249 A  
HETATM   28  C   UNL     1      -7.786   8.730  70.383  1.00  0.00    -0.091 A  
HETATM   29  C   UNL     1      -8.838  10.534  69.106  1.00  0.00    -0.161 A  
HETATM   30  C   UNL     1      -6.561   9.158  69.832  1.00  0.00    -0.047 A  
BRANCH  28  31
HETATM   31  C   UNL     1      -7.858   7.603  71.368  1.00  0.00    -0.089 A  
HETATM   32  C   UNL     1      -6.615   5.847  72.583  1.00  0.00    -0.068 A  
HETATM   33  C   UNL     1      -6.655   7.064  71.894  1.00  0.00    -0.052 A  
HETATM   34  C   UNL     1      -7.790   5.160  72.839  1.00  0.00    -0.098 A  
HETATM   35  C   UNL     1      -9.001   5.712  72.437  1.00  0.00    -0.135 A  
HETATM   36  C   UNL     1      -9.048   6.929  71.727  1.00  0.00    -0.138 A  
BRANCH  36  37
HETATM   37  C   UNL     1     -10.407   7.424  71.438  1.00  0.00    -0.194 C  
HETATM   38  N   UNL     1     -11.165   6.998  70.482  1.00  0.00    -0.281 NA 
HETATM   39  O   UNL     1     -12.377   7.748  70.606  1.00  0.00    -0.080 OA 
HETATM   40  C   UNL     1     -12.207   8.577  71.685  1.00  0.00    -0.322 C  
HETATM   41  N   UNL     1     -10.990   8.356  72.202  1.00  0.00    -0.317 NA 
HETATM   42  O   UNL     1     -13.021   9.395  72.090  1.00  0.00    -0.390 OA 
ENDBRANCH  36  37
ENDBRANCH  28  31
ENDBRANCH  24  25
ENDBRANCH   8  24
ENDBRANCH   3   4
ENDBRANCH   2   3
TORSDOF 10
ENDMDL
MODEL      115
REMARK 921   NORMALIZED FREE ENERGY PREDICTED BY IDOCK:   -5.17 KCAL/MOL
REMARK 922        TOTAL FREE ENERGY PREDICTED BY IDOCK:  -11.11 KCAL/MOL
REMARK 923 INTER-LIGAND FREE ENERGY PREDICTED BY IDOCK:   -8.72 KCAL/MOL
REMARK 924 INTRA-LIGAND FREE ENERGY PREDICTED BY IDOCK:   -2.39 KCAL/MOL
REMARK 927      BINDING AFFINITY PREDICTED BY RF-SCORE:    0.00 PKD
ROOT
HETATM    1  C   UNL     1      -8.389  15.835  68.587  1.00  0.00    -0.183 C  
HETATM    2  C   UNL     1      -9.861  15.595  68.872  1.00  0.00    -0.219 C  
ENDROOT
BRANCH   2   3
HETATM    3  O   UNL     1     -10.114  14.188  68.913  1.00  0.00    -0.220 OA 
BRANCH   3   4
HETATM    4  C   UNL     1     -10.504  13.672  67.747  1.00  0.00    -0.240 A  
HETATM    5  N   UNL     1     -11.544  14.066  67.060  1.00  0.00    -0.350 NA 
HETATM    6  C   UNL     1     -11.551  13.281  65.942  1.00  0.00    -0.347 A  
HETATM    7  C   UNL     1     -10.492  12.362  65.937  1.00  0.00    -0.256 A  
HETATM    8  N   UNL     1      -9.808  12.675  67.100  1.00  0.00    -0.209 NA 
HETATM    9  C   UNL     1     -10.351  11.426  64.881  1.00  0.00    -0.347 A  
HETATM   10  C   UNL     1     -11.274  11.506  63.815  1.00  0.00    -0.456 A  
HETATM   11  C   UNL     1     -12.448  13.336  64.864  1.00  0.00    -0.465 A  
HETATM   12  C   UNL     1     -12.293  12.453  63.798  1.00  0.00    -0.625 A  
BRANCH   9  13
HETATM   13  C   UNL     1      -9.251  10.439  64.776  1.00  0.00    -0.230 C  
HETATM   14  O   UNL     1      -8.304  10.562  64.019  1.00  0.00    -0.161 OA 
BRANCH  13  15
HETATM   15  O   UNL     1      -9.494   9.370  65.582  1.00  0.00    -0.231 OA 
BRANCH  15  16
HETATM   16  C   UNL     1      -8.329   8.676  66.060  1.00  0.00    -0.131 C  
BRANCH  16  17
HETATM   17  C   UNL     1      -8.342   7.273  65.565  1.00  0.00    -0.133 C  
HETATM   18  O   UNL     1      -8.007   5.402  64.388  1.00  0.00    -0.103 OA 
HETATM   19  C   UNL     1      -7.776   6.754  64.496  1.00  0.00    -0.113 C  
HETATM   20  O   UNL     1      -9.045   6.306  66.266  1.00  0.00    -0.152 OA 
HETATM   21  C   UNL     1      -6.881   7.367  63.510  1.00  0.00    -0.054 C  
HETATM   22  C   UNL     1      -8.778   5.168  65.513  1.00  0.00    -0.147 C  
HETATM   23  O   UNL     1      -9.196   4.054  65.806  1.00  0.00    -0.134 OA 
ENDBRANCH  16  17
ENDBRANCH  15  16
ENDBRANCH  13  15
ENDBRANCH   9  13
BRANCH   8  24
HETATM   24  C   UNL     1      -8.482  12.249  67.516  1.00  0.00    -0.172 C  
BRANCH  24  25
HETATM   25  C   UNL     1      -8.440  11.204  68.608  1.00  0.00    -0.153 A  
HETATM   26  C   UNL     1      -9.566  10.709  69.264  1.00  0.00    -0.164 A  
HETATM   27  C   UNL     1      -7.063   9.741  70.000  1.00  0.00    -0.118 A  
HETATM   28  C   UNL     1      -8.184   9.243  70.681  1.00  0.00    -0.224 A  
HETATM   29  C   UNL     1      -7.189  10.691  68.977  1.00  0.00    -0.095 A  
HETATM   30  C   UNL     1      -9.438   9.706  70.232  1.00  0.00    -0.300 A  
BRANCH  28  31
HETATM   31  C   UNL     1      -8.063   8.217  71.766  1.00  0.00    -0.159 A  
HETATM   32  C   UNL     1      -6.694   7.334  73.624  1.00  0.00    -0.065 A  
HETATM   33  C   UNL     1      -7.059   8.370  72.757  1.00  0.00    -0.104 A  
HETATM   34  C   UNL     1      -7.372   6.128  73.582  1.00  0.00    -0.088 A  
HETATM   35  C   UNL     1      -8.437   5.977  72.700  1.00  0.00    -0.118 A  
HETATM   36  C   UNL     1      -8.800   7.011  71.811  1.00  0.00    -0.127 A  
BRANCH  36  37
HETATM   37  C   UNL     1      -9.995   6.731  70.994  1.00  0.00    -0.182 C  
HETATM   38  N   UNL     1     -11.211   6.731  71.431  1.00  0.00    -0.256 NA 
HETATM   39  O   UNL     1     -12.017   6.429  70.288  1.00  0.00    -0.361 OA 
HETATM   40  C   UNL     1     -11.152   6.285  69.235  1.00  0.00    -0.393 C  
HETATM   41  N   UNL     1      -9.903   6.490  69.680  1.00  0.00    -0.158 NA 
HETATM   42  O   UNL     1     -11.466   5.994  68.089  1.00  0.00     0.026 OA 
ENDBRANCH  36  37
ENDBRANCH  28  31
ENDBRANCH  24  25
ENDBRANCH   8  24
ENDBRANCH   3   4
ENDBRANCH   2   3
TORSDOF 10
ENDMDL
MODEL      116
REMARK 921   NORMALIZED FREE ENERGY PREDICTED BY IDOCK:   -5.15 KCAL/MOL
REMARK 922        TOTAL FREE ENERGY PREDICTED BY IDOCK:  -11.09 KCAL/MOL
REMARK 923 INTER-LIGAND FREE ENERGY PREDICTED BY IDOCK:   -8.16 KCAL/MOL
REMARK 924 INTRA-LIGAND FREE ENERGY PREDICTED BY IDOCK:   -2.93 KCAL/MOL
REMARK 927      BINDING AFFINITY PREDICTED BY RF-SCORE:    0.00 PKD
ROOT
HETATM    1  C   UNL     1      -8.562   1.807  65.826  1.00  0.00    -0.111 C  
HETATM    2  C   UNL     1      -9.010   1.706  67.274  1.00  0.00    -0.123 C  
ENDROOT
BRANCH   2   3
HETATM    3  O   UNL     1      -9.451   2.988  67.725  1.00  0.00    -0.208 OA 
BRANCH   3   4
HETATM    4  C   UNL     1      -9.057   3.294  68.962  1.00  0.00    -0.145 A  
HETATM    5  N   UNL     1      -9.325   2.592  70.032  1.00  0.00    -0.130 NA 
HETATM    6  C   UNL     1      -8.717   3.259  71.058  1.00  0.00    -0.075 A  
HETATM    7  C   UNL     1      -8.062   4.418  70.617  1.00  0.00    -0.067 A  
HETATM    8  N   UNL     1      -8.266   4.384  69.247  1.00  0.00    -0.067 NA 
HETATM    9  C   UNL     1      -7.407   5.274  71.539  1.00  0.00    -0.087 A  
HETATM   10  C   UNL     1      -7.386   4.876  72.893  1.00  0.00    -0.090 A  
HETATM   11  C   UNL     1      -8.673   2.891  72.412  1.00  0.00    -0.093 A  
HETATM   12  C   UNL     1      -7.993   3.699  73.320  1.00  0.00    -0.079 A  
BRANCH   9  13
HETATM   13  C   UNL     1      -6.666   6.501  71.163  1.00  0.00    -0.058 C  
HETATM   14  O   UNL     1      -5.452   6.593  71.194  1.00  0.00    -0.025 OA 
BRANCH  13  15
HETATM   15  O   UNL     1      -7.533   7.504  70.858  1.00  0.00    -0.071 OA 
BRANCH  15  16
HETATM   16  C   UNL     1      -8.328   7.991  71.951  1.00  0.00    -0.131 C  
BRANCH  16  17
HETATM   17  C   UNL     1      -9.699   7.416  71.873  1.00  0.00    -0.155 C  
HETATM   18  O   UNL     1     -11.666   6.469  72.351  1.00  0.00    -0.281 OA 
HETATM   19  C   UNL     1     -10.438   6.877  72.819  1.00  0.00    -0.224 C  
HETATM   20  O   UNL     1     -10.360   7.387  70.656  1.00  0.00    -0.209 OA 
HETATM   21  C   UNL     1     -10.191   6.759  74.260  1.00  0.00    -0.309 C  
HETATM   22  C   UNL     1     -11.579   6.822  71.016  1.00  0.00    -0.339 C  
HETATM   23  O   UNL     1     -12.496   6.638  70.224  1.00  0.00    -0.131 OA 
ENDBRANCH  16  17
ENDBRANCH  15  16
ENDBRANCH  13  15
ENDBRANCH   9  13
BRANCH   8  24
HETATM   24  C   UNL     1      -7.613   5.170  68.213  1.00  0.00    -0.079 C  
BRANCH  24  25
HETATM   25  C   UNL     1      -8.368   6.393  67.743  1.00  0.00    -0.118 A  
HETATM   26  C   UNL     1      -9.706   6.385  67.349  1.00  0.00    -0.141 A  
HETATM   27  C   UNL     1      -8.304   8.788  67.262  1.00  0.00    -0.104 A  
HETATM   28  C   UNL     1      -9.645   8.796  66.847  1.00  0.00    -0.249 A  
HETATM   29  C   UNL     1      -7.683   7.615  67.712  1.00  0.00    -0.122 A  
HETATM   30  C   UNL     1     -10.340   7.576  66.972  1.00  0.00    -0.395 A  
BRANCH  28  31
HETATM   31  C   UNL     1     -10.324  10.047  66.378  1.00  0.00    -0.249 A  
HETATM   32  C   UNL     1     -10.620  11.662  64.532  1.00  0.00    -0.373 A  
HETATM   33  C   UNL     1     -10.269  10.393  65.003  1.00  0.00    -0.334 A  
HETATM   34  C   UNL     1     -11.114  12.612  65.410  1.00  0.00    -0.327 A  
HETATM   35  C   UNL     1     -11.289  12.274  66.748  1.00  0.00    -0.395 A  
HETATM   36  C   UNL     1     -10.920  11.002  67.234  1.00  0.00    -0.356 A  
BRANCH  36  37
HETATM   37  C   UNL     1     -11.237  10.768  68.655  1.00  0.00    -0.274 C  
HETATM   38  N   UNL     1     -10.364  10.624  69.596  1.00  0.00    -0.190 NA 
HETATM   39  O   UNL     1     -11.131  10.442  70.790  1.00  0.00    -0.304 OA 
HETATM   40  C   UNL     1     -12.448  10.511  70.415  1.00  0.00    -0.310 C  
HETATM   41  N   UNL     1     -12.502  10.730  69.093  1.00  0.00    -0.286 NA 
HETATM   42  O   UNL     1     -13.409  10.372  71.158  1.00  0.00    -0.344 OA 
ENDBRANCH  36  37
ENDBRANCH  28  31
ENDBRANCH  24  25
ENDBRANCH   8  24
ENDBRANCH   3   4
ENDBRANCH   2   3
TORSDOF 10
ENDMDL
MODEL      117
REMARK 921   NORMALIZED FREE ENERGY PREDICTED BY IDOCK:   -5.15 KCAL/MOL
REMARK 922        TOTAL FREE ENERGY PREDICTED BY IDOCK:  -11.08 KCAL/MOL
REMARK 923 INTER-LIGAND FREE ENERGY PREDICTED BY IDOCK:   -8.97 KCAL/MOL
REMARK 924 INTRA-LIGAND FREE ENERGY PREDICTED BY IDOCK:   -2.11 KCAL/MOL
REMARK 927      BINDING AFFINITY PREDICTED BY RF-SCORE:    0.00 PKD
ROOT
HETATM    1  C   UNL     1     -10.547   4.573  74.115  1.00  0.00    -0.335 C  
HETATM    2  C   UNL     1     -11.369   5.451  73.188  1.00  0.00    -0.263 C  
ENDROOT
BRANCH   2   3
HETATM    3  O   UNL     1     -10.518   6.424  72.577  1.00  0.00    -0.192 OA 
BRANCH   3   4
HETATM    4  C   UNL     1      -9.894   5.989  71.482  1.00  0.00    -0.168 A  
HETATM    5  N   UNL     1     -10.138   4.855  70.878  1.00  0.00    -0.224 NA 
HETATM    6  C   UNL     1      -9.289   4.832  69.807  1.00  0.00    -0.141 A  
HETATM    7  C   UNL     1      -8.483   5.978  69.749  1.00  0.00    -0.126 A  
HETATM    8  N   UNL     1      -8.935   6.726  70.824  1.00  0.00    -0.150 NA 
HETATM    9  C   UNL     1      -7.503   6.123  68.734  1.00  0.00    -0.087 A  
HETATM   10  C   UNL     1      -7.423   5.106  67.759  1.00  0.00    -0.079 A  
HETATM   11  C   UNL     1      -9.186   3.842  68.818  1.00  0.00    -0.218 A  
HETATM   12  C   UNL     1      -8.259   3.994  67.789  1.00  0.00    -0.093 A  
BRANCH   9  13
HETATM   13  C   UNL     1      -6.628   7.309  68.578  1.00  0.00    -0.045 C  
HETATM   14  O   UNL     1      -5.874   7.711  69.446  1.00  0.00    -0.026 OA 
BRANCH  13  15
HETATM   15  O   UNL     1      -6.848   7.905  67.375  1.00  0.00    -0.066 OA 
BRANCH  15  16
HETATM   16  C   UNL     1      -8.223   7.988  66.965  1.00  0.00    -0.116 C  
BRANCH  16  17
HETATM   17  C   UNL     1      -8.298   8.381  65.532  1.00  0.00    -0.154 C  
HETATM   18  O   UNL     1      -8.251   8.390  63.297  1.00  0.00    -0.166 OA 
HETATM   19  C   UNL     1      -8.054   7.669  64.452  1.00  0.00    -0.084 C  
HETATM   20  O   UNL     1      -8.655   9.676  65.195  1.00  0.00    -0.138 OA 
HETATM   21  C   UNL     1      -7.724   6.247  64.313  1.00  0.00    -0.107 C  
HETATM   22  C   UNL     1      -8.640   9.617  63.805  1.00  0.00    -0.208 C  
HETATM   23  O   UNL     1      -8.932  10.566  63.088  1.00  0.00    -0.187 OA 
ENDBRANCH  16  17
ENDBRANCH  15  16
ENDBRANCH  13  15
ENDBRANCH   9  13
BRANCH   8  24
HETATM   24  C   UNL     1      -8.672   8.122  71.133  1.00  0.00    -0.138 C  
BRANCH  24  25
HETATM   25  C   UNL     1      -9.430   9.132  70.302  1.00  0.00    -0.253 A  
HETATM   26  C   UNL     1     -10.818   9.159  70.173  1.00  0.00    -0.269 A  
HETATM   27  C   UNL     1      -9.315  11.067  68.813  1.00  0.00    -0.185 A  
HETATM   28  C   UNL     1     -10.710  11.099  68.659  1.00  0.00    -0.234 A  
HETATM   29  C   UNL     1      -8.690  10.112  69.626  1.00  0.00    -0.176 A  
HETATM   30  C   UNL     1     -11.440  10.161  69.418  1.00  0.00    -0.202 A  
BRANCH  28  31
HETATM   31  C   UNL     1     -11.391  12.124  67.804  1.00  0.00    -0.371 A  
HETATM   32  C   UNL     1     -11.927  12.865  65.508  1.00  0.00    -0.482 A  
HETATM   33  C   UNL     1     -11.567  11.866  66.419  1.00  0.00    -0.315 A  
HETATM   34  C   UNL     1     -12.198  14.145  65.959  1.00  0.00    -0.464 A  
HETATM   35  C   UNL     1     -12.146  14.410  67.324  1.00  0.00    -0.358 A  
HETATM   36  C   UNL     1     -11.768  13.413  68.247  1.00  0.00    -0.391 A  
BRANCH  36  37
HETATM   37  C   UNL     1     -11.834  13.824  69.662  1.00  0.00    -0.333 C  
HETATM   38  N   UNL     1     -11.066  14.702  70.216  1.00  0.00    -0.154 NA 
HETATM   39  O   UNL     1     -11.510  14.779  71.574  1.00  0.00    -0.302 OA 
HETATM   40  C   UNL     1     -12.556  13.900  71.687  1.00  0.00    -0.298 C  
HETATM   41  N   UNL     1     -12.758  13.326  70.492  1.00  0.00    -0.162 NA 
HETATM   42  O   UNL     1     -13.181  13.664  72.711  1.00  0.00    -0.501 OA 
ENDBRANCH  36  37
ENDBRANCH  28  31
ENDBRANCH  24  25
ENDBRANCH   8  24
ENDBRANCH   3   4
ENDBRANCH   2   3
TORSDOF 10
ENDMDL
MODEL      118
REMARK 921   NORMALIZED FREE ENERGY PREDICTED BY IDOCK:   -5.14 KCAL/MOL
REMARK 922        TOTAL FREE ENERGY PREDICTED BY IDOCK:  -11.07 KCAL/MOL
REMARK 923 INTER-LIGAND FREE ENERGY PREDICTED BY IDOCK:   -8.91 KCAL/MOL
REMARK 924 INTRA-LIGAND FREE ENERGY PREDICTED BY IDOCK:   -2.16 KCAL/MOL
REMARK 927      BINDING AFFINITY PREDICTED BY RF-SCORE:    0.00 PKD
ROOT
HETATM    1  C   UNL     1     -12.322   6.655  71.884  1.00  0.00    -0.364 C  
HETATM    2  C   UNL     1     -11.788   6.932  70.489  1.00  0.00    -0.333 C  
ENDROOT
BRANCH   2   3
HETATM    3  O   UNL     1     -11.118   8.195  70.479  1.00  0.00    -0.254 OA 
BRANCH   3   4
HETATM    4  C   UNL     1      -9.867   8.142  70.022  1.00  0.00    -0.182 A  
HETATM    5  N   UNL     1      -8.866   7.566  70.636  1.00  0.00    -0.145 NA 
HETATM    6  C   UNL     1      -7.793   7.739  69.806  1.00  0.00    -0.106 A  
HETATM    7  C   UNL     1      -8.132   8.455  68.649  1.00  0.00    -0.122 A  
HETATM    8  N   UNL     1      -9.493   8.660  68.802  1.00  0.00    -0.142 NA 
HETATM    9  C   UNL     1      -7.145   8.777  67.683  1.00  0.00    -0.079 A  
HETATM   10  C   UNL     1      -5.838   8.292  67.904  1.00  0.00    -0.042 A  
HETATM   11  C   UNL     1      -6.484   7.268  69.992  1.00  0.00    -0.035 A  
HETATM   12  C   UNL     1      -5.515   7.538  69.028  1.00  0.00    -0.022 A  
BRANCH   9  13
HETATM   13  C   UNL     1      -7.414   9.502  66.419  1.00  0.00    -0.097 C  
HETATM   14  O   UNL     1      -7.049  10.645  66.206  1.00  0.00    -0.124 OA 
BRANCH  13  15
HETATM   15  O   UNL     1      -8.176   8.741  65.588  1.00  0.00    -0.108 OA 
BRANCH  15  16
HETATM   16  C   UNL     1      -7.460   7.774  64.802  1.00  0.00    -0.092 C  
BRANCH  16  17
HETATM   17  C   UNL     1      -8.121   6.446  64.914  1.00  0.00    -0.120 C  
HETATM   18  O   UNL     1      -8.808   4.347  64.567  1.00  0.00    -0.136 OA 
HETATM   19  C   UNL     1      -8.060   5.407  64.109  1.00  0.00    -0.123 C  
HETATM   20  O   UNL     1      -8.958   6.186  65.987  1.00  0.00    -0.155 OA 
HETATM   21  C   UNL     1      -7.252   5.192  62.904  1.00  0.00    -0.043 C  
HETATM   22  C   UNL     1      -9.329   4.868  65.738  1.00  0.00    -0.161 C  
HETATM   23  O   UNL     1     -10.060   4.224  66.480  1.00  0.00    -0.227 OA 
ENDBRANCH  16  17
ENDBRANCH  15  16
ENDBRANCH  13  15
ENDBRANCH   9  13
BRANCH   8  24
HETATM   24  C   UNL     1     -10.459   9.113  67.815  1.00  0.00    -0.247 C  
BRANCH  24  25
HETATM   25  C   UNL     1     -10.600  10.612  67.674  1.00  0.00    -0.288 A  
HETATM   26  C   UNL     1     -11.504  11.238  66.817  1.00  0.00    -0.077 A  
HETATM   27  C   UNL     1      -9.827  12.822  68.375  1.00  0.00    -0.196 A  
HETATM   28  C   UNL     1     -10.720  13.470  67.506  1.00  0.00    -0.266 A  
HETATM   29  C   UNL     1      -9.777  11.424  68.466  1.00  0.00    -0.199 A  
HETATM   30  C   UNL     1     -11.599  12.635  66.787  1.00  0.00    -0.438 A  
BRANCH  28  31
HETATM   31  C   UNL     1     -10.793  14.963  67.411  1.00  0.00    -0.304 A  
HETATM   32  C   UNL     1     -10.183  16.977  66.114  1.00  0.00    -0.346 A  
HETATM   33  C   UNL     1     -10.417  15.600  66.199  1.00  0.00    -0.327 A  
HETATM   34  C   UNL     1     -10.391  17.781  67.222  1.00  0.00    -0.364 A  
HETATM   35  C   UNL     1     -10.868  17.210  68.397  1.00  0.00    -0.309 A  
HETATM   36  C   UNL     1     -11.089  15.821  68.495  1.00  0.00    -0.335 A  
BRANCH  36  37
HETATM   37  C   UNL     1     -11.666  15.376  69.778  1.00  0.00    -0.333 C  
HETATM   38  N   UNL     1     -12.699  14.610  69.901  1.00  0.00    -0.178 NA 
HETATM   39  O   UNL     1     -12.870  14.441  71.311  1.00  0.00    -0.306 OA 
HETATM   40  C   UNL     1     -11.863  15.153  71.909  1.00  0.00    -0.404 C  
HETATM   41  N   UNL     1     -11.113  15.715  70.949  1.00  0.00    -0.347 NA 
HETATM   42  O   UNL     1     -11.692  15.274  73.114  1.00  0.00    -0.431 OA 
ENDBRANCH  36  37
ENDBRANCH  28  31
ENDBRANCH  24  25
ENDBRANCH   8  24
ENDBRANCH   3   4
ENDBRANCH   2   3
TORSDOF 10
ENDMDL
MODEL      119
REMARK 921   NORMALIZED FREE ENERGY PREDICTED BY IDOCK:   -5.14 KCAL/MOL
REMARK 922        TOTAL FREE ENERGY PREDICTED BY IDOCK:  -11.07 KCAL/MOL
REMARK 923 INTER-LIGAND FREE ENERGY PREDICTED BY IDOCK:   -9.06 KCAL/MOL
REMARK 924 INTRA-LIGAND FREE ENERGY PREDICTED BY IDOCK:   -2.01 KCAL/MOL
REMARK 927      BINDING AFFINITY PREDICTED BY RF-SCORE:    0.00 PKD
ROOT
HETATM    1  C   UNL     1     -14.042   9.050  72.177  1.00  0.00    -0.461 C  
HETATM    2  C   UNL     1     -12.736   8.307  71.959  1.00  0.00    -0.342 C  
ENDROOT
BRANCH   2   3
HETATM    3  O   UNL     1     -11.650   9.236  71.984  1.00  0.00    -0.356 OA 
BRANCH   3   4
HETATM    4  C   UNL     1     -10.445   8.666  71.952  1.00  0.00    -0.340 A  
HETATM    5  N   UNL     1      -9.775   8.265  73.001  1.00  0.00    -0.251 NA 
HETATM    6  C   UNL     1      -8.618   7.734  72.502  1.00  0.00    -0.136 A  
HETATM    7  C   UNL     1      -8.560   7.819  71.104  1.00  0.00    -0.131 A  
HETATM    8  N   UNL     1      -9.781   8.387  70.779  1.00  0.00    -0.171 NA 
HETATM    9  C   UNL     1      -7.417   7.362  70.398  1.00  0.00    -0.085 A  
HETATM   10  C   UNL     1      -6.385   6.765  71.153  1.00  0.00    -0.041 A  
HETATM   11  C   UNL     1      -7.574   7.130  73.221  1.00  0.00    -0.092 A  
HETATM   12  C   UNL     1      -6.467   6.636  72.536  1.00  0.00    -0.058 A  
BRANCH   9  13
HETATM   13  C   UNL     1      -7.279   7.385  68.923  1.00  0.00    -0.089 C  
HETATM   14  O   UNL     1      -6.526   8.135  68.327  1.00  0.00    -0.052 OA 
BRANCH  13  15
HETATM   15  O   UNL     1      -8.154   6.514  68.351  1.00  0.00    -0.109 OA 
BRANCH  15  16
HETATM   16  C   UNL     1      -7.698   5.155  68.249  1.00  0.00    -0.083 C  
BRANCH  16  17
HETATM   17  C   UNL     1      -8.472   4.443  67.195  1.00  0.00    -0.104 C  
HETATM   18  O   UNL     1      -9.717   2.973  66.062  1.00  0.00     0.016 OA 
HETATM   19  C   UNL     1      -9.101   3.289  67.251  1.00  0.00    -0.174 C  
HETATM   20  O   UNL     1      -8.581   5.001  65.932  1.00  0.00    -0.118 OA 
HETATM   21  C   UNL     1      -9.321   2.386  68.386  1.00  0.00    -0.262 C  
HETATM   22  C   UNL     1      -9.384   4.068  65.284  1.00  0.00    -0.163 C  
HETATM   23  O   UNL     1      -9.758   4.192  64.124  1.00  0.00    -0.161 OA 
ENDBRANCH  16  17
ENDBRANCH  15  16
ENDBRANCH  13  15
ENDBRANCH   9  13
BRANCH   8  24
HETATM   24  C   UNL     1     -10.417   8.488  69.475  1.00  0.00    -0.220 C  
BRANCH  24  25
HETATM   25  C   UNL     1     -10.391   9.858  68.837  1.00  0.00    -0.221 A  
HETATM   26  C   UNL     1     -11.498  10.701  68.742  1.00  0.00    -0.330 A  
HETATM   27  C   UNL     1      -9.072  11.563  67.685  1.00  0.00    -0.168 A  
HETATM   28  C   UNL     1     -10.180  12.418  67.566  1.00  0.00    -0.214 A  
HETATM   29  C   UNL     1      -9.172  10.317  68.318  1.00  0.00    -0.139 A  
HETATM   30  C   UNL     1     -11.372  11.975  68.175  1.00  0.00    -0.349 A  
BRANCH  28  31
HETATM   31  C   UNL     1     -10.081  13.759  66.906  1.00  0.00    -0.260 A  
HETATM   32  C   UNL     1      -9.889  16.202  67.221  1.00  0.00    -0.241 A  
HETATM   33  C   UNL     1      -9.728  14.891  67.684  1.00  0.00    -0.212 A  
HETATM   34  C   UNL     1     -10.339  16.428  65.932  1.00  0.00    -0.378 A  
HETATM   35  C   UNL     1     -10.590  15.342  65.099  1.00  0.00    -0.453 A  
HETATM   36  C   UNL     1     -10.446  14.018  65.564  1.00  0.00    -0.339 A  
BRANCH  36  37
HETATM   37  C   UNL     1     -10.673  12.977  64.544  1.00  0.00    -0.385 C  
HETATM   38  N   UNL     1     -11.784  12.785  63.914  1.00  0.00    -0.420 NA 
HETATM   39  O   UNL     1     -11.523  11.696  63.024  1.00  0.00    -0.147 OA 
HETATM   40  C   UNL     1     -10.213  11.343  63.222  1.00  0.00    -0.385 C  
HETATM   41  N   UNL     1      -9.691  12.155  64.154  1.00  0.00    -0.127 NA 
HETATM   42  O   UNL     1      -9.628  10.428  62.660  1.00  0.00    -0.310 OA 
ENDBRANCH  36  37
ENDBRANCH  28  31
ENDBRANCH  24  25
ENDBRANCH   8  24
ENDBRANCH   3   4
ENDBRANCH   2   3
TORSDOF 10
ENDMDL
MODEL      120
REMARK 921   NORMALIZED FREE ENERGY PREDICTED BY IDOCK:   -5.14 KCAL/MOL
REMARK 922        TOTAL FREE ENERGY PREDICTED BY IDOCK:  -11.07 KCAL/MOL
REMARK 923 INTER-LIGAND FREE ENERGY PREDICTED BY IDOCK:   -8.68 KCAL/MOL
REMARK 924 INTRA-LIGAND FREE ENERGY PREDICTED BY IDOCK:   -2.39 KCAL/MOL
REMARK 927      BINDING AFFINITY PREDICTED BY RF-SCORE:    0.00 PKD
ROOT
HETATM    1  C   UNL     1     -13.784   9.550  72.629  1.00  0.00    -0.255 C  
HETATM    2  C   UNL     1     -12.789   8.457  72.281  1.00  0.00    -0.317 C  
ENDROOT
BRANCH   2   3
HETATM    3  O   UNL     1     -11.489   9.031  72.125  1.00  0.00    -0.355 OA 
BRANCH   3   4
HETATM    4  C   UNL     1     -10.517   8.135  71.947  1.00  0.00    -0.248 A  
HETATM    5  N   UNL     1      -9.901   7.493  72.905  1.00  0.00    -0.196 NA 
HETATM    6  C   UNL     1      -9.007   6.678  72.270  1.00  0.00    -0.133 A  
HETATM    7  C   UNL     1      -9.058   6.824  70.876  1.00  0.00    -0.153 A  
HETATM    8  N   UNL     1     -10.079   7.744  70.701  1.00  0.00    -0.191 NA 
HETATM    9  C   UNL     1      -8.175   6.096  70.039  1.00  0.00    -0.124 A  
HETATM   10  C   UNL     1      -7.301   5.178  70.660  1.00  0.00    -0.069 A  
HETATM   11  C   UNL     1      -8.128   5.752  72.854  1.00  0.00    -0.115 A  
HETATM   12  C   UNL     1      -7.288   4.996  72.039  1.00  0.00    -0.089 A  
BRANCH   9  13
HETATM   13  C   UNL     1      -8.176   6.165  68.559  1.00  0.00    -0.111 C  
HETATM   14  O   UNL     1      -9.107   5.792  67.866  1.00  0.00    -0.112 OA 
BRANCH  13  15
HETATM   15  O   UNL     1      -6.979   6.626  68.104  1.00  0.00    -0.071 OA 
BRANCH  15  16
HETATM   16  C   UNL     1      -6.596   6.171  66.796  1.00  0.00    -0.059 C  
BRANCH  16  17
HETATM   17  C   UNL     1      -6.829   7.251  65.799  1.00  0.00    -0.056 C  
HETATM   18  O   UNL     1      -7.445   8.420  63.996  1.00  0.00    -0.099 OA 
HETATM   19  C   UNL     1      -7.407   7.193  64.618  1.00  0.00    -0.079 C  
HETATM   20  O   UNL     1      -6.388   8.537  66.067  1.00  0.00    -0.052 OA 
HETATM   21  C   UNL     1      -8.086   6.077  63.952  1.00  0.00    -0.084 C  
HETATM   22  C   UNL     1      -6.821   9.221  64.937  1.00  0.00    -0.086 C  
HETATM   23  O   UNL     1      -6.659  10.424  64.775  1.00  0.00    -0.116 OA 
ENDBRANCH  16  17
ENDBRANCH  15  16
ENDBRANCH  13  15
ENDBRANCH   9  13
BRANCH   8  24
HETATM   24  C   UNL     1     -10.776   8.105  69.477  1.00  0.00    -0.175 C  
BRANCH  24  25
HETATM   25  C   UNL     1     -10.463   9.476  68.923  1.00  0.00    -0.235 A  
HETATM   26  C   UNL     1     -11.405  10.491  68.759  1.00  0.00    -0.310 A  
HETATM   27  C   UNL     1      -8.769  10.987  68.015  1.00  0.00    -0.138 A  
HETATM   28  C   UNL     1      -9.707  12.014  67.828  1.00  0.00    -0.192 A  
HETATM   29  C   UNL     1      -9.136   9.749  68.563  1.00  0.00    -0.128 A  
HETATM   30  C   UNL     1     -11.016  11.748  68.281  1.00  0.00    -0.274 A  
BRANCH  28  31
HETATM   31  C   UNL     1      -9.324  13.345  67.258  1.00  0.00    -0.233 A  
HETATM   32  C   UNL     1      -8.262  15.537  67.676  1.00  0.00    -0.168 A  
HETATM   33  C   UNL     1      -8.443  14.185  67.988  1.00  0.00    -0.171 A  
HETATM   34  C   UNL     1      -8.898  16.082  66.574  1.00  0.00    -0.340 A  
HETATM   35  C   UNL     1      -9.682  15.263  65.767  1.00  0.00    -0.385 A  
HETATM   36  C   UNL     1      -9.883  13.904  66.085  1.00  0.00    -0.316 A  
BRANCH  36  37
HETATM   37  C   UNL     1     -10.674  13.149  65.096  1.00  0.00    -0.315 C  
HETATM   38  N   UNL     1     -10.195  12.581  64.039  1.00  0.00    -0.390 NA 
HETATM   39  O   UNL     1     -11.320  11.964  63.406  1.00  0.00    -0.404 OA 
HETATM   40  C   UNL     1     -12.404  12.235  64.200  1.00  0.00    -0.451 C  
HETATM   41  N   UNL     1     -11.990  12.956  65.252  1.00  0.00    -0.391 NA 
HETATM   42  O   UNL     1     -13.557  11.896  63.972  1.00  0.00    -0.492 OA 
ENDBRANCH  36  37
ENDBRANCH  28  31
ENDBRANCH  24  25
ENDBRANCH   8  24
ENDBRANCH   3   4
ENDBRANCH   2   3
TORSDOF 10
ENDMDL
MODEL      121
REMARK 921   NORMALIZED FREE ENERGY PREDICTED BY IDOCK:   -5.14 KCAL/MOL
REMARK 922        TOTAL FREE ENERGY PREDICTED BY IDOCK:  -11.06 KCAL/MOL
REMARK 923 INTER-LIGAND FREE ENERGY PREDICTED BY IDOCK:   -8.35 KCAL/MOL
REMARK 924 INTRA-LIGAND FREE ENERGY PREDICTED BY IDOCK:   -2.71 KCAL/MOL
REMARK 927      BINDING AFFINITY PREDICTED BY RF-SCORE:    0.00 PKD
ROOT
HETATM    1  C   UNL     1     -12.954  11.807  63.334  1.00  0.00    -0.177 C  
HETATM    2  C   UNL     1     -12.890  12.541  64.662  1.00  0.00    -0.236 C  
ENDROOT
BRANCH   2   3
HETATM    3  O   UNL     1     -12.048  13.689  64.530  1.00  0.00    -0.391 OA 
BRANCH   3   4
HETATM    4  C   UNL     1     -11.542  14.127  65.683  1.00  0.00    -0.339 A  
HETATM    5  N   UNL     1     -12.199  14.816  66.579  1.00  0.00    -0.135 NA 
HETATM    6  C   UNL     1     -11.304  15.029  67.590  1.00  0.00    -0.334 A  
HETATM    7  C   UNL     1     -10.050  14.468  67.310  1.00  0.00    -0.247 A  
HETATM    8  N   UNL     1     -10.254  13.853  66.086  1.00  0.00    -0.293 NA 
HETATM    9  C   UNL     1      -8.970  14.621  68.218  1.00  0.00    -0.184 A  
HETATM   10  C   UNL     1      -9.232  15.294  69.430  1.00  0.00    -0.233 A  
HETATM   11  C   UNL     1     -11.530  15.690  68.808  1.00  0.00    -0.382 A  
HETATM   12  C   UNL     1     -10.492  15.806  69.728  1.00  0.00    -0.318 A  
BRANCH   9  13
HETATM   13  C   UNL     1      -7.622  14.040  68.021  1.00  0.00    -0.143 C  
HETATM   14  O   UNL     1      -7.238  13.023  68.571  1.00  0.00    -0.094 OA 
BRANCH  13  15
HETATM   15  O   UNL     1      -6.875  14.838  67.212  1.00  0.00    -0.255 OA 
BRANCH  15  16
HETATM   16  C   UNL     1      -5.623  15.282  67.762  1.00  0.00    -0.096 C  
BRANCH  16  17
HETATM   17  C   UNL     1      -5.851  16.458  68.645  1.00  0.00    -0.113 C  
HETATM   18  O   UNL     1      -5.997  17.837  70.399  1.00  0.00    -0.153 OA 
HETATM   19  C   UNL     1      -5.695  16.573  69.947  1.00  0.00    -0.201 C  
HETATM   20  O   UNL     1      -6.312  17.645  68.100  1.00  0.00    -0.166 OA 
HETATM   21  C   UNL     1      -5.161  15.616  70.922  1.00  0.00    -0.169 C  
HETATM   22  C   UNL     1      -6.354  18.468  69.220  1.00  0.00    -0.259 C  
HETATM   23  O   UNL     1      -6.688  19.646  69.178  1.00  0.00    -0.319 OA 
ENDBRANCH  16  17
ENDBRANCH  15  16
ENDBRANCH  13  15
ENDBRANCH   9  13
BRANCH   8  24
HETATM   24  C   UNL     1      -9.407  12.890  65.402  1.00  0.00     0.350 C  
BRANCH  24  25
HETATM   25  C   UNL     1      -9.483  11.469  65.914  1.00  0.00    -0.251 A  
HETATM   26  C   UNL     1     -10.648  10.866  66.385  1.00  0.00    -0.289 A  
HETATM   27  C   UNL     1      -8.288   9.390  66.388  1.00  0.00    -0.116 A  
HETATM   28  C   UNL     1      -9.448   8.772  66.880  1.00  0.00    -0.231 A  
HETATM   29  C   UNL     1      -8.307  10.705  65.904  1.00  0.00    -0.161 A  
HETATM   30  C   UNL     1     -10.635   9.527  66.798  1.00  0.00    -0.208 A  
BRANCH  28  31
HETATM   31  C   UNL     1      -9.442   7.362  67.387  1.00  0.00    -0.170 A  
HETATM   32  C   UNL     1      -9.930   4.991  66.887  1.00  0.00    -0.238 A  
HETATM   33  C   UNL     1      -9.639   6.295  66.472  1.00  0.00    -0.183 A  
HETATM   34  C   UNL     1      -9.961   4.689  68.238  1.00  0.00    -0.130 A  
HETATM   35  C   UNL     1      -9.663   5.683  69.164  1.00  0.00    -0.193 A  
HETATM   36  C   UNL     1      -9.386   7.003  68.753  1.00  0.00    -0.134 A  
BRANCH  36  37
HETATM   37  C   UNL     1      -9.014   7.924  69.844  1.00  0.00    -0.146 C  
HETATM   38  N   UNL     1      -9.803   8.311  70.791  1.00  0.00    -0.177 NA 
HETATM   39  O   UNL     1      -9.006   9.170  71.611  1.00  0.00    -0.336 OA 
HETATM   40  C   UNL     1      -7.759   9.197  71.042  1.00  0.00    -0.100 C  
HETATM   41  N   UNL     1      -7.771   8.408  69.957  1.00  0.00    -0.087 NA 
HETATM   42  O   UNL     1      -6.806   9.849  71.444  1.00  0.00    -0.310 OA 
ENDBRANCH  36  37
ENDBRANCH  28  31
ENDBRANCH  24  25
ENDBRANCH   8  24
ENDBRANCH   3   4
ENDBRANCH   2   3
TORSDOF 10
ENDMDL
MODEL      122
REMARK 921   NORMALIZED FREE ENERGY PREDICTED BY IDOCK:   -5.13 KCAL/MOL
REMARK 922        TOTAL FREE ENERGY PREDICTED BY IDOCK:  -11.06 KCAL/MOL
REMARK 923 INTER-LIGAND FREE ENERGY PREDICTED BY IDOCK:   -8.68 KCAL/MOL
REMARK 924 INTRA-LIGAND FREE ENERGY PREDICTED BY IDOCK:   -2.37 KCAL/MOL
REMARK 927      BINDING AFFINITY PREDICTED BY RF-SCORE:    0.00 PKD
ROOT
HETATM    1  C   UNL     1     -12.541   8.996  72.006  1.00  0.00    -0.464 C  
HETATM    2  C   UNL     1     -12.687   7.665  71.290  1.00  0.00    -0.275 C  
ENDROOT
BRANCH   2   3
HETATM    3  O   UNL     1     -11.890   6.680  71.952  1.00  0.00    -0.303 OA 
BRANCH   3   4
HETATM    4  C   UNL     1     -10.673   7.104  72.292  1.00  0.00    -0.221 A  
HETATM    5  N   UNL     1     -10.287   7.387  73.509  1.00  0.00    -0.360 NA 
HETATM    6  C   UNL     1      -8.978   7.761  73.390  1.00  0.00    -0.256 A  
HETATM    7  C   UNL     1      -8.538   7.722  72.059  1.00  0.00    -0.116 A  
HETATM    8  N   UNL     1      -9.650   7.249  71.382  1.00  0.00    -0.161 NA 
HETATM    9  C   UNL     1      -7.218   8.117  71.721  1.00  0.00    -0.089 A  
HETATM   10  C   UNL     1      -6.359   8.482  72.780  1.00  0.00    -0.095 A  
HETATM   11  C   UNL     1      -8.095   8.124  74.419  1.00  0.00    -0.291 A  
HETATM   12  C   UNL     1      -6.783   8.470  74.106  1.00  0.00    -0.147 A  
BRANCH   9  13
HETATM   13  C   UNL     1      -6.658   8.082  70.350  1.00  0.00    -0.037 C  
HETATM   14  O   UNL     1      -6.121   7.102  69.866  1.00  0.00    -0.026 OA 
BRANCH  13  15
HETATM   15  O   UNL     1      -6.768   9.303  69.761  1.00  0.00    -0.047 OA 
BRANCH  15  16
HETATM   16  C   UNL     1      -5.548  10.057  69.665  1.00  0.00    -0.037 C  
BRANCH  16  17
HETATM   17  C   UNL     1      -5.794  11.466  70.076  1.00  0.00    -0.126 C  
HETATM   18  O   UNL     1      -6.453  13.601  70.160  1.00  0.00    -0.078 OA 
HETATM   19  C   UNL     1      -6.421  12.430  69.437  1.00  0.00    -0.103 C  
HETATM   20  O   UNL     1      -5.309  11.919  71.293  1.00  0.00    -0.286 OA 
HETATM   21  C   UNL     1      -7.155  12.400  68.168  1.00  0.00    -0.097 C  
HETATM   22  C   UNL     1      -5.770  13.231  71.305  1.00  0.00    -0.055 C  
HETATM   23  O   UNL     1      -5.584  14.001  72.240  1.00  0.00    -0.294 OA 
ENDBRANCH  16  17
ENDBRANCH  15  16
ENDBRANCH  13  15
ENDBRANCH   9  13
BRANCH   8  24
HETATM   24  C   UNL     1      -9.738   6.750  70.019  1.00  0.00    -0.163 C  
BRANCH  24  25
HETATM   25  C   UNL     1      -9.985   7.793  68.953  1.00  0.00    -0.185 A  
HETATM   26  C   UNL     1     -10.191   7.504  67.604  1.00  0.00    -0.275 A  
HETATM   27  C   UNL     1     -10.215  10.166  68.416  1.00  0.00    -0.192 A  
HETATM   28  C   UNL     1     -10.409   9.895  67.053  1.00  0.00    -0.303 A  
HETATM   29  C   UNL     1     -10.020   9.138  69.348  1.00  0.00    -0.192 A  
HETATM   30  C   UNL     1     -10.459   8.533  66.693  1.00  0.00    -0.235 A  
BRANCH  28  31
HETATM   31  C   UNL     1     -10.634  10.986  66.050  1.00  0.00    -0.275 A  
HETATM   32  C   UNL     1     -12.076  12.858  65.330  1.00  0.00    -0.501 A  
HETATM   33  C   UNL     1     -11.606  11.984  66.317  1.00  0.00    -0.378 A  
HETATM   34  C   UNL     1     -11.536  12.817  64.057  1.00  0.00    -0.476 A  
HETATM   35  C   UNL     1     -10.501  11.927  63.786  1.00  0.00    -0.468 A  
HETATM   36  C   UNL     1     -10.034  11.031  64.770  1.00  0.00    -0.350 A  
BRANCH  36  37
HETATM   37  C   UNL     1      -8.884  10.205  64.357  1.00  0.00    -0.211 C  
HETATM   38  N   UNL     1      -8.927   9.257  63.480  1.00  0.00    -0.129 NA 
HETATM   39  O   UNL     1      -7.587   8.764  63.399  1.00  0.00    -0.104 OA 
HETATM   40  C   UNL     1      -6.847   9.516  64.274  1.00  0.00    -0.101 C  
HETATM   41  N   UNL     1      -7.657  10.417  64.850  1.00  0.00    -0.116 NA 
HETATM   42  O   UNL     1      -5.655   9.372  64.507  1.00  0.00    -0.064 OA 
ENDBRANCH  36  37
ENDBRANCH  28  31
ENDBRANCH  24  25
ENDBRANCH   8  24
ENDBRANCH   3   4
ENDBRANCH   2   3
TORSDOF 10
ENDMDL
MODEL      123
REMARK 921   NORMALIZED FREE ENERGY PREDICTED BY IDOCK:   -5.13 KCAL/MOL
REMARK 922        TOTAL FREE ENERGY PREDICTED BY IDOCK:  -11.05 KCAL/MOL
REMARK 923 INTER-LIGAND FREE ENERGY PREDICTED BY IDOCK:   -8.06 KCAL/MOL
REMARK 924 INTRA-LIGAND FREE ENERGY PREDICTED BY IDOCK:   -2.99 KCAL/MOL
REMARK 927      BINDING AFFINITY PREDICTED BY RF-SCORE:    0.00 PKD
ROOT
HETATM    1  C   UNL     1      -7.649  11.339  68.074  1.00  0.00    -0.105 C  
HETATM    2  C   UNL     1      -8.547  11.801  66.940  1.00  0.00    -0.177 C  
ENDROOT
BRANCH   2   3
HETATM    3  O   UNL     1      -9.811  11.139  67.035  1.00  0.00    -0.181 OA 
BRANCH   3   4
HETATM    4  C   UNL     1     -10.538  11.506  68.091  1.00  0.00    -0.196 A  
HETATM    5  N   UNL     1     -10.724  12.739  68.485  1.00  0.00    -0.248 NA 
HETATM    6  C   UNL     1     -11.537  12.645  69.579  1.00  0.00    -0.281 A  
HETATM    7  C   UNL     1     -11.857  11.315  69.885  1.00  0.00    -0.360 A  
HETATM    8  N   UNL     1     -11.229  10.607  68.873  1.00  0.00    -0.256 NA 
HETATM    9  C   UNL     1     -12.655  11.004  71.016  1.00  0.00    -0.512 A  
HETATM   10  C   UNL     1     -13.162  12.085  71.769  1.00  0.00    -0.421 A  
HETATM   11  C   UNL     1     -12.062  13.696  70.348  1.00  0.00    -0.421 A  
HETATM   12  C   UNL     1     -12.886  13.407  71.433  1.00  0.00    -0.420 A  
BRANCH   9  13
HETATM   13  C   UNL     1     -13.067   9.633  71.399  1.00  0.00    -0.385 C  
HETATM   14  O   UNL     1     -14.004   9.043  70.891  1.00  0.00    -0.075 OA 
BRANCH  13  15
HETATM   15  O   UNL     1     -12.305   9.179  72.430  1.00  0.00    -0.329 OA 
BRANCH  15  16
HETATM   16  C   UNL     1     -11.992   7.777  72.399  1.00  0.00    -0.289 C  
BRANCH  16  17
HETATM   17  C   UNL     1     -10.714   7.531  73.122  1.00  0.00    -0.398 C  
HETATM   18  O   UNL     1      -9.040   6.608  74.281  1.00  0.00    -0.163 OA 
HETATM   19  C   UNL     1     -10.295   6.447  73.741  1.00  0.00    -0.311 C  
HETATM   20  O   UNL     1      -9.777   8.546  73.221  1.00  0.00    -0.064 OA 
HETATM   21  C   UNL     1     -10.906   5.117  73.834  1.00  0.00    -0.307 C  
HETATM   22  C   UNL     1      -8.754   7.912  73.918  1.00  0.00    -0.272 C  
HETATM   23  O   UNL     1      -7.693   8.458  74.200  1.00  0.00    -0.263 OA 
ENDBRANCH  16  17
ENDBRANCH  15  16
ENDBRANCH  13  15
ENDBRANCH   9  13
BRANCH   8  24
HETATM   24  C   UNL     1     -11.405   9.214  68.496  1.00  0.00     0.496 C  
BRANCH  24  25
HETATM   25  C   UNL     1     -10.429   8.239  69.113  1.00  0.00    -0.217 A  
HETATM   26  C   UNL     1      -9.180   8.594  69.623  1.00  0.00    -0.157 A  
HETATM   27  C   UNL     1      -9.949   5.921  69.722  1.00  0.00    -0.236 A  
HETATM   28  C   UNL     1      -8.683   6.258  70.225  1.00  0.00    -0.142 A  
HETATM   29  C   UNL     1     -10.809   6.892  69.190  1.00  0.00    -0.262 A  
HETATM   30  C   UNL     1      -8.359   7.630  70.220  1.00  0.00    -0.132 A  
BRANCH  28  31
HETATM   31  C   UNL     1      -7.761   5.231  70.810  1.00  0.00    -0.088 A  
HETATM   32  C   UNL     1      -5.947   4.772  72.424  1.00  0.00    -0.020 A  
HETATM   33  C   UNL     1      -7.025   5.548  71.981  1.00  0.00    -0.080 A  
HETATM   34  C   UNL     1      -5.614   3.608  71.754  1.00  0.00    -0.008 A  
HETATM   35  C   UNL     1      -6.383   3.205  70.667  1.00  0.00    -0.023 A  
HETATM   36  C   UNL     1      -7.460   3.990  70.205  1.00  0.00    -0.045 A  
BRANCH  36  37
HETATM   37  C   UNL     1      -8.226   3.394  69.094  1.00  0.00    -0.059 C  
HETATM   38  N   UNL     1      -9.226   2.587  69.231  1.00  0.00    -0.125 NA 
HETATM   39  O   UNL     1      -9.652   2.294  67.897  1.00  0.00    -0.181 OA 
HETATM   40  C   UNL     1      -8.824   3.002  67.065  1.00  0.00    -0.142 C  
HETATM   41  N   UNL     1      -7.955   3.692  67.818  1.00  0.00    -0.080 NA 
HETATM   42  O   UNL     1      -8.859   2.985  65.843  1.00  0.00    -0.129 OA 
ENDBRANCH  36  37
ENDBRANCH  28  31
ENDBRANCH  24  25
ENDBRANCH   8  24
ENDBRANCH   3   4
ENDBRANCH   2   3
TORSDOF 10
ENDMDL
MODEL      124
REMARK 921   NORMALIZED FREE ENERGY PREDICTED BY IDOCK:   -5.11 KCAL/MOL
REMARK 922        TOTAL FREE ENERGY PREDICTED BY IDOCK:  -11.02 KCAL/MOL
REMARK 923 INTER-LIGAND FREE ENERGY PREDICTED BY IDOCK:   -9.09 KCAL/MOL
REMARK 924 INTRA-LIGAND FREE ENERGY PREDICTED BY IDOCK:   -1.94 KCAL/MOL
REMARK 927      BINDING AFFINITY PREDICTED BY RF-SCORE:    0.00 PKD
ROOT
HETATM    1  C   UNL     1      -5.450   8.663  72.280  1.00  0.00    -0.052 C  
HETATM    2  C   UNL     1      -5.870   9.197  70.922  1.00  0.00    -0.046 C  
ENDROOT
BRANCH   2   3
HETATM    3  O   UNL     1      -7.125   9.870  71.043  1.00  0.00    -0.339 OA 
BRANCH   3   4
HETATM    4  C   UNL     1      -8.180   9.055  71.049  1.00  0.00    -0.176 A  
HETATM    5  N   UNL     1      -8.817   8.657  72.120  1.00  0.00    -0.341 NA 
HETATM    6  C   UNL     1      -9.826   7.859  71.658  1.00  0.00    -0.167 A  
HETATM    7  C   UNL     1      -9.809   7.745  70.261  1.00  0.00    -0.184 A  
HETATM    8  N   UNL     1      -8.757   8.569  69.897  1.00  0.00    -0.130 NA 
HETATM    9  C   UNL     1     -10.751   6.922  69.591  1.00  0.00    -0.276 A  
HETATM   10  C   UNL     1     -11.734   6.286  70.379  1.00  0.00    -0.290 A  
HETATM   11  C   UNL     1     -10.821   7.215  72.411  1.00  0.00    -0.280 A  
HETATM   12  C   UNL     1     -11.779   6.441  71.761  1.00  0.00    -0.376 A  
BRANCH   9  13
HETATM   13  C   UNL     1     -10.828   6.763  68.120  1.00  0.00    -0.228 C  
HETATM   14  O   UNL     1     -10.955   7.696  67.346  1.00  0.00    -0.207 OA 
BRANCH  13  15
HETATM   15  O   UNL     1     -10.809   5.445  67.782  1.00  0.00    -0.115 OA 
BRANCH  15  16
HETATM   16  C   UNL     1     -10.338   5.151  66.457  1.00  0.00    -0.291 C  
BRANCH  16  17
HETATM   17  C   UNL     1      -8.943   4.636  66.521  1.00  0.00    -0.113 C  
HETATM   18  O   UNL     1      -7.120   3.402  66.907  1.00  0.00    -0.057 OA 
HETATM   19  C   UNL     1      -8.480   3.534  67.071  1.00  0.00    -0.105 C  
HETATM   20  O   UNL     1      -7.915   5.374  65.959  1.00  0.00    -0.102 OA 
HETATM   21  C   UNL     1      -9.194   2.422  67.706  1.00  0.00    -0.235 C  
HETATM   22  C   UNL     1      -6.819   4.552  66.199  1.00  0.00    -0.058 C  
HETATM   23  O   UNL     1      -5.682   4.821  65.829  1.00  0.00    -0.017 OA 
ENDBRANCH  16  17
ENDBRANCH  15  16
ENDBRANCH  13  15
ENDBRANCH   9  13
BRANCH   8  24
HETATM   24  C   UNL     1      -8.409   9.068  68.577  1.00  0.00    -0.124 C  
BRANCH  24  25
HETATM   25  C   UNL     1      -8.938  10.442  68.234  1.00  0.00    -0.135 A  
HETATM   26  C   UNL     1     -10.256  10.706  67.861  1.00  0.00    -0.206 A  
HETATM   27  C   UNL     1      -8.454  12.824  67.979  1.00  0.00    -0.177 A  
HETATM   28  C   UNL     1      -9.772  13.106  67.586  1.00  0.00    -0.213 A  
HETATM   29  C   UNL     1      -8.049  11.524  68.308  1.00  0.00    -0.148 A  
HETATM   30  C   UNL     1     -10.670  12.019  67.606  1.00  0.00    -0.252 A  
BRANCH  28  31
HETATM   31  C   UNL     1     -10.220  14.495  67.247  1.00  0.00    -0.255 A  
HETATM   32  C   UNL     1     -10.116  16.354  65.623  1.00  0.00    -0.314 A  
HETATM   33  C   UNL     1      -9.993  14.997  65.939  1.00  0.00    -0.353 A  
HETATM   34  C   UNL     1     -10.546  17.251  66.586  1.00  0.00    -0.179 A  
HETATM   35  C   UNL     1     -10.886  16.779  67.850  1.00  0.00    -0.311 A  
HETATM   36  C   UNL     1     -10.749  15.415  68.181  1.00  0.00    -0.271 A  
BRANCH  36  37
HETATM   37  C   UNL     1     -11.222  15.057  69.531  1.00  0.00    -0.276 C  
HETATM   38  N   UNL     1     -10.670  15.435  70.636  1.00  0.00    -0.286 NA 
HETATM   39  O   UNL     1     -11.479  14.865  71.669  1.00  0.00    -0.344 OA 
HETATM   40  C   UNL     1     -12.485  14.182  71.037  1.00  0.00    -0.367 C  
HETATM   41  N   UNL     1     -12.326  14.322  69.713  1.00  0.00    -0.325 NA 
HETATM   42  O   UNL     1     -13.364  13.536  71.590  1.00  0.00    -0.363 OA 
ENDBRANCH  36  37
ENDBRANCH  28  31
ENDBRANCH  24  25
ENDBRANCH   8  24
ENDBRANCH   3   4
ENDBRANCH   2   3
TORSDOF 10
ENDMDL
MODEL      125
REMARK 921   NORMALIZED FREE ENERGY PREDICTED BY IDOCK:   -5.09 KCAL/MOL
REMARK 922        TOTAL FREE ENERGY PREDICTED BY IDOCK:  -10.99 KCAL/MOL
REMARK 923 INTER-LIGAND FREE ENERGY PREDICTED BY IDOCK:   -9.04 KCAL/MOL
REMARK 924 INTRA-LIGAND FREE ENERGY PREDICTED BY IDOCK:   -1.95 KCAL/MOL
REMARK 927      BINDING AFFINITY PREDICTED BY RF-SCORE:    0.00 PKD
ROOT
HETATM    1  C   UNL     1     -11.442   7.911  72.900  1.00  0.00    -0.357 C  
HETATM    2  C   UNL     1     -10.458   8.652  72.013  1.00  0.00    -0.352 C  
ENDROOT
BRANCH   2   3
HETATM    3  O   UNL     1     -10.989   8.744  70.688  1.00  0.00    -0.225 OA 
BRANCH   3   4
HETATM    4  C   UNL     1     -11.085   9.992  70.227  1.00  0.00    -0.318 A  
HETATM    5  N   UNL     1     -12.076  10.810  70.471  1.00  0.00    -0.334 NA 
HETATM    6  C   UNL     1     -11.750  11.967  69.821  1.00  0.00    -0.331 A  
HETATM    7  C   UNL     1     -10.529  11.863  69.141  1.00  0.00     0.002 A  
HETATM    8  N   UNL     1     -10.105  10.585  69.463  1.00  0.00    -0.210 NA 
HETATM    9  C   UNL     1     -10.037  12.945  68.366  1.00  0.00    -0.227 A  
HETATM   10  C   UNL     1     -10.791  14.139  68.367  1.00  0.00    -0.266 A  
HETATM   11  C   UNL     1     -12.472  13.171  69.803  1.00  0.00    -0.039 A  
HETATM   12  C   UNL     1     -11.977  14.257  69.085  1.00  0.00    -0.372 A  
BRANCH   9  13
HETATM   13  C   UNL     1      -8.746  12.937  67.639  1.00  0.00    -0.185 C  
HETATM   14  O   UNL     1      -7.674  12.709  68.170  1.00  0.00    -0.122 OA 
BRANCH  13  15
HETATM   15  O   UNL     1      -8.932  13.288  66.338  1.00  0.00    -0.125 OA 
BRANCH  15  16
HETATM   16  C   UNL     1      -9.784  12.416  65.576  1.00  0.00    -0.136 C  
BRANCH  16  17
HETATM   17  C   UNL     1     -10.765  13.223  64.801  1.00  0.00    -0.378 C  
HETATM   18  O   UNL     1     -12.422  13.883  63.454  1.00  0.00    -0.833 OA 
HETATM   19  C   UNL     1     -11.701  12.828  63.964  1.00  0.00    -0.426 C  
HETATM   20  O   UNL     1     -10.750  14.604  64.904  1.00  0.00    -0.402 OA 
HETATM   21  C   UNL     1     -12.137  11.475  63.603  1.00  0.00    -0.174 C  
HETATM   22  C   UNL     1     -11.811  14.957  64.077  1.00  0.00    -0.034 C  
HETATM   23  O   UNL     1     -12.172  16.114  63.902  1.00  0.00    -0.935 OA 
ENDBRANCH  16  17
ENDBRANCH  15  16
ENDBRANCH  13  15
ENDBRANCH   9  13
BRANCH   8  24
HETATM   24  C   UNL     1      -8.792   9.989  69.274  1.00  0.00    -0.178 C  
BRANCH  24  25
HETATM   25  C   UNL     1      -8.663   9.044  68.101  1.00  0.00    -0.130 A  
HETATM   26  C   UNL     1      -9.724   8.662  67.281  1.00  0.00    -0.241 A  
HETATM   27  C   UNL     1      -7.196   7.622  66.760  1.00  0.00    -0.088 A  
HETATM   28  C   UNL     1      -8.254   7.214  65.934  1.00  0.00    -0.132 A  
HETATM   29  C   UNL     1      -7.393   8.526  67.813  1.00  0.00    -0.093 A  
HETATM   30  C   UNL     1      -9.504   7.816  66.186  1.00  0.00    -0.135 A  
BRANCH  28  31
HETATM   31  C   UNL     1      -8.053   6.260  64.797  1.00  0.00    -0.127 A  
HETATM   32  C   UNL     1      -7.895   5.978  62.347  1.00  0.00    -0.089 A  
HETATM   33  C   UNL     1      -7.811   6.772  63.496  1.00  0.00    -0.110 A  
HETATM   34  C   UNL     1      -8.151   4.623  62.462  1.00  0.00    -0.073 A  
HETATM   35  C   UNL     1      -8.283   4.062  63.729  1.00  0.00    -0.092 A  
HETATM   36  C   UNL     1      -8.216   4.859  64.890  1.00  0.00    -0.124 A  
BRANCH  36  37
HETATM   37  C   UNL     1      -8.297   4.110  66.158  1.00  0.00    -0.109 C  
HETATM   38  N   UNL     1      -7.400   4.124  67.088  1.00  0.00    -0.068 NA 
HETATM   39  O   UNL     1      -7.918   3.276  68.117  1.00  0.00    -0.069 OA 
HETATM   40  C   UNL     1      -9.136   2.831  67.672  1.00  0.00    -0.181 C  
HETATM   41  N   UNL     1      -9.368   3.368  66.465  1.00  0.00    -0.174 NA 
HETATM   42  O   UNL     1      -9.873   2.058  68.267  1.00  0.00    -0.051 OA 
ENDBRANCH  36  37
ENDBRANCH  28  31
ENDBRANCH  24  25
ENDBRANCH   8  24
ENDBRANCH   3   4
ENDBRANCH   2   3
TORSDOF 10
ENDMDL
MODEL      126
REMARK 921   NORMALIZED FREE ENERGY PREDICTED BY IDOCK:   -5.08 KCAL/MOL
REMARK 922        TOTAL FREE ENERGY PREDICTED BY IDOCK:  -10.98 KCAL/MOL
REMARK 923 INTER-LIGAND FREE ENERGY PREDICTED BY IDOCK:   -9.05 KCAL/MOL
REMARK 924 INTRA-LIGAND FREE ENERGY PREDICTED BY IDOCK:   -1.93 KCAL/MOL
REMARK 927      BINDING AFFINITY PREDICTED BY RF-SCORE:    0.00 PKD
ROOT
HETATM    1  C   UNL     1     -14.066   9.076  72.211  1.00  0.00    -0.485 C  
HETATM    2  C   UNL     1     -12.806   8.244  72.045  1.00  0.00    -0.340 C  
ENDROOT
BRANCH   2   3
HETATM    3  O   UNL     1     -11.661   9.096  72.122  1.00  0.00    -0.342 OA 
BRANCH   3   4
HETATM    4  C   UNL     1     -10.497   8.444  72.109  1.00  0.00    -0.326 A  
HETATM    5  N   UNL     1      -9.900   7.950  73.163  1.00  0.00    -0.288 NA 
HETATM    6  C   UNL     1      -8.763   7.363  72.685  1.00  0.00    -0.124 A  
HETATM    7  C   UNL     1      -8.640   7.506  71.295  1.00  0.00    -0.121 A  
HETATM    8  N   UNL     1      -9.805   8.172  70.951  1.00  0.00    -0.175 NA 
HETATM    9  C   UNL     1      -7.503   7.002  70.614  1.00  0.00    -0.085 A  
HETATM   10  C   UNL     1      -6.546   6.301  71.378  1.00  0.00    -0.054 A  
HETATM   11  C   UNL     1      -7.794   6.656  73.414  1.00  0.00    -0.091 A  
HETATM   12  C   UNL     1      -6.695   6.116  72.749  1.00  0.00    -0.070 A  
BRANCH   9  13
HETATM   13  C   UNL     1      -7.301   7.081  69.148  1.00  0.00    -0.092 C  
HETATM   14  O   UNL     1      -6.369   7.666  68.625  1.00  0.00    -0.034 OA 
BRANCH  13  15
HETATM   15  O   UNL     1      -8.331   6.479  68.494  1.00  0.00    -0.120 OA 
BRANCH  15  16
HETATM   16  C   UNL     1      -8.070   5.149  68.017  1.00  0.00    -0.098 C  
BRANCH  16  17
HETATM   17  C   UNL     1      -8.196   4.178  69.139  1.00  0.00    -0.069 C  
HETATM   18  O   UNL     1      -7.790   2.648  70.716  1.00  0.00    -0.042 OA 
HETATM   19  C   UNL     1      -7.284   3.399  69.681  1.00  0.00    -0.041 C  
HETATM   20  O   UNL     1      -9.425   3.994  69.749  1.00  0.00    -0.162 OA 
HETATM   21  C   UNL     1      -5.844   3.306  69.419  1.00  0.00    -0.023 C  
HETATM   22  C   UNL     1      -9.110   3.063  70.734  1.00  0.00    -0.116 C  
HETATM   23  O   UNL     1      -9.926   2.635  71.541  1.00  0.00    -0.157 OA 
ENDBRANCH  16  17
ENDBRANCH  15  16
ENDBRANCH  13  15
ENDBRANCH   9  13
BRANCH   8  24
HETATM   24  C   UNL     1     -10.377   8.376  69.630  1.00  0.00    -0.218 C  
BRANCH  24  25
HETATM   25  C   UNL     1     -10.318   9.790  69.100  1.00  0.00    -0.225 A  
HETATM   26  C   UNL     1     -11.431  10.616  68.941  1.00  0.00    -0.334 A  
HETATM   27  C   UNL     1      -8.926  11.603  68.234  1.00  0.00    -0.185 A  
HETATM   28  C   UNL     1     -10.037  12.442  68.052  1.00  0.00    -0.214 A  
HETATM   29  C   UNL     1      -9.062  10.311  68.759  1.00  0.00    -0.159 A  
HETATM   30  C   UNL     1     -11.277  11.932  68.486  1.00  0.00    -0.308 A  
BRANCH  28  31
HETATM   31  C   UNL     1      -9.902  13.831  67.506  1.00  0.00    -0.230 A  
HETATM   32  C   UNL     1      -9.367  16.194  67.994  1.00  0.00    -0.203 A  
HETATM   33  C   UNL     1      -9.281  14.831  68.299  1.00  0.00    -0.187 A  
HETATM   34  C   UNL     1     -10.015  16.603  66.841  1.00  0.00    -0.272 A  
HETATM   35  C   UNL     1     -10.540  15.645  65.980  1.00  0.00    -0.336 A  
HETATM   36  C   UNL     1     -10.472  14.271  66.289  1.00  0.00    -0.291 A  
BRANCH  36  37
HETATM   37  C   UNL     1     -11.003  13.376  65.244  1.00  0.00    -0.295 C  
HETATM   38  N   UNL     1     -10.284  12.664  64.441  1.00  0.00    -0.337 NA 
HETATM   39  O   UNL     1     -11.225  11.955  63.629  1.00  0.00    -0.387 OA 
HETATM   40  C   UNL     1     -12.469  12.332  64.065  1.00  0.00    -0.458 C  
HETATM   41  N   UNL     1     -12.319  13.200  65.077  1.00  0.00    -0.437 NA 
HETATM   42  O   UNL     1     -13.533  11.956  63.594  1.00  0.00    -0.517 OA 
ENDBRANCH  36  37
ENDBRANCH  28  31
ENDBRANCH  24  25
ENDBRANCH   8  24
ENDBRANCH   3   4
ENDBRANCH   2   3
TORSDOF 10
ENDMDL
MODEL      127
REMARK 921   NORMALIZED FREE ENERGY PREDICTED BY IDOCK:   -5.08 KCAL/MOL
REMARK 922        TOTAL FREE ENERGY PREDICTED BY IDOCK:  -10.97 KCAL/MOL
REMARK 923 INTER-LIGAND FREE ENERGY PREDICTED BY IDOCK:   -9.32 KCAL/MOL
REMARK 924 INTRA-LIGAND FREE ENERGY PREDICTED BY IDOCK:   -1.64 KCAL/MOL
REMARK 927      BINDING AFFINITY PREDICTED BY RF-SCORE:    0.00 PKD
ROOT
HETATM    1  C   UNL     1      -9.174   7.715  73.958  1.00  0.00    -0.239 C  
HETATM    2  C   UNL     1      -9.693   8.543  72.796  1.00  0.00    -0.159 C  
ENDROOT
BRANCH   2   3
HETATM    3  O   UNL     1      -8.596   9.184  72.141  1.00  0.00    -0.303 OA 
BRANCH   3   4
HETATM    4  C   UNL     1      -8.083   8.483  71.129  1.00  0.00    -0.133 A  
HETATM    5  N   UNL     1      -7.062   7.671  71.217  1.00  0.00    -0.053 NA 
HETATM    6  C   UNL     1      -6.899   7.165  69.958  1.00  0.00    -0.056 A  
HETATM    7  C   UNL     1      -7.837   7.687  69.056  1.00  0.00    -0.119 A  
HETATM    8  N   UNL     1      -8.616   8.503  69.859  1.00  0.00    -0.128 NA 
HETATM    9  C   UNL     1      -7.805   7.320  67.686  1.00  0.00    -0.113 A  
HETATM   10  C   UNL     1      -6.842   6.365  67.292  1.00  0.00    -0.069 A  
HETATM   11  C   UNL     1      -5.958   6.215  69.533  1.00  0.00    -0.025 A  
HETATM   12  C   UNL     1      -5.946   5.810  68.200  1.00  0.00    -0.017 A  
BRANCH   9  13
HETATM   13  C   UNL     1      -8.770   7.797  66.667  1.00  0.00    -0.140 C  
HETATM   14  O   UNL     1      -8.446   8.412  65.667  1.00  0.00    -0.146 OA 
BRANCH  13  15
HETATM   15  O   UNL     1     -10.044   7.514  67.052  1.00  0.00    -0.210 OA 
BRANCH  15  16
HETATM   16  C   UNL     1     -10.486   6.172  66.793  1.00  0.00    -0.252 C  
BRANCH  16  17
HETATM   17  C   UNL     1     -10.157   5.301  67.955  1.00  0.00    -0.156 C  
HETATM   18  O   UNL     1     -10.041   4.375  69.985  1.00  0.00    -0.218 OA 
HETATM   19  C   UNL     1     -10.557   5.383  69.205  1.00  0.00    -0.201 C  
HETATM   20  O   UNL     1      -9.293   4.232  67.785  1.00  0.00    -0.139 OA 
HETATM   21  C   UNL     1     -11.523   6.294  69.831  1.00  0.00    -0.459 C  
HETATM   22  C   UNL     1      -9.282   3.678  69.061  1.00  0.00    -0.159 C  
HETATM   23  O   UNL     1      -8.650   2.670  69.352  1.00  0.00    -0.059 OA 
ENDBRANCH  16  17
ENDBRANCH  15  16
ENDBRANCH  13  15
ENDBRANCH   9  13
BRANCH   8  24
HETATM   24  C   UNL     1      -9.901   9.113  69.558  1.00  0.00    -0.178 C  
BRANCH  24  25
HETATM   25  C   UNL     1      -9.845  10.477  68.910  1.00  0.00    -0.209 A  
HETATM   26  C   UNL     1      -8.681  11.064  68.415  1.00  0.00    -0.150 A  
HETATM   27  C   UNL     1     -11.071  12.477  68.222  1.00  0.00    -0.294 A  
HETATM   28  C   UNL     1      -9.907  13.089  67.734  1.00  0.00    -0.224 A  
HETATM   29  C   UNL     1     -11.044  11.194  68.786  1.00  0.00    -0.291 A  
HETATM   30  C   UNL     1      -8.730  12.314  67.786  1.00  0.00    -0.174 A  
BRANCH  28  31
HETATM   31  C   UNL     1      -9.926  14.454  67.116  1.00  0.00    -0.253 A  
HETATM   32  C   UNL     1      -9.753  16.890  67.493  1.00  0.00    -0.249 A  
HETATM   33  C   UNL     1      -9.502  15.569  67.883  1.00  0.00    -0.201 A  
HETATM   34  C   UNL     1     -10.371  17.146  66.281  1.00  0.00    -0.315 A  
HETATM   35  C   UNL     1     -10.700  16.081  65.448  1.00  0.00    -0.399 A  
HETATM   36  C   UNL     1     -10.467  14.747  65.842  1.00  0.00    -0.324 A  
BRANCH  36  37
HETATM   37  C   UNL     1     -10.798  13.735  64.822  1.00  0.00    -0.401 C  
HETATM   38  N   UNL     1      -9.943  13.151  64.050  1.00  0.00    -0.177 NA 
HETATM   39  O   UNL     1     -10.716  12.249  63.253  1.00  0.00    -0.427 OA 
HETATM   40  C   UNL     1     -12.016  12.392  63.664  1.00  0.00    -0.539 C  
HETATM   41  N   UNL     1     -12.053  13.303  64.648  1.00  0.00    -0.388 NA 
HETATM   42  O   UNL     1     -12.981  11.804  63.195  1.00  0.00    -0.576 OA 
ENDBRANCH  36  37
ENDBRANCH  28  31
ENDBRANCH  24  25
ENDBRANCH   8  24
ENDBRANCH   3   4
ENDBRANCH   2   3
TORSDOF 10
ENDMDL
MODEL      128
REMARK 921   NORMALIZED FREE ENERGY PREDICTED BY IDOCK:   -5.07 KCAL/MOL
REMARK 922        TOTAL FREE ENERGY PREDICTED BY IDOCK:  -10.96 KCAL/MOL
REMARK 923 INTER-LIGAND FREE ENERGY PREDICTED BY IDOCK:   -8.86 KCAL/MOL
REMARK 924 INTRA-LIGAND FREE ENERGY PREDICTED BY IDOCK:   -2.10 KCAL/MOL
REMARK 927      BINDING AFFINITY PREDICTED BY RF-SCORE:    0.00 PKD
ROOT
HETATM    1  C   UNL     1     -10.223   7.160  74.043  1.00  0.00    -0.284 C  
HETATM    2  C   UNL     1     -10.730   7.765  72.746  1.00  0.00    -0.356 C  
ENDROOT
BRANCH   2   3
HETATM    3  O   UNL     1      -9.643   8.384  72.053  1.00  0.00    -0.218 OA 
BRANCH   3   4
HETATM    4  C   UNL     1      -9.057   7.598  71.149  1.00  0.00    -0.146 A  
HETATM    5  N   UNL     1      -8.103   6.741  71.403  1.00  0.00    -0.110 NA 
HETATM    6  C   UNL     1      -7.824   6.153  70.201  1.00  0.00    -0.102 A  
HETATM    7  C   UNL     1      -8.617   6.668  69.166  1.00  0.00    -0.130 A  
HETATM    8  N   UNL     1      -9.435   7.570  69.825  1.00  0.00    -0.157 NA 
HETATM    9  C   UNL     1      -8.447   6.218  67.831  1.00  0.00    -0.117 A  
HETATM   10  C   UNL     1      -7.502   5.194  67.607  1.00  0.00    -0.083 A  
HETATM   11  C   UNL     1      -6.896   5.131  69.943  1.00  0.00    -0.052 A  
HETATM   12  C   UNL     1      -6.752   4.648  68.644  1.00  0.00    -0.050 A  
BRANCH   9  13
HETATM   13  C   UNL     1      -9.257   6.683  66.680  1.00  0.00    -0.157 C  
HETATM   14  O   UNL     1     -10.459   6.870  66.733  1.00  0.00    -0.257 OA 
BRANCH  13  15
HETATM   15  O   UNL     1      -8.481   6.793  65.568  1.00  0.00    -0.144 OA 
BRANCH  15  16
HETATM   16  C   UNL     1      -8.609   8.027  64.842  1.00  0.00     0.027 C  
BRANCH  16  17
HETATM   17  C   UNL     1      -7.548   8.977  65.275  1.00  0.00    -0.098 C  
HETATM   18  O   UNL     1      -5.975  10.563  65.338  1.00  0.00    -0.120 OA 
HETATM   19  C   UNL     1      -6.867   9.853  64.568  1.00  0.00    -0.124 C  
HETATM   20  O   UNL     1      -7.143   8.994  66.600  1.00  0.00    -0.080 OA 
HETATM   21  C   UNL     1      -7.001  10.240  63.160  1.00  0.00    -0.112 C  
HETATM   22  C   UNL     1      -6.195  10.011  66.587  1.00  0.00    -0.069 C  
HETATM   23  O   UNL     1      -5.594  10.383  67.588  1.00  0.00    -0.044 OA 
ENDBRANCH  16  17
ENDBRANCH  15  16
ENDBRANCH  13  15
ENDBRANCH   9  13
BRANCH   8  24
HETATM   24  C   UNL     1     -10.639   8.226  69.341  1.00  0.00    -0.196 C  
BRANCH  24  25
HETATM   25  C   UNL     1     -10.494   9.690  68.991  1.00  0.00    -0.229 A  
HETATM   26  C   UNL     1      -9.321  10.268  68.506  1.00  0.00    -0.155 A  
HETATM   27  C   UNL     1     -11.552  11.890  68.879  1.00  0.00    -0.370 A  
HETATM   28  C   UNL     1     -10.376  12.492  68.406  1.00  0.00    -0.237 A  
HETATM   29  C   UNL     1     -11.614  10.517  69.154  1.00  0.00    -0.295 A  
HETATM   30  C   UNL     1      -9.290  11.626  68.164  1.00  0.00    -0.188 A  
BRANCH  28  31
HETATM   31  C   UNL     1     -10.302  13.956  68.094  1.00  0.00    -0.247 A  
HETATM   32  C   UNL     1     -10.045  16.243  68.993  1.00  0.00    -0.259 A  
HETATM   33  C   UNL     1      -9.874  14.859  69.102  1.00  0.00    -0.200 A  
HETATM   34  C   UNL     1     -10.584  16.783  67.838  1.00  0.00    -0.350 A  
HETATM   35  C   UNL     1     -10.912  15.939  66.782  1.00  0.00    -0.151 A  
HETATM   36  C   UNL     1     -10.758  14.541  66.891  1.00  0.00    -0.288 A  
BRANCH  36  37
HETATM   37  C   UNL     1     -11.076  13.788  65.663  1.00  0.00    -0.295 C  
HETATM   38  N   UNL     1     -10.219  13.442  64.761  1.00  0.00    -0.349 NA 
HETATM   39  O   UNL     1     -10.977  12.723  63.784  1.00  0.00    -0.409 OA 
HETATM   40  C   UNL     1     -12.271  12.708  64.236  1.00  0.00    -0.445 C  
HETATM   41  N   UNL     1     -12.318  13.356  65.410  1.00  0.00    -0.449 NA 
HETATM   42  O   UNL     1     -13.224  12.208  63.655  1.00  0.00    -0.770 OA 
ENDBRANCH  36  37
ENDBRANCH  28  31
ENDBRANCH  24  25
ENDBRANCH   8  24
ENDBRANCH   3   4
ENDBRANCH   2   3
TORSDOF 10
ENDMDL
MODEL      129
REMARK 921   NORMALIZED FREE ENERGY PREDICTED BY IDOCK:   -5.07 KCAL/MOL
REMARK 922        TOTAL FREE ENERGY PREDICTED BY IDOCK:  -10.95 KCAL/MOL
REMARK 923 INTER-LIGAND FREE ENERGY PREDICTED BY IDOCK:   -8.34 KCAL/MOL
REMARK 924 INTRA-LIGAND FREE ENERGY PREDICTED BY IDOCK:   -2.61 KCAL/MOL
REMARK 927      BINDING AFFINITY PREDICTED BY RF-SCORE:    0.00 PKD
ROOT
HETATM    1  C   UNL     1     -12.512  13.077  70.667  1.00  0.00    -0.347 C  
HETATM    2  C   UNL     1     -12.422  11.673  71.238  1.00  0.00    -0.266 C  
ENDROOT
BRANCH   2   3
HETATM    3  O   UNL     1     -12.686  10.722  70.203  1.00  0.00    -0.301 OA 
BRANCH   3   4
HETATM    4  C   UNL     1     -11.859  10.808  69.161  1.00  0.00    -0.275 A  
HETATM    5  N   UNL     1     -12.149  11.367  68.015  1.00  0.00    -0.615 NA 
HETATM    6  C   UNL     1     -11.015  11.242  67.262  1.00  0.00    -0.286 A  
HETATM    7  C   UNL     1      -9.994  10.575  67.953  1.00  0.00    -0.169 A  
HETATM    8  N   UNL     1     -10.561  10.349  69.196  1.00  0.00    -0.213 NA 
HETATM    9  C   UNL     1      -8.750  10.307  67.325  1.00  0.00    -0.125 A  
HETATM   10  C   UNL     1      -8.567  10.796  66.014  1.00  0.00    -0.181 A  
HETATM   11  C   UNL     1     -10.797  11.718  65.959  1.00  0.00    -0.343 A  
HETATM   12  C   UNL     1      -9.564  11.502  65.348  1.00  0.00    -0.249 A  
BRANCH   9  13
HETATM   13  C   UNL     1      -7.606   9.635  67.985  1.00  0.00    -0.083 C  
HETATM   14  O   UNL     1      -6.970  10.129  68.899  1.00  0.00    -0.059 OA 
BRANCH  13  15
HETATM   15  O   UNL     1      -7.338   8.448  67.378  1.00  0.00    -0.086 OA 
BRANCH  15  16
HETATM   16  C   UNL     1      -8.069   7.316  67.879  1.00  0.00    -0.119 C  
BRANCH  16  17
HETATM   17  C   UNL     1      -8.473   6.438  66.747  1.00  0.00    -0.112 C  
HETATM   18  O   UNL     1      -9.626   5.168  65.314  1.00  0.00    -0.080 OA 
HETATM   19  C   UNL     1      -9.650   5.923  66.464  1.00  0.00    -0.156 C  
HETATM   20  O   UNL     1      -7.527   6.041  65.816  1.00  0.00    -0.078 OA 
HETATM   21  C   UNL     1     -10.951   6.124  67.112  1.00  0.00    -0.420 C  
HETATM   22  C   UNL     1      -8.299   5.286  64.940  1.00  0.00    -0.144 C  
HETATM   23  O   UNL     1      -7.849   4.759  63.929  1.00  0.00    -0.078 OA 
ENDBRANCH  16  17
ENDBRANCH  15  16
ENDBRANCH  13  15
ENDBRANCH   9  13
BRANCH   8  24
HETATM   24  C   UNL     1      -9.912   9.930  70.428  1.00  0.00    -0.160 C  
BRANCH  24  25
HETATM   25  C   UNL     1     -10.085   8.475  70.799  1.00  0.00    -0.237 A  
HETATM   26  C   UNL     1     -11.115   7.662  70.328  1.00  0.00    -0.256 A  
HETATM   27  C   UNL     1      -9.247   6.567  72.077  1.00  0.00    -0.147 A  
HETATM   28  C   UNL     1     -10.286   5.739  71.625  1.00  0.00    -0.266 A  
HETATM   29  C   UNL     1      -9.141   7.902  71.663  1.00  0.00    -0.175 A  
HETATM   30  C   UNL     1     -11.171   6.310  70.687  1.00  0.00    -0.401 A  
BRANCH  28  31
HETATM   31  C   UNL     1     -10.402   4.306  72.049  1.00  0.00    -0.169 A  
HETATM   32  C   UNL     1     -11.084   2.732  73.828  1.00  0.00    -0.304 A  
HETATM   33  C   UNL     1     -11.157   3.984  73.206  1.00  0.00    -0.301 A  
HETATM   34  C   UNL     1     -10.309   1.730  73.271  1.00  0.00    -0.187 A  
HETATM   35  C   UNL     1      -9.641   1.972  72.074  1.00  0.00    -0.187 A  
HETATM   36  C   UNL     1      -9.697   3.236  71.451  1.00  0.00    -0.226 A  
BRANCH  36  37
HETATM   37  C   UNL     1      -9.002   3.315  70.153  1.00  0.00    -0.104 C  
HETATM   38  N   UNL     1      -7.954   4.032  69.914  1.00  0.00    -0.055 NA 
HETATM   39  O   UNL     1      -7.633   3.776  68.543  1.00  0.00    -0.054 OA 
HETATM   40  C   UNL     1      -8.567   2.879  68.091  1.00  0.00    -0.090 C  
HETATM   41  N   UNL     1      -9.400   2.588  69.101  1.00  0.00    -0.140 NA 
HETATM   42  O   UNL     1      -8.639   2.439  66.953  1.00  0.00    -0.098 OA 
ENDBRANCH  36  37
ENDBRANCH  28  31
ENDBRANCH  24  25
ENDBRANCH   8  24
ENDBRANCH   3   4
ENDBRANCH   2   3
TORSDOF 10
ENDMDL
MODEL      130
REMARK 921   NORMALIZED FREE ENERGY PREDICTED BY IDOCK:   -5.05 KCAL/MOL
REMARK 922        TOTAL FREE ENERGY PREDICTED BY IDOCK:  -10.92 KCAL/MOL
REMARK 923 INTER-LIGAND FREE ENERGY PREDICTED BY IDOCK:   -8.15 KCAL/MOL
REMARK 924 INTRA-LIGAND FREE ENERGY PREDICTED BY IDOCK:   -2.77 KCAL/MOL
REMARK 927      BINDING AFFINITY PREDICTED BY RF-SCORE:    0.00 PKD
ROOT
HETATM    1  C   UNL     1     -11.493   4.670  73.387  1.00  0.00    -0.335 C  
HETATM    2  C   UNL     1     -11.725   6.008  72.707  1.00  0.00    -0.102 C  
ENDROOT
BRANCH   2   3
HETATM    3  O   UNL     1     -11.294   5.931  71.346  1.00  0.00    -0.261 OA 
BRANCH   3   4
HETATM    4  C   UNL     1      -9.969   5.912  71.197  1.00  0.00    -0.189 A  
HETATM    5  N   UNL     1      -9.233   4.832  71.139  1.00  0.00    -0.136 NA 
HETATM    6  C   UNL     1      -7.954   5.282  70.966  1.00  0.00    -0.103 A  
HETATM    7  C   UNL     1      -7.888   6.682  70.928  1.00  0.00    -0.105 A  
HETATM    8  N   UNL     1      -9.218   7.055  71.035  1.00  0.00    -0.155 NA 
HETATM    9  C   UNL     1      -6.640   7.344  70.800  1.00  0.00    -0.043 A  
HETATM   10  C   UNL     1      -5.491   6.539  70.646  1.00  0.00    -0.019 A  
HETATM   11  C   UNL     1      -6.791   4.512  70.807  1.00  0.00    -0.036 A  
HETATM   12  C   UNL     1      -5.565   5.150  70.633  1.00  0.00    -0.012 A  
BRANCH   9  13
HETATM   13  C   UNL     1      -6.477   8.815  70.722  1.00  0.00    -0.047 C  
HETATM   14  O   UNL     1      -6.566   9.556  71.684  1.00  0.00    -0.299 OA 
BRANCH  13  15
HETATM   15  O   UNL     1      -6.291   9.204  69.431  1.00  0.00    -0.043 OA 
BRANCH  15  16
HETATM   16  C   UNL     1      -5.269  10.193  69.223  1.00  0.00    -0.035 C  
BRANCH  16  17
HETATM   17  C   UNL     1      -5.884  11.454  68.726  1.00  0.00    -0.043 C  
HETATM   18  O   UNL     1      -6.721  13.080  67.440  1.00  0.00    -0.164 OA 
HETATM   19  C   UNL     1      -6.119  11.844  67.491  1.00  0.00    -0.100 C  
HETATM   20  O   UNL     1      -6.282  12.425  69.631  1.00  0.00    -0.121 OA 
HETATM   21  C   UNL     1      -5.940  11.127  66.224  1.00  0.00    -0.130 C  
HETATM   22  C   UNL     1      -6.818  13.390  68.785  1.00  0.00    -0.101 C  
HETATM   23  O   UNL     1      -7.323  14.431  69.188  1.00  0.00    -0.127 OA 
ENDBRANCH  16  17
ENDBRANCH  15  16
ENDBRANCH  13  15
ENDBRANCH   9  13
BRANCH   8  24
HETATM   24  C   UNL     1      -9.817   8.358  70.796  1.00  0.00    -0.182 C  
BRANCH  24  25
HETATM   25  C   UNL     1      -9.879   8.796  69.351  1.00  0.00    -0.186 A  
HETATM   26  C   UNL     1     -10.342   7.996  68.307  1.00  0.00    -0.240 A  
HETATM   27  C   UNL     1      -9.456  10.568  67.721  1.00  0.00    -0.162 A  
HETATM   28  C   UNL     1      -9.903   9.771  66.656  1.00  0.00    -0.275 A  
HETATM   29  C   UNL     1      -9.456  10.096  69.041  1.00  0.00    -0.195 A  
HETATM   30  C   UNL     1     -10.408   8.501  67.003  1.00  0.00    -0.379 A  
BRANCH  28  31
HETATM   31  C   UNL     1      -9.922  10.270  65.244  1.00  0.00    -0.387 A  
HETATM   32  C   UNL     1      -9.110   9.944  62.933  1.00  0.00    -0.291 A  
HETATM   33  C   UNL     1      -9.391   9.453  64.212  1.00  0.00     0.031 A  
HETATM   34  C   UNL     1      -9.422  11.255  62.613  1.00  0.00    -0.279 A  
HETATM   35  C   UNL     1     -10.047  12.056  63.564  1.00  0.00    -0.448 A  
HETATM   36  C   UNL     1     -10.318  11.572  64.861  1.00  0.00    -0.340 A  
BRANCH  36  37
HETATM   37  C   UNL     1     -11.053  12.511  65.729  1.00  0.00    -0.308 C  
HETATM   38  N   UNL     1     -12.249  12.325  66.179  1.00  0.00    -0.585 NA 
HETATM   39  O   UNL     1     -12.528  13.477  66.979  1.00  0.00    -0.260 OA 
HETATM   40  C   UNL     1     -11.406  14.263  66.927  1.00  0.00    -0.343 C  
HETATM   41  N   UNL     1     -10.492  13.647  66.163  1.00  0.00    -0.292 NA 
HETATM   42  O   UNL     1     -11.273  15.352  67.467  1.00  0.00    -0.327 OA 
ENDBRANCH  36  37
ENDBRANCH  28  31
ENDBRANCH  24  25
ENDBRANCH   8  24
ENDBRANCH   3   4
ENDBRANCH   2   3
TORSDOF 10
ENDMDL
MODEL      131
REMARK 921   NORMALIZED FREE ENERGY PREDICTED BY IDOCK:   -5.05 KCAL/MOL
REMARK 922        TOTAL FREE ENERGY PREDICTED BY IDOCK:  -10.92 KCAL/MOL
REMARK 923 INTER-LIGAND FREE ENERGY PREDICTED BY IDOCK:   -9.03 KCAL/MOL
REMARK 924 INTRA-LIGAND FREE ENERGY PREDICTED BY IDOCK:   -1.89 KCAL/MOL
REMARK 927      BINDING AFFINITY PREDICTED BY RF-SCORE:    0.00 PKD
ROOT
HETATM    1  C   UNL     1     -13.359  11.104  72.043  1.00  0.00    -0.384 C  
HETATM    2  C   UNL     1     -13.606   9.617  72.225  1.00  0.00    -0.367 C  
ENDROOT
BRANCH   2   3
HETATM    3  O   UNL     1     -12.865   8.889  71.243  1.00  0.00    -0.306 OA 
BRANCH   3   4
HETATM    4  C   UNL     1     -11.605   8.630  71.594  1.00  0.00    -0.310 A  
HETATM    5  N   UNL     1     -11.198   8.388  72.813  1.00  0.00    -0.267 NA 
HETATM    6  C   UNL     1      -9.855   8.164  72.702  1.00  0.00    -0.294 A  
HETATM    7  C   UNL     1      -9.409   8.283  71.378  1.00  0.00    -0.172 A  
HETATM    8  N   UNL     1     -10.578   8.541  70.681  1.00  0.00    -0.204 NA 
HETATM    9  C   UNL     1      -8.034   8.130  71.061  1.00  0.00    -0.096 A  
HETATM   10  C   UNL     1      -7.159   7.791  72.115  1.00  0.00    -0.072 A  
HETATM   11  C   UNL     1      -8.957   7.822  73.725  1.00  0.00    -0.335 A  
HETATM   12  C   UNL     1      -7.613   7.623  73.420  1.00  0.00    -0.135 A  
BRANCH   9  13
HETATM   13  C   UNL     1      -7.477   8.209  69.691  1.00  0.00    -0.086 C  
HETATM   14  O   UNL     1      -8.012   7.714  68.715  1.00  0.00    -0.121 OA 
BRANCH  13  15
HETATM   15  O   UNL     1      -6.271   8.839  69.704  1.00  0.00    -0.035 OA 
BRANCH  15  16
HETATM   16  C   UNL     1      -6.255  10.161  69.142  1.00  0.00    -0.040 C  
BRANCH  16  17
HETATM   17  C   UNL     1      -6.193  10.076  67.657  1.00  0.00    -0.058 C  
HETATM   18  O   UNL     1      -6.426  10.460  65.468  1.00  0.00    -0.117 OA 
HETATM   19  C   UNL     1      -6.722  10.867  66.748  1.00  0.00    -0.120 C  
HETATM   20  O   UNL     1      -5.510   9.029  67.060  1.00  0.00    -0.039 OA 
HETATM   21  C   UNL     1      -7.456  12.127  66.904  1.00  0.00    -0.019 C  
HETATM   22  C   UNL     1      -5.660   9.333  65.711  1.00  0.00    -0.045 C  
HETATM   23  O   UNL     1      -5.171   8.661  64.811  1.00  0.00    -0.038 OA 
ENDBRANCH  16  17
ENDBRANCH  15  16
ENDBRANCH  13  15
ENDBRANCH   9  13
BRANCH   8  24
HETATM   24  C   UNL     1     -10.806   8.504  69.246  1.00  0.00    -0.056 C  
BRANCH  24  25
HETATM   25  C   UNL     1     -10.980   9.848  68.575  1.00  0.00    -0.226 A  
HETATM   26  C   UNL     1     -11.317  11.023  69.246  1.00  0.00    -0.350 A  
HETATM   27  C   UNL     1     -10.947  11.121  66.489  1.00  0.00    -0.270 A  
HETATM   28  C   UNL     1     -11.301  12.310  67.145  1.00  0.00    -0.398 A  
HETATM   29  C   UNL     1     -10.777   9.919  67.189  1.00  0.00    -0.276 A  
HETATM   30  C   UNL     1     -11.411  12.234  68.549  1.00  0.00    -0.349 A  
BRANCH  28  31
HETATM   31  C   UNL     1     -11.471  13.604  66.410  1.00  0.00    -0.358 A  
HETATM   32  C   UNL     1     -12.259  14.714  64.347  1.00  0.00    -0.473 A  
HETATM   33  C   UNL     1     -12.275  13.638  65.241  1.00  0.00    -0.466 A  
HETATM   34  C   UNL     1     -11.492  15.832  64.627  1.00  0.00    -0.284 A  
HETATM   35  C   UNL     1     -10.776  15.884  65.819  1.00  0.00    -0.325 A  
HETATM   36  C   UNL     1     -10.775  14.796  66.717  1.00  0.00    -0.309 A  
BRANCH  36  37
HETATM   37  C   UNL     1     -10.032  15.031  67.969  1.00  0.00    -0.219 C  
HETATM   38  N   UNL     1     -10.572  15.262  69.120  1.00  0.00    -0.239 NA 
HETATM   39  O   UNL     1      -9.473  15.404  70.024  1.00  0.00    -0.180 OA 
HETATM   40  C   UNL     1      -8.337  15.223  69.279  1.00  0.00    -0.243 C  
HETATM   41  N   UNL     1      -8.695  14.976  68.011  1.00  0.00    -0.156 NA 
HETATM   42  O   UNL     1      -7.190  15.299  69.698  1.00  0.00    -0.189 OA 
ENDBRANCH  36  37
ENDBRANCH  28  31
ENDBRANCH  24  25
ENDBRANCH   8  24
ENDBRANCH   3   4
ENDBRANCH   2   3
TORSDOF 10
ENDMDL
MODEL      132
REMARK 921   NORMALIZED FREE ENERGY PREDICTED BY IDOCK:   -5.04 KCAL/MOL
REMARK 922        TOTAL FREE ENERGY PREDICTED BY IDOCK:  -10.91 KCAL/MOL
REMARK 923 INTER-LIGAND FREE ENERGY PREDICTED BY IDOCK:   -8.78 KCAL/MOL
REMARK 924 INTRA-LIGAND FREE ENERGY PREDICTED BY IDOCK:   -2.13 KCAL/MOL
REMARK 927      BINDING AFFINITY PREDICTED BY RF-SCORE:    0.00 PKD
ROOT
HETATM    1  C   UNL     1     -10.242   5.503  66.214  1.00  0.00    -0.200 C  
HETATM    2  C   UNL     1     -10.475   5.088  67.656  1.00  0.00    -0.005 C  
ENDROOT
BRANCH   2   3
HETATM    3  O   UNL     1     -11.203   6.114  68.334  1.00  0.00    -0.330 OA 
BRANCH   3   4
HETATM    4  C   UNL     1     -10.848   6.281  69.608  1.00  0.00    -0.339 A  
HETATM    5  N   UNL     1     -11.328   5.602  70.618  1.00  0.00    -0.029 NA 
HETATM    6  C   UNL     1     -10.676   6.088  71.716  1.00  0.00    -0.244 A  
HETATM    7  C   UNL     1      -9.774   7.109  71.384  1.00  0.00    -0.168 A  
HETATM    8  N   UNL     1      -9.879   7.175  70.004  1.00  0.00    -0.178 NA 
HETATM    9  C   UNL     1      -9.031   7.774  72.393  1.00  0.00    -0.202 A  
HETATM   10  C   UNL     1      -9.189   7.322  73.720  1.00  0.00    -0.281 A  
HETATM   11  C   UNL     1     -10.806   5.661  73.047  1.00  0.00    -0.308 A  
HETATM   12  C   UNL     1     -10.048   6.275  74.041  1.00  0.00    -0.302 A  
BRANCH   9  13
HETATM   13  C   UNL     1      -8.036   8.841  72.134  1.00  0.00     0.054 C  
HETATM   14  O   UNL     1      -8.175   9.701  71.282  1.00  0.00    -0.186 OA 
BRANCH  13  15
HETATM   15  O   UNL     1      -6.941   8.671  72.923  1.00  0.00    -0.269 OA 
BRANCH  15  16
HETATM   16  C   UNL     1      -5.713   8.398  72.229  1.00  0.00    -0.049 C  
BRANCH  16  17
HETATM   17  C   UNL     1      -5.788   7.061  71.580  1.00  0.00    -0.037 C  
HETATM   18  O   UNL     1      -5.871   4.863  71.182  1.00  0.00    -0.015 OA 
HETATM   19  C   UNL     1      -5.761   5.862  72.121  1.00  0.00    -0.031 C  
HETATM   20  O   UNL     1      -5.887   6.974  70.201  1.00  0.00    -0.023 OA 
HETATM   21  C   UNL     1      -5.743   5.463  73.533  1.00  0.00    -0.024 C  
HETATM   22  C   UNL     1      -5.965   5.598  70.014  1.00  0.00    -0.025 C  
HETATM   23  O   UNL     1      -6.095   5.075  68.913  1.00  0.00    -0.027 OA 
ENDBRANCH  16  17
ENDBRANCH  15  16
ENDBRANCH  13  15
ENDBRANCH   9  13
BRANCH   8  24
HETATM   24  C   UNL     1      -9.009   7.857  69.059  1.00  0.00    -0.145 C  
BRANCH  24  25
HETATM   25  C   UNL     1      -9.650   8.971  68.264  1.00  0.00    -0.158 A  
HETATM   26  C   UNL     1     -10.747   9.715  68.697  1.00  0.00    -0.233 A  
HETATM   27  C   UNL     1      -9.652  10.285  66.202  1.00  0.00    -0.248 A  
HETATM   28  C   UNL     1     -10.765  11.033  66.616  1.00  0.00    -0.305 A  
HETATM   29  C   UNL     1      -9.099   9.285  67.013  1.00  0.00    -0.153 A  
HETATM   30  C   UNL     1     -11.247  10.762  67.913  1.00  0.00    -0.386 A  
BRANCH  28  31
HETATM   31  C   UNL     1     -11.356  12.115  65.764  1.00  0.00    -0.402 A  
HETATM   32  C   UNL     1     -12.098  12.783  63.504  1.00  0.00    -0.642 A  
HETATM   33  C   UNL     1     -11.804  11.800  64.455  1.00  0.00    -0.274 A  
HETATM   34  C   UNL     1     -12.029  14.122  63.851  1.00  0.00    -0.278 A  
HETATM   35  C   UNL     1     -11.703  14.468  65.158  1.00  0.00    -0.376 A  
HETATM   36  C   UNL     1     -11.388  13.483  66.117  1.00  0.00    -0.325 A  
BRANCH  36  37
HETATM   37  C   UNL     1     -11.139  14.001  67.475  1.00  0.00    -0.298 C  
HETATM   38  N   UNL     1      -9.974  14.271  67.965  1.00  0.00    -0.216 NA 
HETATM   39  O   UNL     1     -10.229  14.757  69.286  1.00  0.00    -0.228 OA 
HETATM   40  C   UNL     1     -11.590  14.734  69.447  1.00  0.00    -0.310 C  
HETATM   41  N   UNL     1     -12.145  14.280  68.314  1.00  0.00    -0.294 NA 
HETATM   42  O   UNL     1     -12.193  15.052  70.463  1.00  0.00    -0.292 OA 
ENDBRANCH  36  37
ENDBRANCH  28  31
ENDBRANCH  24  25
ENDBRANCH   8  24
ENDBRANCH   3   4
ENDBRANCH   2   3
TORSDOF 10
ENDMDL
MODEL      133
REMARK 921   NORMALIZED FREE ENERGY PREDICTED BY IDOCK:   -5.03 KCAL/MOL
REMARK 922        TOTAL FREE ENERGY PREDICTED BY IDOCK:  -10.89 KCAL/MOL
REMARK 923 INTER-LIGAND FREE ENERGY PREDICTED BY IDOCK:   -8.70 KCAL/MOL
REMARK 924 INTRA-LIGAND FREE ENERGY PREDICTED BY IDOCK:   -2.19 KCAL/MOL
REMARK 927      BINDING AFFINITY PREDICTED BY RF-SCORE:    0.00 PKD
ROOT
HETATM    1  C   UNL     1      -5.162  10.688  66.354  1.00  0.00    -0.068 C  
HETATM    2  C   UNL     1      -6.213  10.570  65.265  1.00  0.00    -0.095 C  
ENDROOT
BRANCH   2   3
HETATM    3  O   UNL     1      -6.255   9.223  64.789  1.00  0.00    -0.068 OA 
BRANCH   3   4
HETATM    4  C   UNL     1      -6.560   8.325  65.727  1.00  0.00    -0.052 A  
HETATM    5  N   UNL     1      -5.696   7.728  66.506  1.00  0.00    -0.038 NA 
HETATM    6  C   UNL     1      -6.444   6.916  67.311  1.00  0.00    -0.049 A  
HETATM    7  C   UNL     1      -7.813   6.999  67.017  1.00  0.00    -0.108 A  
HETATM    8  N   UNL     1      -7.854   7.955  66.015  1.00  0.00    -0.091 NA 
HETATM    9  C   UNL     1      -8.753   6.197  67.714  1.00  0.00    -0.112 A  
HETATM   10  C   UNL     1      -8.262   5.373  68.750  1.00  0.00    -0.094 A  
HETATM   11  C   UNL     1      -5.991   6.089  68.351  1.00  0.00    -0.020 A  
HETATM   12  C   UNL     1      -6.909   5.331  69.075  1.00  0.00    -0.054 A  
BRANCH   9  13
HETATM   13  C   UNL     1     -10.217   6.237  67.491  1.00  0.00    -0.173 C  
HETATM   14  O   UNL     1     -10.774   5.685  66.559  1.00  0.00    -0.288 OA 
BRANCH  13  15
HETATM   15  O   UNL     1     -10.817   7.028  68.422  1.00  0.00    -0.197 OA 
BRANCH  15  16
HETATM   16  C   UNL     1     -11.391   6.339  69.544  1.00  0.00    -0.404 C  
BRANCH  16  17
HETATM   17  C   UNL     1     -10.814   6.870  70.809  1.00  0.00    -0.245 C  
HETATM   18  O   UNL     1     -10.327   7.262  72.956  1.00  0.00    -0.228 OA 
HETATM   19  C   UNL     1     -11.091   6.554  72.056  1.00  0.00    -0.258 C  
HETATM   20  O   UNL     1      -9.847   7.861  70.758  1.00  0.00    -0.179 OA 
HETATM   21  C   UNL     1     -11.979   5.517  72.593  1.00  0.00    -0.106 C  
HETATM   22  C   UNL     1      -9.562   8.042  72.107  1.00  0.00    -0.215 C  
HETATM   23  O   UNL     1      -8.717   8.829  72.516  1.00  0.00    -0.406 OA 
ENDBRANCH  16  17
ENDBRANCH  15  16
ENDBRANCH  13  15
ENDBRANCH   9  13
BRANCH   8  24
HETATM   24  C   UNL     1      -9.008   8.660  65.482  1.00  0.00    -0.158 C  
BRANCH  24  25
HETATM   25  C   UNL     1      -9.660   9.653  66.417  1.00  0.00    -0.268 A  
HETATM   26  C   UNL     1     -10.896  10.257  66.184  1.00  0.00     0.052 A  
HETATM   27  C   UNL     1      -9.509  10.910  68.508  1.00  0.00    -0.185 A  
HETATM   28  C   UNL     1     -10.744  11.540  68.282  1.00  0.00    -0.247 A  
HETATM   29  C   UNL     1      -8.985   9.978  67.602  1.00  0.00    -0.135 A  
HETATM   30  C   UNL     1     -11.446  11.130  67.130  1.00  0.00    -0.163 A  
BRANCH  28  31
HETATM   31  C   UNL     1     -11.321  12.527  69.250  1.00  0.00    -0.307 A  
HETATM   32  C   UNL     1     -12.755  12.871  71.233  1.00  0.00    -0.371 A  
HETATM   33  C   UNL     1     -11.951  12.054  70.430  1.00  0.00    -0.379 A  
HETATM   34  C   UNL     1     -12.898  14.213  70.927  1.00  0.00    -0.404 A  
HETATM   35  C   UNL     1     -12.206  14.739  69.841  1.00  0.00    -0.358 A  
HETATM   36  C   UNL     1     -11.407  13.919  69.017  1.00  0.00    -0.324 A  
BRANCH  36  37
HETATM   37  C   UNL     1     -10.677  14.635  67.954  1.00  0.00    -0.250 C  
HETATM   38  N   UNL     1      -9.451  15.034  68.035  1.00  0.00    -0.191 NA 
HETATM   39  O   UNL     1      -9.178  15.651  66.774  1.00  0.00    -0.219 OA 
HETATM   40  C   UNL     1     -10.326  15.539  66.034  1.00  0.00    -0.326 C  
HETATM   41  N   UNL     1     -11.243  14.893  66.769  1.00  0.00    -0.340 NA 
HETATM   42  O   UNL     1     -10.491  15.976  64.903  1.00  0.00    -0.574 OA 
ENDBRANCH  36  37
ENDBRANCH  28  31
ENDBRANCH  24  25
ENDBRANCH   8  24
ENDBRANCH   3   4
ENDBRANCH   2   3
TORSDOF 10
ENDMDL
MODEL      134
REMARK 921   NORMALIZED FREE ENERGY PREDICTED BY IDOCK:   -5.03 KCAL/MOL
REMARK 922        TOTAL FREE ENERGY PREDICTED BY IDOCK:  -10.88 KCAL/MOL
REMARK 923 INTER-LIGAND FREE ENERGY PREDICTED BY IDOCK:   -8.16 KCAL/MOL
REMARK 924 INTRA-LIGAND FREE ENERGY PREDICTED BY IDOCK:   -2.72 KCAL/MOL
REMARK 927      BINDING AFFINITY PREDICTED BY RF-SCORE:    0.00 PKD
ROOT
HETATM    1  C   UNL     1     -10.411   9.734  66.982  1.00  0.00    -0.295 C  
HETATM    2  C   UNL     1     -10.405  10.230  65.547  1.00  0.00    -0.169 C  
ENDROOT
BRANCH   2   3
HETATM    3  O   UNL     1      -9.520  11.347  65.435  1.00  0.00    -0.221 OA 
BRANCH   3   4
HETATM    4  C   UNL     1      -9.808  12.354  66.260  1.00  0.00    -0.247 A  
HETATM    5  N   UNL     1     -11.011  12.805  66.506  1.00  0.00    -0.257 NA 
HETATM    6  C   UNL     1     -10.835  13.814  67.410  1.00  0.00    -0.277 A  
HETATM    7  C   UNL     1      -9.483  14.007  67.728  1.00  0.00    -0.209 A  
HETATM    8  N   UNL     1      -8.851  13.014  66.998  1.00  0.00    -0.219 NA 
HETATM    9  C   UNL     1      -9.088  15.040  68.617  1.00  0.00    -0.191 A  
HETATM   10  C   UNL     1     -10.111  15.810  69.211  1.00  0.00    -0.255 A  
HETATM   11  C   UNL     1     -11.826  14.596  68.024  1.00  0.00    -0.343 A  
HETATM   12  C   UNL     1     -11.456  15.583  68.934  1.00  0.00    -0.362 A  
BRANCH   9  13
HETATM   13  C   UNL     1      -7.690  15.300  69.032  1.00  0.00    -0.183 C  
HETATM   14  O   UNL     1      -7.158  14.759  69.986  1.00  0.00    -0.165 OA 
BRANCH  13  15
HETATM   15  O   UNL     1      -7.133  16.263  68.250  1.00  0.00    -0.130 OA 
BRANCH  15  16
HETATM   16  C   UNL     1      -6.925  17.535  68.886  1.00  0.00    -0.252 C  
BRANCH  16  17
HETATM   17  C   UNL     1      -7.516  18.617  68.052  1.00  0.00    -0.251 C  
HETATM   18  O   UNL     1      -7.984  20.578  67.086  1.00  0.00    -0.333 OA 
HETATM   19  C   UNL     1      -7.216  19.898  68.004  1.00  0.00    -0.292 C  
HETATM   20  O   UNL     1      -8.552  18.322  67.181  1.00  0.00    -0.240 OA 
HETATM   21  C   UNL     1      -6.151  20.645  68.680  1.00  0.00    -0.371 C  
HETATM   22  C   UNL     1      -8.780  19.561  66.591  1.00  0.00    -0.342 C  
HETATM   23  O   UNL     1      -9.618  19.745  65.716  1.00  0.00    -0.363 OA 
ENDBRANCH  16  17
ENDBRANCH  15  16
ENDBRANCH  13  15
ENDBRANCH   9  13
BRANCH   8  24
HETATM   24  C   UNL     1      -7.482  12.537  67.111  1.00  0.00    -0.075 C  
BRANCH  24  25
HETATM   25  C   UNL     1      -7.298  11.243  67.870  1.00  0.00    -0.092 A  
HETATM   26  C   UNL     1      -6.707  10.097  67.339  1.00  0.00    -0.073 A  
HETATM   27  C   UNL     1      -7.634  10.024  69.962  1.00  0.00    -0.182 A  
HETATM   28  C   UNL     1      -7.055   8.857  69.439  1.00  0.00    -0.057 A  
HETATM   29  C   UNL     1      -7.742  11.194  69.199  1.00  0.00    -0.076 A  
HETATM   30  C   UNL     1      -6.536   8.955  68.132  1.00  0.00    -0.060 A  
BRANCH  28  31
HETATM   31  C   UNL     1      -6.921   7.604  70.249  1.00  0.00    -0.051 A  
HETATM   32  C   UNL     1      -5.437   6.196  71.635  1.00  0.00    -0.026 A  
HETATM   33  C   UNL     1      -5.781   7.431  71.076  1.00  0.00    -0.035 A  
HETATM   34  C   UNL     1      -6.264   5.101  71.450  1.00  0.00    -0.030 A  
HETATM   35  C   UNL     1      -7.449   5.257  70.739  1.00  0.00    -0.075 A  
HETATM   36  C   UNL     1      -7.794   6.495  70.158  1.00  0.00    -0.107 A  
BRANCH  36  37
HETATM   37  C   UNL     1      -9.115   6.523  69.503  1.00  0.00    -0.140 C  
HETATM   38  N   UNL     1     -10.223   6.854  70.079  1.00  0.00    -0.193 NA 
HETATM   39  O   UNL     1     -11.218   6.752  69.057  1.00  0.00    -0.220 OA 
HETATM   40  C   UNL     1     -10.562   6.361  67.919  1.00  0.00    -0.258 C  
HETATM   41  N   UNL     1      -9.257   6.238  68.202  1.00  0.00    -0.112 NA 
HETATM   42  O   UNL     1     -11.084   6.139  66.836  1.00  0.00    -0.334 OA 
ENDBRANCH  36  37
ENDBRANCH  28  31
ENDBRANCH  24  25
ENDBRANCH   8  24
ENDBRANCH   3   4
ENDBRANCH   2   3
TORSDOF 10
ENDMDL
MODEL      135
REMARK 921   NORMALIZED FREE ENERGY PREDICTED BY IDOCK:   -5.02 KCAL/MOL
REMARK 922        TOTAL FREE ENERGY PREDICTED BY IDOCK:  -10.88 KCAL/MOL
REMARK 923 INTER-LIGAND FREE ENERGY PREDICTED BY IDOCK:  -10.15 KCAL/MOL
REMARK 924 INTRA-LIGAND FREE ENERGY PREDICTED BY IDOCK:   -0.73 KCAL/MOL
REMARK 927      BINDING AFFINITY PREDICTED BY RF-SCORE:    0.00 PKD
ROOT
HETATM    1  C   UNL     1      -6.881   5.958  70.006  1.00  0.00    -0.057 C  
HETATM    2  C   UNL     1      -8.377   5.820  70.225  1.00  0.00    -0.117 C  
ENDROOT
BRANCH   2   3
HETATM    3  O   UNL     1      -8.743   6.483  71.438  1.00  0.00    -0.130 OA 
BRANCH   3   4
HETATM    4  C   UNL     1      -9.996   6.939  71.452  1.00  0.00    -0.181 A  
HETATM    5  N   UNL     1     -11.034   6.273  71.887  1.00  0.00    -0.245 NA 
HETATM    6  C   UNL     1     -12.093   7.122  71.729  1.00  0.00    -0.328 A  
HETATM    7  C   UNL     1     -11.707   8.347  71.168  1.00  0.00    -0.280 A  
HETATM    8  N   UNL     1     -10.334   8.209  71.043  1.00  0.00    -0.194 NA 
HETATM    9  C   UNL     1     -12.671   9.348  70.882  1.00  0.00    -0.179 A  
HETATM   10  C   UNL     1     -14.008   9.084  71.248  1.00  0.00    -0.195 A  
HETATM   11  C   UNL     1     -13.432   6.894  72.084  1.00  0.00     0.003 A  
HETATM   12  C   UNL     1     -14.381   7.887  71.853  1.00  0.00    -0.549 A  
BRANCH   9  13
HETATM   13  C   UNL     1     -12.353  10.680  70.318  1.00  0.00    -0.325 C  
HETATM   14  O   UNL     1     -11.377  10.904  69.623  1.00  0.00    -0.245 OA 
BRANCH  13  15
HETATM   15  O   UNL     1     -13.255  11.605  70.745  1.00  0.00     0.061 OA 
BRANCH  15  16
HETATM   16  C   UNL     1     -12.852  12.384  71.884  1.00  0.00    -0.210 C  
BRANCH  16  17
HETATM   17  C   UNL     1     -12.565  13.782  71.461  1.00  0.00    -0.318 C  
HETATM   18  O   UNL     1     -12.153  15.978  71.426  1.00  0.00    -0.426 OA 
HETATM   19  C   UNL     1     -12.432  14.869  72.190  1.00  0.00    -0.338 C  
HETATM   20  O   UNL     1     -12.419  14.073  70.115  1.00  0.00    -0.344 OA 
HETATM   21  C   UNL     1     -12.429  15.034  73.648  1.00  0.00    -0.660 C  
HETATM   22  C   UNL     1     -12.136  15.434  70.154  1.00  0.00    -0.369 C  
HETATM   23  O   UNL     1     -11.903  16.102  69.154  1.00  0.00    -0.309 OA 
ENDBRANCH  16  17
ENDBRANCH  15  16
ENDBRANCH  13  15
ENDBRANCH   9  13
BRANCH   8  24
HETATM   24  C   UNL     1      -9.340   9.234  70.767  1.00  0.00    -0.258 C  
BRANCH  24  25
HETATM   25  C   UNL     1      -8.968   9.413  69.313  1.00  0.00    -0.154 A  
HETATM   26  C   UNL     1      -8.141  10.427  68.833  1.00  0.00    -0.129 A  
HETATM   27  C   UNL     1      -9.202   8.603  67.019  1.00  0.00    -0.186 A  
HETATM   28  C   UNL     1      -8.384   9.628  66.516  1.00  0.00    -0.120 A  
HETATM   29  C   UNL     1      -9.478   8.490  68.388  1.00  0.00    -0.141 A  
HETATM   30  C   UNL     1      -7.811  10.489  67.474  1.00  0.00    -0.106 A  
BRANCH  28  31
HETATM   31  C   UNL     1      -8.071   9.750  65.056  1.00  0.00    -0.134 A  
HETATM   32  C   UNL     1      -6.405   9.380  63.268  1.00  0.00    -0.093 A  
HETATM   33  C   UNL     1      -6.926   9.093  64.535  1.00  0.00    -0.090 A  
HETATM   34  C   UNL     1      -7.055  10.282  62.443  1.00  0.00    -0.153 A  
HETATM   35  C   UNL     1      -8.244  10.863  62.874  1.00  0.00    -0.048 A  
HETATM   36  C   UNL     1      -8.765  10.591  64.156  1.00  0.00    -0.180 A  
BRANCH  36  37
HETATM   37  C   UNL     1     -10.069  11.220  64.438  1.00  0.00    -0.303 C  
HETATM   38  N   UNL     1     -10.756  11.053  65.520  1.00  0.00    -0.196 NA 
HETATM   39  O   UNL     1     -11.920  11.866  65.350  1.00  0.00    -0.362 OA 
HETATM   40  C   UNL     1     -11.792  12.471  64.126  1.00  0.00    -0.411 C  
HETATM   41  N   UNL     1     -10.633  12.077  63.578  1.00  0.00    -0.440 NA 
HETATM   42  O   UNL     1     -12.608  13.224  63.614  1.00  0.00    -0.708 OA 
ENDBRANCH  36  37
ENDBRANCH  28  31
ENDBRANCH  24  25
ENDBRANCH   8  24
ENDBRANCH   3   4
ENDBRANCH   2   3
TORSDOF 10
ENDMDL
MODEL      136
REMARK 921   NORMALIZED FREE ENERGY PREDICTED BY IDOCK:   -5.02 KCAL/MOL
REMARK 922        TOTAL FREE ENERGY PREDICTED BY IDOCK:  -10.87 KCAL/MOL
REMARK 923 INTER-LIGAND FREE ENERGY PREDICTED BY IDOCK:   -9.08 KCAL/MOL
REMARK 924 INTRA-LIGAND FREE ENERGY PREDICTED BY IDOCK:   -1.79 KCAL/MOL
REMARK 927      BINDING AFFINITY PREDICTED BY RF-SCORE:    0.00 PKD
ROOT
HETATM    1  C   UNL     1     -11.576   7.503  73.185  1.00  0.00    -0.008 C  
HETATM    2  C   UNL     1     -10.618   8.245  72.270  1.00  0.00    -0.323 C  
ENDROOT
BRANCH   2   3
HETATM    3  O   UNL     1     -11.200   8.364  70.969  1.00  0.00    -0.254 OA 
BRANCH   3   4
HETATM    4  C   UNL     1     -11.342   9.622  70.550  1.00  0.00    -0.296 A  
HETATM    5  N   UNL     1     -12.360  10.396  70.824  1.00  0.00    -0.337 NA 
HETATM    6  C   UNL     1     -12.078  11.585  70.212  1.00  0.00    -0.359 A  
HETATM    7  C   UNL     1     -10.856  11.547  69.526  1.00  0.00    -0.064 A  
HETATM    8  N   UNL     1     -10.386  10.274  69.805  1.00  0.00    -0.253 NA 
HETATM    9  C   UNL     1     -10.405  12.671  68.787  1.00  0.00    -0.132 A  
HETATM   10  C   UNL     1     -11.201  13.837  68.830  1.00  0.00    -0.309 A  
HETATM   11  C   UNL     1     -12.842  12.762  70.237  1.00  0.00     0.241 A  
HETATM   12  C   UNL     1     -12.388  13.888  69.554  1.00  0.00    -0.275 A  
BRANCH   9  13
HETATM   13  C   UNL     1      -9.118  12.733  68.057  1.00  0.00    -0.207 C  
HETATM   14  O   UNL     1      -8.051  12.398  68.541  1.00  0.00    -0.148 OA 
BRANCH  13  15
HETATM   15  O   UNL     1      -9.297  13.277  66.823  1.00  0.00    -0.243 OA 
BRANCH  15  16
HETATM   16  C   UNL     1     -10.164  12.543  65.942  1.00  0.00    -0.261 C  
BRANCH  16  17
HETATM   17  C   UNL     1     -10.918  13.490  65.076  1.00  0.00    -0.335 C  
HETATM   18  O   UNL     1     -12.302  14.395  63.572  1.00  0.00    -0.689 OA 
HETATM   19  C   UNL     1     -11.818  13.243  64.148  1.00  0.00    -0.443 C  
HETATM   20  O   UNL     1     -10.687  14.851  65.186  1.00  0.00    -0.353 OA 
HETATM   21  C   UNL     1     -12.430  11.975  63.739  1.00  0.00    -0.594 C  
HETATM   22  C   UNL     1     -11.589  15.362  64.258  1.00  0.00    -0.191 C  
HETATM   23  O   UNL     1     -11.736  16.561  64.052  1.00  0.00    -1.111 OA 
ENDBRANCH  16  17
ENDBRANCH  15  16
ENDBRANCH  13  15
ENDBRANCH   9  13
BRANCH   8  24
HETATM   24  C   UNL     1      -9.053   9.732  69.593  1.00  0.00    -0.220 C  
BRANCH  24  25
HETATM   25  C   UNL     1      -8.899   8.819  68.398  1.00  0.00    -0.138 A  
HETATM   26  C   UNL     1      -7.691   8.253  67.993  1.00  0.00    -0.107 A  
HETATM   27  C   UNL     1      -9.984   7.698  66.516  1.00  0.00    -0.226 A  
HETATM   28  C   UNL     1      -8.774   7.132  66.085  1.00  0.00    -0.164 A  
HETATM   29  C   UNL     1     -10.048   8.513  67.654  1.00  0.00    -0.271 A  
HETATM   30  C   UNL     1      -7.649   7.380  66.899  1.00  0.00    -0.102 A  
BRANCH  28  31
HETATM   31  C   UNL     1      -8.696   6.247  64.879  1.00  0.00     0.143 A  
HETATM   32  C   UNL     1      -8.673   3.929  64.022  1.00  0.00    -0.108 A  
HETATM   33  C   UNL     1      -8.992   4.865  65.012  1.00  0.00    -0.147 A  
HETATM   34  C   UNL     1      -8.114   4.351  62.828  1.00  0.00    -0.075 A  
HETATM   35  C   UNL     1      -7.912   5.711  62.615  1.00  0.00    -0.097 A  
HETATM   36  C   UNL     1      -8.215   6.658  63.614  1.00  0.00     0.088 A  
BRANCH  36  37
HETATM   37  C   UNL     1      -8.019   8.064  63.213  1.00  0.00    -0.143 C  
HETATM   38  N   UNL     1      -7.009   8.511  62.542  1.00  0.00    -0.094 NA 
HETATM   39  O   UNL     1      -7.262   9.909  62.376  1.00  0.00    -0.111 OA 
HETATM   40  C   UNL     1      -8.463  10.157  62.988  1.00  0.00    -0.180 C  
HETATM   41  N   UNL     1      -8.931   9.004  63.488  1.00  0.00     0.014 NA 
HETATM   42  O   UNL     1      -9.003  11.251  63.081  1.00  0.00    -0.202 OA 
ENDBRANCH  36  37
ENDBRANCH  28  31
ENDBRANCH  24  25
ENDBRANCH   8  24
ENDBRANCH   3   4
ENDBRANCH   2   3
TORSDOF 10
ENDMDL
MODEL      137
REMARK 921   NORMALIZED FREE ENERGY PREDICTED BY IDOCK:   -5.01 KCAL/MOL
REMARK 922        TOTAL FREE ENERGY PREDICTED BY IDOCK:  -10.86 KCAL/MOL
REMARK 923 INTER-LIGAND FREE ENERGY PREDICTED BY IDOCK:  -10.27 KCAL/MOL
REMARK 924 INTRA-LIGAND FREE ENERGY PREDICTED BY IDOCK:   -0.59 KCAL/MOL
REMARK 927      BINDING AFFINITY PREDICTED BY RF-SCORE:    0.00 PKD
ROOT
HETATM    1  C   UNL     1     -14.324  15.257  71.505  1.00  0.00    -0.633 C  
HETATM    2  C   UNL     1     -13.883  13.945  72.130  1.00  0.00    -0.541 C  
ENDROOT
BRANCH   2   3
HETATM    3  O   UNL     1     -12.518  13.691  71.787  1.00  0.00    -0.240 OA 
BRANCH   3   4
HETATM    4  C   UNL     1     -12.007  14.559  70.912  1.00  0.00    -0.325 A  
HETATM    5  N   UNL     1     -11.404  15.676  71.226  1.00  0.00    -0.377 NA 
HETATM    6  C   UNL     1     -11.035  16.228  70.031  1.00  0.00    -0.355 A  
HETATM    7  C   UNL     1     -11.430  15.439  68.942  1.00  0.00    -0.342 A  
HETATM    8  N   UNL     1     -12.018  14.344  69.552  1.00  0.00    -0.315 NA 
HETATM    9  C   UNL     1     -11.178  15.864  67.612  1.00  0.00    -0.219 A  
HETATM   10  C   UNL     1     -10.461  17.067  67.440  1.00  0.00    -0.322 A  
HETATM   11  C   UNL     1     -10.319  17.417  69.823  1.00  0.00     0.243 A  
HETATM   12  C   UNL     1     -10.024  17.822  68.524  1.00  0.00    -0.370 A  
BRANCH   9  13
HETATM   13  C   UNL     1     -11.533  15.085  66.402  1.00  0.00    -0.225 C  
HETATM   14  O   UNL     1     -12.579  14.474  66.276  1.00  0.00    -0.274 OA 
BRANCH  13  15
HETATM   15  O   UNL     1     -10.505  15.097  65.511  1.00  0.00    -0.321 OA 
BRANCH  15  16
HETATM   16  C   UNL     1      -9.696  13.910  65.481  1.00  0.00    -0.088 C  
BRANCH  16  17
HETATM   17  C   UNL     1     -10.391  12.847  64.704  1.00  0.00    -0.344 C  
HETATM   18  O   UNL     1     -11.000  10.904  63.783  1.00  0.00    -0.182 OA 
HETATM   19  C   UNL     1     -10.104  11.568  64.587  1.00  0.00    -0.271 C  
HETATM   20  O   UNL     1     -11.506  13.171  63.947  1.00  0.00    -0.396 OA 
HETATM   21  C   UNL     1      -9.073  10.767  65.256  1.00  0.00    -0.217 C  
HETATM   22  C   UNL     1     -11.858  11.930  63.427  1.00  0.00    -0.413 C  
HETATM   23  O   UNL     1     -12.833  11.755  62.706  1.00  0.00    -0.095 OA 
ENDBRANCH  16  17
ENDBRANCH  15  16
ENDBRANCH  13  15
ENDBRANCH   9  13
BRANCH   8  24
HETATM   24  C   UNL     1     -12.386  13.066  68.964  1.00  0.00     0.133 C  
BRANCH  24  25
HETATM   25  C   UNL     1     -11.614  11.866  69.464  1.00  0.00    -0.394 A  
HETATM   26  C   UNL     1     -10.307  11.561  69.085  1.00  0.00    -0.086 A  
HETATM   27  C   UNL     1     -11.610   9.864  70.865  1.00  0.00    -0.456 A  
HETATM   28  C   UNL     1     -10.301   9.532  70.483  1.00  0.00    -0.350 A  
HETATM   29  C   UNL     1     -12.248  11.012  70.377  1.00  0.00    -0.461 A  
HETATM   30  C   UNL     1      -9.651  10.453  69.635  1.00  0.00    -0.142 A  
BRANCH  28  31
HETATM   31  C   UNL     1      -9.603   8.315  71.010  1.00  0.00    -0.197 A  
HETATM   32  C   UNL     1      -8.427   7.280  72.921  1.00  0.00    -0.134 A  
HETATM   33  C   UNL     1      -9.312   8.228  72.396  1.00  0.00    -0.338 A  
HETATM   34  C   UNL     1      -7.856   6.333  72.087  1.00  0.00    -0.104 A  
HETATM   35  C   UNL     1      -8.204   6.316  70.740  1.00  0.00    -0.125 A  
HETATM   36  C   UNL     1      -9.082   7.279  70.201  1.00  0.00    -0.148 A  
BRANCH  36  37
HETATM   37  C   UNL     1      -9.413   7.084  68.777  1.00  0.00    -0.136 C  
HETATM   38  N   UNL     1      -8.675   7.457  67.785  1.00  0.00    -0.126 NA 
HETATM   39  O   UNL     1      -9.387   7.044  66.615  1.00  0.00    -0.154 OA 
HETATM   40  C   UNL     1     -10.529   6.427  67.058  1.00  0.00    -0.282 C  
HETATM   41  N   UNL     1     -10.526   6.443  68.399  1.00  0.00    -0.197 NA 
HETATM   42  O   UNL     1     -11.409   5.962  66.348  1.00  0.00     0.055 OA 
ENDBRANCH  36  37
ENDBRANCH  28  31
ENDBRANCH  24  25
ENDBRANCH   8  24
ENDBRANCH   3   4
ENDBRANCH   2   3
TORSDOF 10
ENDMDL
MODEL      138
REMARK 921   NORMALIZED FREE ENERGY PREDICTED BY IDOCK:   -5.00 KCAL/MOL
REMARK 922        TOTAL FREE ENERGY PREDICTED BY IDOCK:  -10.84 KCAL/MOL
REMARK 923 INTER-LIGAND FREE ENERGY PREDICTED BY IDOCK:   -8.32 KCAL/MOL
REMARK 924 INTRA-LIGAND FREE ENERGY PREDICTED BY IDOCK:   -2.52 KCAL/MOL
REMARK 927      BINDING AFFINITY PREDICTED BY RF-SCORE:    0.00 PKD
ROOT
HETATM    1  C   UNL     1      -7.043  18.159  66.452  1.00  0.00    -0.274 C  
HETATM    2  C   UNL     1      -7.927  16.959  66.160  1.00  0.00    -0.255 C  
ENDROOT
BRANCH   2   3
HETATM    3  O   UNL     1      -7.620  15.908  67.079  1.00  0.00    -0.197 OA 
BRANCH   3   4
HETATM    4  C   UNL     1      -8.621  15.595  67.902  1.00  0.00    -0.162 A  
HETATM    5  N   UNL     1      -9.090  16.370  68.844  1.00  0.00    -0.249 NA 
HETATM    6  C   UNL     1     -10.108  15.660  69.416  1.00  0.00    -0.269 A  
HETATM    7  C   UNL     1     -10.270  14.400  68.822  1.00  0.00    -0.239 A  
HETATM    8  N   UNL     1      -9.319  14.411  67.815  1.00  0.00    -0.195 NA 
HETATM    9  C   UNL     1     -11.247  13.492  69.305  1.00  0.00    -0.285 A  
HETATM   10  C   UNL     1     -12.083  13.935  70.352  1.00  0.00    -0.421 A  
HETATM   11  C   UNL     1     -10.961  16.070  70.454  1.00  0.00    -0.347 A  
HETATM   12  C   UNL     1     -11.955  15.205  70.906  1.00  0.00    -0.378 A  
BRANCH   9  13
HETATM   13  C   UNL     1     -11.508  12.155  68.723  1.00  0.00    -0.307 C  
HETATM   14  O   UNL     1     -12.144  11.977  67.699  1.00  0.00    -0.547 OA 
BRANCH  13  15
HETATM   15  O   UNL     1     -11.006  11.180  69.528  1.00  0.00    -0.242 OA 
BRANCH  15  16
HETATM   16  C   UNL     1     -11.498   9.853  69.277  1.00  0.00     0.007 C  
BRANCH  16  17
HETATM   17  C   UNL     1     -11.647   9.120  70.564  1.00  0.00    -0.197 C  
HETATM   18  O   UNL     1     -12.288   8.451  72.598  1.00  0.00    -0.365 OA 
HETATM   19  C   UNL     1     -12.428   9.378  71.591  1.00  0.00    -0.378 C  
HETATM   20  O   UNL     1     -10.874   7.996  70.805  1.00  0.00    -0.224 OA 
HETATM   21  C   UNL     1     -13.460  10.406  71.759  1.00  0.00    -0.366 C  
HETATM   22  C   UNL     1     -11.332   7.608  72.059  1.00  0.00    -0.278 C  
HETATM   23  O   UNL     1     -10.923   6.614  72.646  1.00  0.00    -0.236 OA 
ENDBRANCH  16  17
ENDBRANCH  15  16
ENDBRANCH  13  15
ENDBRANCH   9  13
BRANCH   8  24
HETATM   24  C   UNL     1      -9.174  13.497  66.694  1.00  0.00    -0.210 C  
BRANCH  24  25
HETATM   25  C   UNL     1      -8.391  12.234  66.973  1.00  0.00    -0.168 A  
HETATM   26  C   UNL     1      -7.126  12.208  67.561  1.00  0.00    -0.135 A  
HETATM   27  C   UNL     1      -8.307   9.796  66.832  1.00  0.00    -0.120 A  
HETATM   28  C   UNL     1      -7.027   9.752  67.407  1.00  0.00    -0.084 A  
HETATM   29  C   UNL     1      -8.979  11.009  66.631  1.00  0.00    -0.176 A  
HETATM   30  C   UNL     1      -6.493  10.988  67.826  1.00  0.00    -0.063 A  
BRANCH  28  31
HETATM   31  C   UNL     1      -6.305   8.460  67.640  1.00  0.00    -0.053 A  
HETATM   32  C   UNL     1      -5.128   6.543  66.617  1.00  0.00    -0.012 A  
HETATM   33  C   UNL     1      -5.584   7.865  66.572  1.00  0.00    -0.032 A  
HETATM   34  C   UNL     1      -5.310   5.789  67.763  1.00  0.00    -0.004 A  
HETATM   35  C   UNL     1      -5.913   6.373  68.873  1.00  0.00    -0.021 A  
HETATM   36  C   UNL     1      -6.390   7.699  68.829  1.00  0.00    -0.040 A  
BRANCH  36  37
HETATM   37  C   UNL     1      -6.934   8.202  70.105  1.00  0.00    -0.040 C  
HETATM   38  N   UNL     1      -8.019   8.892  70.229  1.00  0.00    -0.102 NA 
HETATM   39  O   UNL     1      -8.149   9.130  71.634  1.00  0.00    -0.346 OA 
HETATM   40  C   UNL     1      -7.078   8.516  72.228  1.00  0.00    -0.064 C  
HETATM   41  N   UNL     1      -6.341   7.930  71.274  1.00  0.00    -0.034 NA 
HETATM   42  O   UNL     1      -6.826   8.523  73.425  1.00  0.00    -0.212 OA 
ENDBRANCH  36  37
ENDBRANCH  28  31
ENDBRANCH  24  25
ENDBRANCH   8  24
ENDBRANCH   3   4
ENDBRANCH   2   3
TORSDOF 10
ENDMDL
MODEL      139
REMARK 921   NORMALIZED FREE ENERGY PREDICTED BY IDOCK:   -4.99 KCAL/MOL
REMARK 922        TOTAL FREE ENERGY PREDICTED BY IDOCK:  -10.83 KCAL/MOL
REMARK 923 INTER-LIGAND FREE ENERGY PREDICTED BY IDOCK:   -7.71 KCAL/MOL
REMARK 924 INTRA-LIGAND FREE ENERGY PREDICTED BY IDOCK:   -3.12 KCAL/MOL
REMARK 927      BINDING AFFINITY PREDICTED BY RF-SCORE:    0.00 PKD
ROOT
HETATM    1  C   UNL     1     -13.226  11.769  63.458  1.00  0.00     0.131 C  
HETATM    2  C   UNL     1     -11.874  12.430  63.253  1.00  0.00    -0.402 C  
ENDROOT
BRANCH   2   3
HETATM    3  O   UNL     1     -10.881  11.720  63.996  1.00  0.00    -0.322 OA 
BRANCH   3   4
HETATM    4  C   UNL     1     -10.462  12.357  65.090  1.00  0.00    -0.292 A  
HETATM    5  N   UNL     1     -11.126  13.295  65.715  1.00  0.00    -0.279 NA 
HETATM    6  C   UNL     1     -10.337  13.643  66.776  1.00  0.00    -0.268 A  
HETATM    7  C   UNL     1      -9.142  12.911  66.806  1.00  0.00    -0.211 A  
HETATM    8  N   UNL     1      -9.278  12.056  65.725  1.00  0.00    -0.127 NA 
HETATM    9  C   UNL     1      -8.168  13.157  67.807  1.00  0.00    -0.168 A  
HETATM   10  C   UNL     1      -8.482  14.113  68.797  1.00  0.00    -0.069 A  
HETATM   11  C   UNL     1     -10.619  14.583  67.779  1.00  0.00    -0.250 A  
HETATM   12  C   UNL     1      -9.691  14.802  68.794  1.00  0.00    -0.222 A  
BRANCH   9  13
HETATM   13  C   UNL     1      -6.891  12.415  67.934  1.00  0.00    -0.099 C  
HETATM   14  O   UNL     1      -6.093  12.284  67.024  1.00  0.00    -0.177 OA 
BRANCH  13  15
HETATM   15  O   UNL     1      -6.789  11.856  69.170  1.00  0.00    -0.101 OA 
BRANCH  15  16
HETATM   16  C   UNL     1      -6.748  10.420  69.200  1.00  0.00    -0.061 C  
BRANCH  16  17
HETATM   17  C   UNL     1      -7.919   9.899  69.957  1.00  0.00    -0.180 C  
HETATM   18  O   UNL     1      -9.246   8.793  71.376  1.00  0.00    -0.209 OA 
HETATM   19  C   UNL     1      -7.966   8.996  70.912  1.00  0.00    -0.164 C  
HETATM   20  O   UNL     1      -9.188  10.368  69.662  1.00  0.00    -0.169 OA 
HETATM   21  C   UNL     1      -6.880   8.289  71.599  1.00  0.00    -0.069 C  
HETATM   22  C   UNL     1      -9.963   9.676  70.587  1.00  0.00    -0.231 C  
HETATM   23  O   UNL     1     -11.174   9.821  70.693  1.00  0.00    -0.280 OA 
ENDBRANCH  16  17
ENDBRANCH  15  16
ENDBRANCH  13  15
ENDBRANCH   9  13
BRANCH   8  24
HETATM   24  C   UNL     1      -8.487  10.882  65.391  1.00  0.00    -0.088 C  
BRANCH  24  25
HETATM   25  C   UNL     1      -8.836   9.620  66.146  1.00  0.00    -0.173 A  
HETATM   26  C   UNL     1     -10.114   9.308  66.607  1.00  0.00    -0.341 A  
HETATM   27  C   UNL     1      -8.044   7.516  67.107  1.00  0.00    -0.118 A  
HETATM   28  C   UNL     1      -9.321   7.194  67.592  1.00  0.00    -0.135 A  
HETATM   29  C   UNL     1      -7.809   8.696  66.389  1.00  0.00    -0.099 A  
HETATM   30  C   UNL     1     -10.356   8.092  67.259  1.00  0.00    -0.373 A  
BRANCH  28  31
HETATM   31  C   UNL     1      -9.588   5.928  68.348  1.00  0.00    -0.138 A  
HETATM   32  C   UNL     1      -9.801   4.858  70.565  1.00  0.00    -0.297 A  
HETATM   33  C   UNL     1      -9.827   5.992  69.745  1.00  0.00    -0.208 A  
HETATM   34  C   UNL     1      -9.610   3.606  70.006  1.00  0.00    -0.244 A  
HETATM   35  C   UNL     1      -9.484   3.491  68.625  1.00  0.00    -0.209 A  
HETATM   36  C   UNL     1      -9.492   4.631  67.794  1.00  0.00    -0.190 A  
BRANCH  36  37
HETATM   37  C   UNL     1      -9.426   4.342  66.350  1.00  0.00    -0.183 C  
HETATM   38  N   UNL     1     -10.436   4.351  65.543  1.00  0.00    -0.251 NA 
HETATM   39  O   UNL     1      -9.889   4.035  64.260  1.00  0.00    -0.166 OA 
HETATM   40  C   UNL     1      -8.541   3.873  64.445  1.00  0.00    -0.104 C  
HETATM   41  N   UNL     1      -8.263   4.081  65.741  1.00  0.00    -0.104 NA 
HETATM   42  O   UNL     1      -7.734   3.566  63.579  1.00  0.00    -0.066 OA 
ENDBRANCH  36  37
ENDBRANCH  28  31
ENDBRANCH  24  25
ENDBRANCH   8  24
ENDBRANCH   3   4
ENDBRANCH   2   3
TORSDOF 10
ENDMDL
MODEL      140
REMARK 921   NORMALIZED FREE ENERGY PREDICTED BY IDOCK:   -4.98 KCAL/MOL
REMARK 922        TOTAL FREE ENERGY PREDICTED BY IDOCK:  -10.81 KCAL/MOL
REMARK 923 INTER-LIGAND FREE ENERGY PREDICTED BY IDOCK:   -8.65 KCAL/MOL
REMARK 924 INTRA-LIGAND FREE ENERGY PREDICTED BY IDOCK:   -2.17 KCAL/MOL
REMARK 927      BINDING AFFINITY PREDICTED BY RF-SCORE:    0.00 PKD
ROOT
HETATM    1  C   UNL     1      -7.019   8.663  62.679  1.00  0.00    -0.094 C  
HETATM    2  C   UNL     1      -8.233   8.856  63.570  1.00  0.00    -0.177 C  
ENDROOT
BRANCH   2   3
HETATM    3  O   UNL     1      -8.077  10.053  64.335  1.00  0.00    -0.145 OA 
BRANCH   3   4
HETATM    4  C   UNL     1      -9.189  10.782  64.438  1.00  0.00    -0.221 A  
HETATM    5  N   UNL     1     -10.099  10.900  63.507  1.00  0.00    -0.345 NA 
HETATM    6  C   UNL     1     -11.055  11.716  64.045  1.00  0.00    -0.384 A  
HETATM    7  C   UNL     1     -10.725  12.128  65.344  1.00  0.00    -0.284 A  
HETATM    8  N   UNL     1      -9.531  11.467  65.582  1.00  0.00    -0.227 NA 
HETATM    9  C   UNL     1     -11.569  13.016  66.058  1.00  0.00    -0.409 A  
HETATM   10  C   UNL     1     -12.775  13.407  65.435  1.00  0.00    -0.484 A  
HETATM   11  C   UNL     1     -12.264  12.121  63.458  1.00  0.00    -0.670 A  
HETATM   12  C   UNL     1     -13.124  12.956  64.166  1.00  0.00     0.202 A  
BRANCH   9  13
HETATM   13  C   UNL     1     -11.317  13.482  67.442  1.00  0.00    -0.311 C  
HETATM   14  O   UNL     1     -11.346  12.751  68.416  1.00  0.00    -0.253 OA 
BRANCH  13  15
HETATM   15  O   UNL     1     -11.128  14.829  67.462  1.00  0.00    -0.297 OA 
BRANCH  15  16
HETATM   16  C   UNL     1     -10.006  15.309  66.704  1.00  0.00    -0.254 C  
BRANCH  16  17
HETATM   17  C   UNL     1      -8.934  15.770  67.628  1.00  0.00    -0.187 C  
HETATM   18  O   UNL     1      -7.701  16.935  69.083  1.00  0.00    -0.227 OA 
HETATM   19  C   UNL     1      -8.850  16.880  68.330  1.00  0.00    -0.228 C  
HETATM   20  O   UNL     1      -7.813  14.980  67.823  1.00  0.00    -0.125 OA 
HETATM   21  C   UNL     1      -9.821  17.967  68.499  1.00  0.00    -0.367 C  
HETATM   22  C   UNL     1      -7.102  15.732  68.752  1.00  0.00    -0.131 C  
HETATM   23  O   UNL     1      -6.033  15.374  69.231  1.00  0.00    -0.104 OA 
ENDBRANCH  16  17
ENDBRANCH  15  16
ENDBRANCH  13  15
ENDBRANCH   9  13
BRANCH   8  24
HETATM   24  C   UNL     1      -8.830  11.286  66.843  1.00  0.00    -0.165 C  
BRANCH  24  25
HETATM   25  C   UNL     1      -8.872   9.890  67.423  1.00  0.00    -0.137 A  
HETATM   26  C   UNL     1      -7.744   9.160  67.796  1.00  0.00    -0.093 A  
HETATM   27  C   UNL     1     -10.251   7.993  68.112  1.00  0.00    -0.251 A  
HETATM   28  C   UNL     1      -9.126   7.238  68.479  1.00  0.00    -0.136 A  
HETATM   29  C   UNL     1     -10.128   9.295  67.607  1.00  0.00    -0.266 A  
HETATM   30  C   UNL     1      -7.880   7.889  68.369  1.00  0.00    -0.120 A  
BRANCH  28  31
HETATM   31  C   UNL     1      -9.246   5.852  69.033  1.00  0.00    -0.132 A  
HETATM   32  C   UNL     1      -9.444   3.441  68.529  1.00  0.00    -0.209 A  
HETATM   33  C   UNL     1      -9.074   4.741  68.167  1.00  0.00    -0.141 A  
HETATM   34  C   UNL     1      -9.931   3.190  69.801  1.00  0.00     0.437 A  
HETATM   35  C   UNL     1     -10.009   4.235  70.716  1.00  0.00    -0.224 A  
HETATM   36  C   UNL     1      -9.654   5.551  70.353  1.00  0.00    -0.224 A  
BRANCH  36  37
HETATM   37  C   UNL     1      -9.716   6.532  71.452  1.00  0.00    -0.172 C  
HETATM   38  N   UNL     1     -10.775   7.183  71.808  1.00  0.00    -0.215 NA 
HETATM   39  O   UNL     1     -10.361   7.991  72.913  1.00  0.00    -0.315 OA 
HETATM   40  C   UNL     1      -9.034   7.714  73.116  1.00  0.00    -0.191 C  
HETATM   41  N   UNL     1      -8.649   6.797  72.216  1.00  0.00    -0.121 NA 
HETATM   42  O   UNL     1      -8.318   8.234  73.961  1.00  0.00    -0.256 OA 
ENDBRANCH  36  37
ENDBRANCH  28  31
ENDBRANCH  24  25
ENDBRANCH   8  24
ENDBRANCH   3   4
ENDBRANCH   2   3
TORSDOF 10
ENDMDL
MODEL      141
REMARK 921   NORMALIZED FREE ENERGY PREDICTED BY IDOCK:   -4.98 KCAL/MOL
REMARK 922        TOTAL FREE ENERGY PREDICTED BY IDOCK:  -10.81 KCAL/MOL
REMARK 923 INTER-LIGAND FREE ENERGY PREDICTED BY IDOCK:   -8.78 KCAL/MOL
REMARK 924 INTRA-LIGAND FREE ENERGY PREDICTED BY IDOCK:   -2.03 KCAL/MOL
REMARK 927      BINDING AFFINITY PREDICTED BY RF-SCORE:    0.00 PKD
ROOT
HETATM    1  C   UNL     1     -11.731  11.973  69.178  1.00  0.00    -0.389 C  
HETATM    2  C   UNL     1     -11.600  10.809  70.144  1.00  0.00    -0.337 C  
ENDROOT
BRANCH   2   3
HETATM    3  O   UNL     1     -10.256  10.322  70.122  1.00  0.00    -0.230 OA 
BRANCH   3   4
HETATM    4  C   UNL     1     -10.101   9.186  69.440  1.00  0.00    -0.197 A  
HETATM    5  N   UNL     1     -11.031   8.286  69.255  1.00  0.00    -0.039 NA 
HETATM    6  C   UNL     1     -10.441   7.315  68.496  1.00  0.00    -0.188 A  
HETATM    7  C   UNL     1      -9.101   7.611  68.210  1.00  0.00    -0.136 A  
HETATM    8  N   UNL     1      -8.928   8.853  68.800  1.00  0.00    -0.134 NA 
HETATM    9  C   UNL     1      -8.301   6.703  67.470  1.00  0.00    -0.121 A  
HETATM   10  C   UNL     1      -8.927   5.536  66.983  1.00  0.00    -0.113 A  
HETATM   11  C   UNL     1     -11.033   6.146  67.992  1.00  0.00    -0.399 A  
HETATM   12  C   UNL     1     -10.271   5.268  67.225  1.00  0.00    -0.252 A  
BRANCH   9  13
HETATM   13  C   UNL     1      -6.888   6.944  67.097  1.00  0.00    -0.072 C  
HETATM   14  O   UNL     1      -6.478   6.913  65.950  1.00  0.00    -0.048 OA 
BRANCH  13  15
HETATM   15  O   UNL     1      -6.127   7.126  68.210  1.00  0.00    -0.031 OA 
BRANCH  15  16
HETATM   16  C   UNL     1      -6.247   6.107  69.217  1.00  0.00    -0.033 C  
BRANCH  16  17
HETATM   17  C   UNL     1      -6.736   6.710  70.486  1.00  0.00    -0.057 C  
HETATM   18  O   UNL     1      -7.887   7.174  72.346  1.00  0.00    -0.092 OA 
HETATM   19  C   UNL     1      -7.771   6.379  71.229  1.00  0.00    -0.095 C  
HETATM   20  O   UNL     1      -6.072   7.798  71.028  1.00  0.00    -0.034 OA 
HETATM   21  C   UNL     1      -8.710   5.260  71.096  1.00  0.00    -0.136 C  
HETATM   22  C   UNL     1      -6.805   8.022  72.189  1.00  0.00    -0.071 C  
HETATM   23  O   UNL     1      -6.530   8.899  72.999  1.00  0.00    -0.288 OA 
ENDBRANCH  16  17
ENDBRANCH  15  16
ENDBRANCH  13  15
ENDBRANCH   9  13
BRANCH   8  24
HETATM   24  C   UNL     1      -7.835   9.795  68.627  1.00  0.00    -0.081 C  
BRANCH  24  25
HETATM   25  C   UNL     1      -8.208  11.129  68.022  1.00  0.00    -0.125 A  
HETATM   26  C   UNL     1      -8.894  11.280  66.817  1.00  0.00    -0.170 A  
HETATM   27  C   UNL     1      -8.137  13.565  68.215  1.00  0.00    -0.155 A  
HETATM   28  C   UNL     1      -8.813  13.736  66.997  1.00  0.00    -0.230 A  
HETATM   29  C   UNL     1      -7.852  12.290  68.723  1.00  0.00     0.006 A  
HETATM   30  C   UNL     1      -9.240  12.556  66.354  1.00  0.00    -0.177 A  
BRANCH  28  31
HETATM   31  C   UNL     1      -9.136  15.094  66.451  1.00  0.00    -0.331 A  
HETATM   32  C   UNL     1      -8.548  17.493  66.416  1.00  0.00    -0.273 A  
HETATM   33  C   UNL     1      -8.210  16.153  66.634  1.00  0.00    -0.321 A  
HETATM   34  C   UNL     1      -9.803  17.818  65.932  1.00  0.00    -0.078 A  
HETATM   35  C   UNL     1     -10.702  16.799  65.634  1.00  0.00    -0.199 A  
HETATM   36  C   UNL     1     -10.374  15.447  65.868  1.00  0.00    -0.359 A  
BRANCH  36  37
HETATM   37  C   UNL     1     -11.398  14.479  65.430  1.00  0.00    -0.341 C  
HETATM   38  N   UNL     1     -12.488  14.212  66.068  1.00  0.00    -0.464 NA 
HETATM   39  O   UNL     1     -13.163  13.242  65.261  1.00  0.00    -0.625 OA 
HETATM   40  C   UNL     1     -12.366  13.032  64.166  1.00  0.00    -0.358 C  
HETATM   41  N   UNL     1     -11.283  13.816  64.272  1.00  0.00    -0.350 NA 
HETATM   42  O   UNL     1     -12.596  12.245  63.258  1.00  0.00    -0.656 OA 
ENDBRANCH  36  37
ENDBRANCH  28  31
ENDBRANCH  24  25
ENDBRANCH   8  24
ENDBRANCH   3   4
ENDBRANCH   2   3
TORSDOF 10
ENDMDL
MODEL      142
REMARK 921   NORMALIZED FREE ENERGY PREDICTED BY IDOCK:   -4.97 KCAL/MOL
REMARK 922        TOTAL FREE ENERGY PREDICTED BY IDOCK:  -10.79 KCAL/MOL
REMARK 923 INTER-LIGAND FREE ENERGY PREDICTED BY IDOCK:   -8.91 KCAL/MOL
REMARK 924 INTRA-LIGAND FREE ENERGY PREDICTED BY IDOCK:   -1.88 KCAL/MOL
REMARK 927      BINDING AFFINITY PREDICTED BY RF-SCORE:    0.00 PKD
ROOT
HETATM    1  C   UNL     1     -11.280   6.090  69.318  1.00  0.00    -0.367 C  
HETATM    2  C   UNL     1     -12.035   6.647  70.512  1.00  0.00    -0.316 C  
ENDROOT
BRANCH   2   3
HETATM    3  O   UNL     1     -11.481   6.113  71.716  1.00  0.00    -0.285 OA 
BRANCH   3   4
HETATM    4  C   UNL     1     -10.148   6.067  71.727  1.00  0.00    -0.188 A  
HETATM    5  N   UNL     1      -9.427   5.056  71.317  1.00  0.00    -0.148 NA 
HETATM    6  C   UNL     1      -8.130   5.449  71.494  1.00  0.00    -0.117 A  
HETATM    7  C   UNL     1      -8.040   6.737  72.041  1.00  0.00    -0.101 A  
HETATM    8  N   UNL     1      -9.366   7.124  72.137  1.00  0.00    -0.133 NA 
HETATM    9  C   UNL     1      -6.777   7.309  72.342  1.00  0.00    -0.059 A  
HETATM   10  C   UNL     1      -5.629   6.559  72.005  1.00  0.00    -0.036 A  
HETATM   11  C   UNL     1      -6.967   4.734  71.168  1.00  0.00    -0.047 A  
HETATM   12  C   UNL     1      -5.720   5.303  71.415  1.00  0.00    -0.013 A  
BRANCH   9  13
HETATM   13  C   UNL     1      -6.583   8.670  72.893  1.00  0.00    -0.012 C  
HETATM   14  O   UNL     1      -6.495   8.909  74.085  1.00  0.00    -0.282 OA 
BRANCH  13  15
HETATM   15  O   UNL     1      -6.595   9.593  71.894  1.00  0.00    -0.295 OA 
BRANCH  15  16
HETATM   16  C   UNL     1      -5.347  10.266  71.657  1.00  0.00    -0.011 C  
BRANCH  16  17
HETATM   17  C   UNL     1      -5.578  11.473  70.817  1.00  0.00    -0.111 C  
HETATM   18  O   UNL     1      -5.905  12.875  69.107  1.00  0.00    -0.072 OA 
HETATM   19  C   UNL     1      -5.672  11.580  69.509  1.00  0.00    -0.069 C  
HETATM   20  O   UNL     1      -5.707  12.713  71.421  1.00  0.00    -0.388 OA 
HETATM   21  C   UNL     1      -5.674  10.541  68.474  1.00  0.00    -0.040 C  
HETATM   22  C   UNL     1      -5.938  13.534  70.323  1.00  0.00    -0.146 C  
HETATM   23  O   UNL     1      -6.141  14.739  70.415  1.00  0.00    -0.155 OA 
ENDBRANCH  16  17
ENDBRANCH  15  16
ENDBRANCH  13  15
ENDBRANCH   9  13
BRANCH   8  24
HETATM   24  C   UNL     1      -9.910   8.449  72.386  1.00  0.00    -0.308 C  
BRANCH  24  25
HETATM   25  C   UNL     1     -10.114   9.315  71.164  1.00  0.00    -0.374 A  
HETATM   26  C   UNL     1      -9.130   9.571  70.210  1.00  0.00    -0.296 A  
HETATM   27  C   UNL     1     -11.641  10.725  69.878  1.00  0.00    -0.410 A  
HETATM   28  C   UNL     1     -10.659  11.007  68.917  1.00  0.00    -0.239 A  
HETATM   29  C   UNL     1     -11.379   9.888  70.971  1.00  0.00    -0.460 A  
HETATM   30  C   UNL     1      -9.423  10.349  69.082  1.00  0.00    -0.220 A  
BRANCH  28  31
HETATM   31  C   UNL     1     -10.932  11.889  67.736  1.00  0.00    -0.278 A  
HETATM   32  C   UNL     1     -12.285  13.740  66.817  1.00  0.00    -0.440 A  
HETATM   33  C   UNL     1     -11.753  13.034  67.901  1.00  0.00    -0.402 A  
HETATM   34  C   UNL     1     -11.954  13.372  65.524  1.00  0.00    -0.433 A  
HETATM   35  C   UNL     1     -11.062  12.324  65.324  1.00  0.00    -0.359 A  
HETATM   36  C   UNL     1     -10.535  11.597  66.411  1.00  0.00    -0.283 A  
BRANCH  36  37
HETATM   37  C   UNL     1      -9.545  10.567  66.043  1.00  0.00    -0.194 C  
HETATM   38  N   UNL     1      -8.286  10.782  65.850  1.00  0.00    -0.160 NA 
HETATM   39  O   UNL     1      -7.733   9.500  65.537  1.00  0.00    -0.101 OA 
HETATM   40  C   UNL     1      -8.774   8.610  65.591  1.00  0.00    -0.182 C  
HETATM   41  N   UNL     1      -9.888   9.279  65.921  1.00  0.00    -0.290 NA 
HETATM   42  O   UNL     1      -8.700   7.412  65.354  1.00  0.00    -0.090 OA 
ENDBRANCH  36  37
ENDBRANCH  28  31
ENDBRANCH  24  25
ENDBRANCH   8  24
ENDBRANCH   3   4
ENDBRANCH   2   3
TORSDOF 10
ENDMDL
MODEL      143
REMARK 921   NORMALIZED FREE ENERGY PREDICTED BY IDOCK:   -4.92 KCAL/MOL
REMARK 922        TOTAL FREE ENERGY PREDICTED BY IDOCK:  -10.72 KCAL/MOL
REMARK 923 INTER-LIGAND FREE ENERGY PREDICTED BY IDOCK:   -9.34 KCAL/MOL
REMARK 924 INTRA-LIGAND FREE ENERGY PREDICTED BY IDOCK:   -1.39 KCAL/MOL
REMARK 927      BINDING AFFINITY PREDICTED BY RF-SCORE:    0.00 PKD
ROOT
HETATM    1  C   UNL     1     -12.666  11.861  63.414  1.00  0.00    -0.496 C  
HETATM    2  C   UNL     1     -12.417  12.861  64.529  1.00  0.00    -0.400 C  
ENDROOT
BRANCH   2   3
HETATM    3  O   UNL     1     -11.394  13.776  64.127  1.00  0.00    -0.353 OA 
BRANCH   3   4
HETATM    4  C   UNL     1     -10.912  14.523  65.121  1.00  0.00    -0.379 A  
HETATM    5  N   UNL     1     -11.398  15.677  65.499  1.00  0.00    -0.119 NA 
HETATM    6  C   UNL     1     -10.612  16.067  66.547  1.00  0.00    -0.284 A  
HETATM    7  C   UNL     1      -9.600  15.137  66.822  1.00  0.00    -0.245 A  
HETATM    8  N   UNL     1      -9.853  14.128  65.907  1.00  0.00    -0.306 NA 
HETATM    9  C   UNL     1      -8.651  15.383  67.847  1.00  0.00    -0.156 A  
HETATM   10  C   UNL     1      -8.811  16.558  68.612  1.00  0.00    -0.237 A  
HETATM   11  C   UNL     1     -10.745  17.224  67.331  1.00  0.00    -0.247 A  
HETATM   12  C   UNL     1      -9.848  17.454  68.371  1.00  0.00    -0.316 A  
BRANCH   9  13
HETATM   13  C   UNL     1      -7.566  14.447  68.226  1.00  0.00    -0.124 C  
HETATM   14  O   UNL     1      -7.615  13.717  69.200  1.00  0.00    -0.011 OA 
BRANCH  13  15
HETATM   15  O   UNL     1      -6.507  14.581  67.384  1.00  0.00    -0.309 OA 
BRANCH  15  16
HETATM   16  C   UNL     1      -5.380  15.299  67.914  1.00  0.00    -0.113 C  
BRANCH  16  17
HETATM   17  C   UNL     1      -5.507  16.745  67.588  1.00  0.00    -0.140 C  
HETATM   18  O   UNL     1      -5.607  18.976  67.697  1.00  0.00    -0.173 OA 
HETATM   19  C   UNL     1      -5.464  17.792  68.384  1.00  0.00    -0.158 C  
HETATM   20  O   UNL     1      -5.720  17.135  66.276  1.00  0.00    -0.285 OA 
HETATM   21  C   UNL     1      -5.186  17.875  69.822  1.00  0.00    -0.202 C  
HETATM   22  C   UNL     1      -5.744  18.521  66.398  1.00  0.00    -0.154 C  
HETATM   23  O   UNL     1      -5.883  19.278  65.445  1.00  0.00    -0.171 OA 
ENDBRANCH  16  17
ENDBRANCH  15  16
ENDBRANCH  13  15
ENDBRANCH   9  13
BRANCH   8  24
HETATM   24  C   UNL     1      -9.308  12.781  65.868  1.00  0.00     0.017 C  
BRANCH  24  25
HETATM   25  C   UNL     1      -9.785  11.849  66.958  1.00  0.00    -0.204 A  
HETATM   26  C   UNL     1      -8.940  11.133  67.805  1.00  0.00    -0.139 A  
HETATM   27  C   UNL     1     -11.691  10.837  68.107  1.00  0.00    -0.173 A  
HETATM   28  C   UNL     1     -10.855  10.097  68.957  1.00  0.00    -0.257 A  
HETATM   29  C   UNL     1     -11.168  11.703  67.137  1.00  0.00    -0.371 A  
HETATM   30  C   UNL     1      -9.471  10.327  68.820  1.00  0.00    -0.176 A  
BRANCH  28  31
HETATM   31  C   UNL     1     -11.402   9.179  70.008  1.00  0.00    -0.108 A  
HETATM   32  C   UNL     1     -12.566   8.995  72.180  1.00  0.00    -0.461 A  
HETATM   33  C   UNL     1     -12.248   9.706  71.018  1.00  0.00    -0.409 A  
HETATM   34  C   UNL     1     -12.111   7.697  72.340  1.00  0.00    -0.257 A  
HETATM   35  C   UNL     1     -11.373   7.105  71.321  1.00  0.00    -0.298 A  
HETATM   36  C   UNL     1     -11.034   7.822  70.155  1.00  0.00    -0.246 A  
BRANCH  36  37
HETATM   37  C   UNL     1     -10.315   7.036  69.134  1.00  0.00    -0.201 C  
HETATM   38  N   UNL     1      -9.501   6.064  69.382  1.00  0.00    -0.133 NA 
HETATM   39  O   UNL     1      -9.071   5.603  68.098  1.00  0.00    -0.111 OA 
HETATM   40  C   UNL     1      -9.716   6.383  67.173  1.00  0.00    -0.141 C  
HETATM   41  N   UNL     1     -10.497   7.256  67.826  1.00  0.00    -0.216 NA 
HETATM   42  O   UNL     1      -9.582   6.308  65.960  1.00  0.00    -0.078 OA 
ENDBRANCH  36  37
ENDBRANCH  28  31
ENDBRANCH  24  25
ENDBRANCH   8  24
ENDBRANCH   3   4
ENDBRANCH   2   3
TORSDOF 10
ENDMDL
MODEL      144
REMARK 921   NORMALIZED FREE ENERGY PREDICTED BY IDOCK:   -4.92 KCAL/MOL
REMARK 922        TOTAL FREE ENERGY PREDICTED BY IDOCK:  -10.72 KCAL/MOL
REMARK 923 INTER-LIGAND FREE ENERGY PREDICTED BY IDOCK:   -8.72 KCAL/MOL
REMARK 924 INTRA-LIGAND FREE ENERGY PREDICTED BY IDOCK:   -2.00 KCAL/MOL
REMARK 927      BINDING AFFINITY PREDICTED BY RF-SCORE:    0.00 PKD
ROOT
HETATM    1  C   UNL     1      -9.192  11.216  62.591  1.00  0.00    -0.357 C  
HETATM    2  C   UNL     1      -9.985  10.099  63.247  1.00  0.00     0.294 C  
ENDROOT
BRANCH   2   3
HETATM    3  O   UNL     1      -9.973  10.278  64.666  1.00  0.00    -0.336 OA 
BRANCH   3   4
HETATM    4  C   UNL     1      -9.529   9.219  65.343  1.00  0.00    -0.210 A  
HETATM    5  N   UNL     1      -8.534   8.454  64.975  1.00  0.00    -0.164 NA 
HETATM    6  C   UNL     1      -8.420   7.518  65.964  1.00  0.00    -0.148 A  
HETATM    7  C   UNL     1      -9.379   7.697  66.972  1.00  0.00    -0.157 A  
HETATM    8  N   UNL     1     -10.050   8.835  66.558  1.00  0.00    -0.289 NA 
HETATM    9  C   UNL     1      -9.454   6.798  68.067  1.00  0.00    -0.119 A  
HETATM   10  C   UNL     1      -8.489   5.770  68.130  1.00  0.00    -0.109 A  
HETATM   11  C   UNL     1      -7.473   6.487  66.061  1.00  0.00    -0.081 A  
HETATM   12  C   UNL     1      -7.507   5.625  67.155  1.00  0.00    -0.084 A  
BRANCH   9  13
HETATM   13  C   UNL     1     -10.413   6.924  69.190  1.00  0.00    -0.207 C  
HETATM   14  O   UNL     1     -11.413   6.239  69.303  1.00  0.00    -0.411 OA 
BRANCH  13  15
HETATM   15  O   UNL     1     -10.050   7.946  70.011  1.00  0.00    -0.193 OA 
BRANCH  15  16
HETATM   16  C   UNL     1      -9.027   7.637  70.971  1.00  0.00    -0.146 C  
BRANCH  16  17
HETATM   17  C   UNL     1      -7.825   8.476  70.714  1.00  0.00    -0.097 C  
HETATM   18  O   UNL     1      -5.749   9.193  70.297  1.00  0.00    -0.032 OA 
HETATM   19  C   UNL     1      -6.575   8.115  70.517  1.00  0.00    -0.036 C  
HETATM   20  O   UNL     1      -7.948   9.856  70.679  1.00  0.00    -0.257 OA 
HETATM   21  C   UNL     1      -5.987   6.777  70.392  1.00  0.00    -0.024 C  
HETATM   22  C   UNL     1      -6.645  10.244  70.388  1.00  0.00    -0.126 C  
HETATM   23  O   UNL     1      -6.309  11.412  70.235  1.00  0.00    -0.184 OA 
ENDBRANCH  16  17
ENDBRANCH  15  16
ENDBRANCH  13  15
ENDBRANCH   9  13
BRANCH   8  24
HETATM   24  C   UNL     1     -10.977   9.666  67.310  1.00  0.00    -0.037 C  
BRANCH  24  25
HETATM   25  C   UNL     1     -10.661  11.145  67.334  1.00  0.00    -0.272 A  
HETATM   26  C   UNL     1     -11.487  12.133  66.800  1.00  0.00    -0.418 A  
HETATM   27  C   UNL     1      -9.086  12.898  67.982  1.00  0.00    -0.211 A  
HETATM   28  C   UNL     1      -9.898  13.905  67.435  1.00  0.00    -0.237 A  
HETATM   29  C   UNL     1      -9.465  11.549  67.943  1.00  0.00    -0.178 A  
HETATM   30  C   UNL     1     -11.137  13.484  66.909  1.00  0.00    -0.309 A  
BRANCH  28  31
HETATM   31  C   UNL     1      -9.511  15.351  67.483  1.00  0.00    -0.205 A  
HETATM   32  C   UNL     1      -8.002  17.110  66.624  1.00  0.00    -0.300 A  
HETATM   33  C   UNL     1      -8.633  15.868  66.495  1.00  0.00    -0.345 A  
HETATM   34  C   UNL     1      -8.286  17.918  67.713  1.00  0.00    -0.233 A  
HETATM   35  C   UNL     1      -9.226  17.495  68.646  1.00  0.00    -0.267 A  
HETATM   36  C   UNL     1      -9.853  16.236  68.532  1.00  0.00    -0.223 A  
BRANCH  36  37
HETATM   37  C   UNL     1     -10.881  15.963  69.554  1.00  0.00    -0.305 C  
HETATM   38  N   UNL     1     -12.152  15.909  69.332  1.00  0.00    -0.268 NA 
HETATM   39  O   UNL     1     -12.738  15.602  70.600  1.00  0.00    -0.454 OA 
HETATM   40  C   UNL     1     -11.699  15.491  71.487  1.00  0.00    -0.412 C  
HETATM   41  N   UNL     1     -10.551  15.700  70.824  1.00  0.00    -0.161 NA 
HETATM   42  O   UNL     1     -11.804  15.262  72.684  1.00  0.00    -0.409 OA 
ENDBRANCH  36  37
ENDBRANCH  28  31
ENDBRANCH  24  25
ENDBRANCH   8  24
ENDBRANCH   3   4
ENDBRANCH   2   3
TORSDOF 10
ENDMDL
MODEL      145
REMARK 921   NORMALIZED FREE ENERGY PREDICTED BY IDOCK:   -4.89 KCAL/MOL
REMARK 922        TOTAL FREE ENERGY PREDICTED BY IDOCK:  -10.67 KCAL/MOL
REMARK 923 INTER-LIGAND FREE ENERGY PREDICTED BY IDOCK:   -9.63 KCAL/MOL
REMARK 924 INTRA-LIGAND FREE ENERGY PREDICTED BY IDOCK:   -1.04 KCAL/MOL
REMARK 927      BINDING AFFINITY PREDICTED BY RF-SCORE:    0.00 PKD
ROOT
HETATM    1  C   UNL     1      -7.963   8.128  64.328  1.00  0.00    -0.144 C  
HETATM    2  C   UNL     1      -8.117   8.817  65.673  1.00  0.00    -0.108 C  
ENDROOT
BRANCH   2   3
HETATM    3  O   UNL     1      -7.822  10.208  65.530  1.00  0.00    -0.135 OA 
BRANCH   3   4
HETATM    4  C   UNL     1      -8.884  10.963  65.246  1.00  0.00    -0.167 A  
HETATM    5  N   UNL     1      -9.655  10.813  64.200  1.00  0.00    -0.257 NA 
HETATM    6  C   UNL     1     -10.613  11.781  64.323  1.00  0.00    -0.335 A  
HETATM    7  C   UNL     1     -10.426  12.564  65.470  1.00  0.00    -0.279 A  
HETATM    8  N   UNL     1      -9.323  11.977  66.067  1.00  0.00    -0.221 NA 
HETATM    9  C   UNL     1     -11.292  13.652  65.752  1.00  0.00    -0.315 A  
HETATM   10  C   UNL     1     -12.375  13.864  64.873  1.00  0.00    -0.445 A  
HETATM   11  C   UNL     1     -11.704  12.017  63.472  1.00  0.00    -0.566 A  
HETATM   12  C   UNL     1     -12.588  13.053  63.763  1.00  0.00    -0.293 A  
BRANCH   9  13
HETATM   13  C   UNL     1     -11.189  14.515  66.952  1.00  0.00    -0.336 C  
HETATM   14  O   UNL     1     -11.964  14.461  67.891  1.00  0.00    -0.353 OA 
BRANCH  13  15
HETATM   15  O   UNL     1     -10.168  15.403  66.813  1.00  0.00    -0.260 OA 
BRANCH  15  16
HETATM   16  C   UNL     1     -10.410  16.489  65.903  1.00  0.00    -0.350 C  
BRANCH  16  17
HETATM   17  C   UNL     1      -9.727  17.718  66.393  1.00  0.00    -0.308 C  
HETATM   18  O   UNL     1      -8.208  19.208  67.077  1.00  0.00    -0.257 OA 
HETATM   19  C   UNL     1      -8.453  17.923  66.653  1.00  0.00    -0.258 C  
HETATM   20  O   UNL     1     -10.471  18.856  66.657  1.00  0.00    -0.386 OA 
HETATM   21  C   UNL     1      -7.295  17.045  66.454  1.00  0.00    -0.328 C  
HETATM   22  C   UNL     1      -9.480  19.752  67.046  1.00  0.00    -0.363 C  
HETATM   23  O   UNL     1      -9.707  20.917  67.346  1.00  0.00    -0.456 OA 
ENDBRANCH  16  17
ENDBRANCH  15  16
ENDBRANCH  13  15
ENDBRANCH   9  13
BRANCH   8  24
HETATM   24  C   UNL     1      -8.806  12.175  67.412  1.00  0.00    -0.181 C  
BRANCH  24  25
HETATM   25  C   UNL     1      -9.113  11.074  68.401  1.00  0.00    -0.161 A  
HETATM   26  C   UNL     1      -8.157  10.447  69.200  1.00  0.00    -0.151 A  
HETATM   27  C   UNL     1     -10.810   9.631  69.407  1.00  0.00    -0.239 A  
HETATM   28  C   UNL     1      -9.860   8.978  70.207  1.00  0.00    -0.227 A  
HETATM   29  C   UNL     1     -10.447  10.665  68.533  1.00  0.00    -0.212 A  
HETATM   30  C   UNL     1      -8.540   9.467  70.125  1.00  0.00    -0.250 A  
BRANCH  28  31
HETATM   31  C   UNL     1     -10.238   7.883  71.157  1.00  0.00    -0.221 A  
HETATM   32  C   UNL     1     -11.929   7.019  72.738  1.00  0.00     0.115 A  
HETATM   33  C   UNL     1     -11.567   7.819  71.649  1.00  0.00    -0.304 A  
HETATM   34  C   UNL     1     -10.988   6.193  73.330  1.00  0.00    -0.230 A  
HETATM   35  C   UNL     1      -9.701   6.144  72.804  1.00  0.00    -0.165 A  
HETATM   36  C   UNL     1      -9.325   6.960  71.717  1.00  0.00    -0.147 A  
BRANCH  36  37
HETATM   37  C   UNL     1      -7.952   6.739  71.225  1.00  0.00    -0.106 C  
HETATM   38  N   UNL     1      -6.883   6.817  71.946  1.00  0.00    -0.062 NA 
HETATM   39  O   UNL     1      -5.809   6.509  71.053  1.00  0.00    -0.026 OA 
HETATM   40  C   UNL     1      -6.383   6.256  69.834  1.00  0.00    -0.035 C  
HETATM   41  N   UNL     1      -7.713   6.385  69.956  1.00  0.00    -0.099 NA 
HETATM   42  O   UNL     1      -5.781   5.982  68.805  1.00  0.00    -0.011 OA 
ENDBRANCH  36  37
ENDBRANCH  28  31
ENDBRANCH  24  25
ENDBRANCH   8  24
ENDBRANCH   3   4
ENDBRANCH   2   3
TORSDOF 10
ENDMDL
MODEL      146
REMARK 921   NORMALIZED FREE ENERGY PREDICTED BY IDOCK:   -4.88 KCAL/MOL
REMARK 922        TOTAL FREE ENERGY PREDICTED BY IDOCK:  -10.66 KCAL/MOL
REMARK 923 INTER-LIGAND FREE ENERGY PREDICTED BY IDOCK:   -9.24 KCAL/MOL
REMARK 924 INTRA-LIGAND FREE ENERGY PREDICTED BY IDOCK:   -1.41 KCAL/MOL
REMARK 927      BINDING AFFINITY PREDICTED BY RF-SCORE:    0.00 PKD
ROOT
HETATM    1  C   UNL     1     -13.474   9.628  71.493  1.00  0.00    -0.430 C  
HETATM    2  C   UNL     1     -13.189   8.540  72.513  1.00  0.00    -0.223 C  
ENDROOT
BRANCH   2   3
HETATM    3  O   UNL     1     -12.337   7.552  71.928  1.00  0.00    -0.302 OA 
BRANCH   3   4
HETATM    4  C   UNL     1     -11.041   7.730  72.188  1.00  0.00    -0.279 A  
HETATM    5  N   UNL     1     -10.507   7.734  73.382  1.00  0.00    -0.301 NA 
HETATM    6  C   UNL     1      -9.170   7.930  73.173  1.00  0.00    -0.267 A  
HETATM    7  C   UNL     1      -8.864   8.065  71.812  1.00  0.00    -0.140 A  
HETATM    8  N   UNL     1     -10.094   7.885  71.200  1.00  0.00    -0.184 NA 
HETATM    9  C   UNL     1      -7.534   8.321  71.391  1.00  0.00    -0.089 A  
HETATM   10  C   UNL     1      -6.535   8.364  72.388  1.00  0.00    -0.087 A  
HETATM   11  C   UNL     1      -8.151   7.975  74.138  1.00  0.00    -0.309 A  
HETATM   12  C   UNL     1      -6.834   8.179  73.734  1.00  0.00    -0.151 A  
BRANCH   9  13
HETATM   13  C   UNL     1      -7.112   8.449  69.976  1.00  0.00    -0.047 C  
HETATM   14  O   UNL     1      -7.511   9.325  69.230  1.00  0.00    -0.071 OA 
BRANCH  13  15
HETATM   15  O   UNL     1      -6.291   7.421  69.631  1.00  0.00    -0.030 OA 
BRANCH  15  16
HETATM   16  C   UNL     1      -6.860   6.107  69.746  1.00  0.00    -0.068 C  
BRANCH  16  17
HETATM   17  C   UNL     1      -7.523   5.732  68.467  1.00  0.00    -0.085 C  
HETATM   18  O   UNL     1      -8.086   5.527  66.314  1.00  0.00    -0.104 OA 
HETATM   19  C   UNL     1      -7.247   6.107  67.237  1.00  0.00    -0.075 C  
HETATM   20  O   UNL     1      -8.614   4.877  68.487  1.00  0.00    -0.094 OA 
HETATM   21  C   UNL     1      -6.147   6.932  66.725  1.00  0.00    -0.037 C  
HETATM   22  C   UNL     1      -8.900   4.762  67.131  1.00  0.00    -0.107 C  
HETATM   23  O   UNL     1      -9.800   4.056  66.691  1.00  0.00    -0.215 OA 
ENDBRANCH  16  17
ENDBRANCH  15  16
ENDBRANCH  13  15
ENDBRANCH   9  13
BRANCH   8  24
HETATM   24  C   UNL     1     -10.384   7.654  69.794  1.00  0.00    -0.223 C  
BRANCH  24  25
HETATM   25  C   UNL     1     -10.638   8.892  68.965  1.00  0.00    -0.203 A  
HETATM   26  C   UNL     1     -10.963  10.139  69.495  1.00  0.00    -0.295 A  
HETATM   27  C   UNL     1     -10.775   9.875  66.731  1.00  0.00    -0.154 A  
HETATM   28  C   UNL     1     -11.119  11.134  67.247  1.00  0.00    -0.366 A  
HETATM   29  C   UNL     1     -10.527   8.781  67.572  1.00  0.00    -0.340 A  
HETATM   30  C   UNL     1     -11.136  11.244  68.653  1.00  0.00    -0.286 A  
BRANCH  28  31
HETATM   31  C   UNL     1     -11.372  12.314  66.359  1.00  0.00    -0.405 A  
HETATM   32  C   UNL     1     -11.489  13.161  64.041  1.00  0.00    -0.455 A  
HETATM   33  C   UNL     1     -11.535  12.111  64.965  1.00  0.00    -0.377 A  
HETATM   34  C   UNL     1     -11.353  14.465  64.485  1.00  0.00    -0.328 A  
HETATM   35  C   UNL     1     -11.303  14.716  65.853  1.00  0.00    -0.338 A  
HETATM   36  C   UNL     1     -11.331  13.661  66.789  1.00  0.00    -0.346 A  
BRANCH  36  37
HETATM   37  C   UNL     1     -11.348  14.089  68.200  1.00  0.00    -0.292 C  
HETATM   38  N   UNL     1     -10.303  14.398  68.895  1.00  0.00    -0.239 NA 
HETATM   39  O   UNL     1     -10.808  14.762  70.183  1.00  0.00    -0.183 OA 
HETATM   40  C   UNL     1     -12.171  14.635  70.112  1.00  0.00    -0.335 C  
HETATM   41  N   UNL     1     -12.496  14.233  68.874  1.00  0.00    -0.059 NA 
HETATM   42  O   UNL     1     -12.954  14.832  71.030  1.00  0.00    -0.327 OA 
ENDBRANCH  36  37
ENDBRANCH  28  31
ENDBRANCH  24  25
ENDBRANCH   8  24
ENDBRANCH   3   4
ENDBRANCH   2   3
TORSDOF 10
ENDMDL
MODEL      147
REMARK 921   NORMALIZED FREE ENERGY PREDICTED BY IDOCK:   -4.88 KCAL/MOL
REMARK 922        TOTAL FREE ENERGY PREDICTED BY IDOCK:  -10.66 KCAL/MOL
REMARK 923 INTER-LIGAND FREE ENERGY PREDICTED BY IDOCK:   -7.67 KCAL/MOL
REMARK 924 INTRA-LIGAND FREE ENERGY PREDICTED BY IDOCK:   -2.99 KCAL/MOL
REMARK 927      BINDING AFFINITY PREDICTED BY RF-SCORE:    0.00 PKD
ROOT
HETATM    1  C   UNL     1      -6.108   5.344  62.852  1.00  0.00    -0.021 C  
HETATM    2  C   UNL     1      -6.233   6.087  64.171  1.00  0.00    -0.029 C  
ENDROOT
BRANCH   2   3
HETATM    3  O   UNL     1      -7.615   6.275  64.480  1.00  0.00    -0.084 OA 
BRANCH   3   4
HETATM    4  C   UNL     1      -8.055   5.519  65.487  1.00  0.00    -0.120 A  
HETATM    5  N   UNL     1      -8.333   4.244  65.405  1.00  0.00    -0.109 NA 
HETATM    6  C   UNL     1      -8.726   3.883  66.663  1.00  0.00    -0.115 A  
HETATM    7  C   UNL     1      -8.704   4.967  67.553  1.00  0.00    -0.103 A  
HETATM    8  N   UNL     1      -8.222   6.000  66.767  1.00  0.00    -0.105 NA 
HETATM    9  C   UNL     1      -9.122   4.807  68.899  1.00  0.00    -0.156 A  
HETATM   10  C   UNL     1      -9.490   3.509  69.314  1.00  0.00    -0.233 A  
HETATM   11  C   UNL     1      -9.094   2.605  67.111  1.00  0.00    -0.181 A  
HETATM   12  C   UNL     1      -9.461   2.424  68.442  1.00  0.00    -0.219 A  
BRANCH   9  13
HETATM   13  C   UNL     1      -9.107   5.885  69.915  1.00  0.00    -0.146 C  
HETATM   14  O   UNL     1      -8.192   6.058  70.701  1.00  0.00    -0.116 OA 
BRANCH  13  15
HETATM   15  O   UNL     1     -10.273   6.584  69.883  1.00  0.00    -0.176 OA 
BRANCH  15  16
HETATM   16  C   UNL     1     -10.431   7.574  70.913  1.00  0.00    -0.213 C  
BRANCH  16  17
HETATM   17  C   UNL     1     -10.097   8.920  70.374  1.00  0.00    -0.196 C  
HETATM   18  O   UNL     1     -10.187  11.038  69.664  1.00  0.00    -0.083 OA 
HETATM   19  C   UNL     1     -10.877   9.959  70.166  1.00  0.00    -0.304 C  
HETATM   20  O   UNL     1      -8.795   9.201  69.993  1.00  0.00    -0.151 OA 
HETATM   21  C   UNL     1     -12.296  10.153  70.484  1.00  0.00    -0.330 C  
HETATM   22  C   UNL     1      -8.902  10.528  69.593  1.00  0.00     0.067 C  
HETATM   23  O   UNL     1      -7.950  11.192  69.199  1.00  0.00    -0.125 OA 
ENDBRANCH  16  17
ENDBRANCH  15  16
ENDBRANCH  13  15
ENDBRANCH   9  13
BRANCH   8  24
HETATM   24  C   UNL     1      -7.733   7.305  67.183  1.00  0.00    -0.112 C  
BRANCH  24  25
HETATM   25  C   UNL     1      -8.492   8.494  66.638  1.00  0.00    -0.116 A  
HETATM   26  C   UNL     1      -7.900   9.561  65.963  1.00  0.00    -0.100 A  
HETATM   27  C   UNL     1     -10.654   9.600  66.364  1.00  0.00    -0.097 A  
HETATM   28  C   UNL     1     -10.074  10.689  65.696  1.00  0.00    -0.335 A  
HETATM   29  C   UNL     1      -9.883   8.520  66.814  1.00  0.00    -0.327 A  
HETATM   30  C   UNL     1      -8.688  10.600  65.451  1.00  0.00    -0.195 A  
BRANCH  28  31
HETATM   31  C   UNL     1     -10.891  11.842  65.197  1.00  0.00    -0.350 A  
HETATM   32  C   UNL     1     -12.382  12.695  63.420  1.00  0.00    -0.553 A  
HETATM   33  C   UNL     1     -11.800  11.636  64.127  1.00  0.00    -0.264 A  
HETATM   34  C   UNL     1     -12.134  14.001  63.806  1.00  0.00    -0.265 A  
HETATM   35  C   UNL     1     -11.336  14.241  64.921  1.00  0.00    -0.372 A  
HETATM   36  C   UNL     1     -10.733  13.180  65.627  1.00  0.00    -0.294 A  
BRANCH  36  37
HETATM   37  C   UNL     1      -9.980  13.587  66.829  1.00  0.00    -0.269 C  
HETATM   38  N   UNL     1     -10.455  13.611  68.030  1.00  0.00    -0.242 NA 
HETATM   39  O   UNL     1      -9.368  14.048  68.851  1.00  0.00    -0.110 OA 
HETATM   40  C   UNL     1      -8.303  14.238  68.009  1.00  0.00    -0.157 C  
HETATM   41  N   UNL     1      -8.689  13.934  66.761  1.00  0.00    -0.155 NA 
HETATM   42  O   UNL     1      -7.196  14.640  68.340  1.00  0.00    -0.104 OA 
ENDBRANCH  36  37
ENDBRANCH  28  31
ENDBRANCH  24  25
ENDBRANCH   8  24
ENDBRANCH   3   4
ENDBRANCH   2   3
TORSDOF 10
ENDMDL
MODEL      148
REMARK 921   NORMALIZED FREE ENERGY PREDICTED BY IDOCK:   -4.87 KCAL/MOL
REMARK 922        TOTAL FREE ENERGY PREDICTED BY IDOCK:  -10.64 KCAL/MOL
REMARK 923 INTER-LIGAND FREE ENERGY PREDICTED BY IDOCK:   -8.07 KCAL/MOL
REMARK 924 INTRA-LIGAND FREE ENERGY PREDICTED BY IDOCK:   -2.58 KCAL/MOL
REMARK 927      BINDING AFFINITY PREDICTED BY RF-SCORE:    0.00 PKD
ROOT
HETATM    1  C   UNL     1      -8.949   9.852  63.647  1.00  0.00    -0.278 C  
HETATM    2  C   UNL     1      -7.888   9.066  62.897  1.00  0.00    -0.131 C  
ENDROOT
BRANCH   2   3
HETATM    3  O   UNL     1      -7.218   8.187  63.805  1.00  0.00    -0.087 OA 
BRANCH   3   4
HETATM    4  C   UNL     1      -7.770   6.976  63.896  1.00  0.00    -0.119 A  
HETATM    5  N   UNL     1      -7.971   6.164  62.891  1.00  0.00    -0.103 NA 
HETATM    6  C   UNL     1      -8.535   5.048  63.444  1.00  0.00    -0.123 A  
HETATM    7  C   UNL     1      -8.702   5.174  64.830  1.00  0.00    -0.140 A  
HETATM    8  N   UNL     1      -8.154   6.418  65.094  1.00  0.00    -0.133 NA 
HETATM    9  C   UNL     1      -9.314   4.138  65.582  1.00  0.00    -0.162 A  
HETATM   10  C   UNL     1      -9.678   2.962  64.891  1.00  0.00    -0.016 A  
HETATM   11  C   UNL     1      -8.906   3.863  62.789  1.00  0.00    -0.097 A  
HETATM   12  C   UNL     1      -9.464   2.820  63.523  1.00  0.00    -0.100 A  
BRANCH   9  13
HETATM   13  C   UNL     1      -9.506   4.170  67.051  1.00  0.00    -0.192 C  
HETATM   14  O   UNL     1     -10.334   4.868  67.608  1.00  0.00    -0.118 OA 
BRANCH  13  15
HETATM   15  O   UNL     1      -8.588   3.376  67.667  1.00  0.00    -0.093 OA 
BRANCH  15  16
HETATM   16  C   UNL     1      -8.919   2.970  69.006  1.00  0.00    -0.124 C  
BRANCH  16  17
HETATM   17  C   UNL     1      -8.446   3.997  69.974  1.00  0.00    -0.064 C  
HETATM   18  O   UNL     1      -8.102   5.232  71.805  1.00  0.00    -0.112 OA 
HETATM   19  C   UNL     1      -8.771   4.172  71.237  1.00  0.00    -0.101 C  
HETATM   20  O   UNL     1      -7.541   4.961  69.562  1.00  0.00    -0.056 OA 
HETATM   21  C   UNL     1      -9.622   3.362  72.115  1.00  0.00    -0.206 C  
HETATM   22  C   UNL     1      -7.341   5.676  70.738  1.00  0.00    -0.084 C  
HETATM   23  O   UNL     1      -6.570   6.624  70.827  1.00  0.00    -0.050 OA 
ENDBRANCH  16  17
ENDBRANCH  15  16
ENDBRANCH  13  15
ENDBRANCH   9  13
BRANCH   8  24
HETATM   24  C   UNL     1      -7.798   6.999  66.379  1.00  0.00    -0.106 C  
BRANCH  24  25
HETATM   25  C   UNL     1      -8.577   8.231  66.780  1.00  0.00    -0.131 A  
HETATM   26  C   UNL     1      -7.996   9.408  67.251  1.00  0.00    -0.106 A  
HETATM   27  C   UNL     1     -10.768   9.282  67.038  1.00  0.00    -0.199 A  
HETATM   28  C   UNL     1     -10.201  10.469  67.529  1.00  0.00    -0.245 A  
HETATM   29  C   UNL     1      -9.973   8.192  66.661  1.00  0.00    -0.339 A  
HETATM   30  C   UNL     1      -8.792  10.519  67.555  1.00  0.00    -0.131 A  
BRANCH  28  31
HETATM   31  C   UNL     1     -11.040  11.647  67.922  1.00  0.00    -0.306 A  
HETATM   32  C   UNL     1     -11.703  13.970  67.401  1.00  0.00    -0.421 A  
HETATM   33  C   UNL     1     -11.186  12.729  67.015  1.00  0.00    -0.336 A  
HETATM   34  C   UNL     1     -12.165  14.153  68.693  1.00  0.00    -0.216 A  
HETATM   35  C   UNL     1     -12.143  13.082  69.581  1.00  0.00    -0.304 A  
HETATM   36  C   UNL     1     -11.607  11.833  69.203  1.00  0.00    -0.372 A  
BRANCH  36  37
HETATM   37  C   UNL     1     -11.724  10.777  70.226  1.00  0.00    -0.352 C  
HETATM   38  N   UNL     1     -10.744  10.062  70.671  1.00  0.00    -0.297 NA 
HETATM   39  O   UNL     1     -11.329   9.197  71.649  1.00  0.00    -0.330 OA 
HETATM   40  C   UNL     1     -12.662   9.513  71.693  1.00  0.00    -0.388 C  
HETATM   41  N   UNL     1     -12.893  10.504  70.820  1.00  0.00    -0.374 NA 
HETATM   42  O   UNL     1     -13.501   8.965  72.394  1.00  0.00    -0.425 OA 
ENDBRANCH  36  37
ENDBRANCH  28  31
ENDBRANCH  24  25
ENDBRANCH   8  24
ENDBRANCH   3   4
ENDBRANCH   2   3
TORSDOF 10
ENDMDL
MODEL      149
REMARK 921   NORMALIZED FREE ENERGY PREDICTED BY IDOCK:   -4.87 KCAL/MOL
REMARK 922        TOTAL FREE ENERGY PREDICTED BY IDOCK:  -10.63 KCAL/MOL
REMARK 923 INTER-LIGAND FREE ENERGY PREDICTED BY IDOCK:   -8.77 KCAL/MOL
REMARK 924 INTRA-LIGAND FREE ENERGY PREDICTED BY IDOCK:   -1.86 KCAL/MOL
REMARK 927      BINDING AFFINITY PREDICTED BY RF-SCORE:    0.00 PKD
ROOT
HETATM    1  C   UNL     1     -11.018  13.570  64.983  1.00  0.00    -0.342 C  
HETATM    2  C   UNL     1     -12.180  13.964  65.878  1.00  0.00    -0.467 C  
ENDROOT
BRANCH   2   3
HETATM    3  O   UNL     1     -11.975  15.291  66.366  1.00  0.00     0.056 OA 
BRANCH   3   4
HETATM    4  C   UNL     1     -10.692  15.622  66.519  1.00  0.00    -0.293 A  
HETATM    5  N   UNL     1     -10.033  16.453  65.754  1.00  0.00    -0.478 NA 
HETATM    6  C   UNL     1      -8.774  16.503  66.283  1.00  0.00    -0.333 A  
HETATM    7  C   UNL     1      -8.640  15.669  67.402  1.00  0.00    -0.175 A  
HETATM    8  N   UNL     1      -9.915  15.149  67.552  1.00  0.00    -0.225 NA 
HETATM    9  C   UNL     1      -7.393  15.546  68.068  1.00  0.00    -0.139 A  
HETATM   10  C   UNL     1      -6.327  16.343  67.600  1.00  0.00    -0.177 A  
HETATM   11  C   UNL     1      -7.693  17.285  65.847  1.00  0.00    -0.064 A  
HETATM   12  C   UNL     1      -6.476  17.209  66.520  1.00  0.00    -0.268 A  
BRANCH   9  13
HETATM   13  C   UNL     1      -7.165  14.714  69.272  1.00  0.00    -0.156 C  
HETATM   14  O   UNL     1      -7.277  15.130  70.411  1.00  0.00     0.084 OA 
BRANCH  13  15
HETATM   15  O   UNL     1      -6.750  13.468  68.917  1.00  0.00    -0.099 OA 
BRANCH  15  16
HETATM   16  C   UNL     1      -6.123  12.702  69.959  1.00  0.00    -0.115 C  
BRANCH  16  17
HETATM   17  C   UNL     1      -6.180  11.253  69.622  1.00  0.00    -0.113 C  
HETATM   18  O   UNL     1      -6.093   9.283  68.571  1.00  0.00    -0.044 OA 
HETATM   19  C   UNL     1      -5.950  10.648  68.477  1.00  0.00    -0.039 C  
HETATM   20  O   UNL     1      -6.538  10.338  70.598  1.00  0.00    -0.257 OA 
HETATM   21  C   UNL     1      -5.476  11.191  67.200  1.00  0.00    -0.060 C  
HETATM   22  C   UNL     1      -6.437   9.137  69.903  1.00  0.00    -0.042 C  
HETATM   23  O   UNL     1      -6.645   8.044  70.415  1.00  0.00    -0.037 OA 
ENDBRANCH  16  17
ENDBRANCH  15  16
ENDBRANCH  13  15
ENDBRANCH   9  13
BRANCH   8  24
HETATM   24  C   UNL     1     -10.472  14.426  68.684  1.00  0.00    -0.247 C  
BRANCH  24  25
HETATM   25  C   UNL     1     -10.530  12.922  68.538  1.00  0.00    -0.260 A  
HETATM   26  C   UNL     1     -11.609  12.135  68.939  1.00  0.00    -0.377 A  
HETATM   27  C   UNL     1      -9.395  10.885  67.807  1.00  0.00    -0.162 A  
HETATM   28  C   UNL     1     -10.466  10.075  68.219  1.00  0.00    -0.246 A  
HETATM   29  C   UNL     1      -9.432  12.278  67.952  1.00  0.00    -0.200 A  
HETATM   30  C   UNL     1     -11.596  10.752  68.723  1.00  0.00    -0.350 A  
BRANCH  28  31
HETATM   31  C   UNL     1     -10.445   8.586  68.056  1.00  0.00    -0.249 A  
HETATM   32  C   UNL     1     -10.527   6.685  66.479  1.00  0.00    -0.117 A  
HETATM   33  C   UNL     1     -10.277   8.033  66.760  1.00  0.00    -0.367 A  
HETATM   34  C   UNL     1     -10.883   5.822  67.502  1.00  0.00    -0.268 A  
HETATM   35  C   UNL     1     -10.949   6.304  68.805  1.00  0.00    -0.424 A  
HETATM   36  C   UNL     1     -10.715   7.664  69.093  1.00  0.00    -0.153 A  
BRANCH  36  37
HETATM   37  C   UNL     1     -10.745   8.006  70.527  1.00  0.00    -0.229 C  
HETATM   38  N   UNL     1     -11.792   8.401  71.175  1.00  0.00    -0.287 NA 
HETATM   39  O   UNL     1     -11.346   8.591  72.521  1.00  0.00    -0.368 OA 
HETATM   40  C   UNL     1     -10.016   8.262  72.535  1.00  0.00    -0.303 C  
HETATM   41  N   UNL     1      -9.658   7.885  71.299  1.00  0.00    -0.156 NA 
HETATM   42  O   UNL     1      -9.276   8.325  73.508  1.00  0.00    -0.225 OA 
ENDBRANCH  36  37
ENDBRANCH  28  31
ENDBRANCH  24  25
ENDBRANCH   8  24
ENDBRANCH   3   4
ENDBRANCH   2   3
TORSDOF 10
ENDMDL
MODEL      150
REMARK 921   NORMALIZED FREE ENERGY PREDICTED BY IDOCK:   -4.84 KCAL/MOL
REMARK 922        TOTAL FREE ENERGY PREDICTED BY IDOCK:  -10.59 KCAL/MOL
REMARK 923 INTER-LIGAND FREE ENERGY PREDICTED BY IDOCK:   -9.22 KCAL/MOL
REMARK 924 INTRA-LIGAND FREE ENERGY PREDICTED BY IDOCK:   -1.38 KCAL/MOL
REMARK 927      BINDING AFFINITY PREDICTED BY RF-SCORE:    0.00 PKD
ROOT
HETATM    1  C   UNL     1      -9.163   7.787  73.276  1.00  0.00    -0.318 C  
HETATM    2  C   UNL     1      -9.848   8.637  72.220  1.00  0.00    -0.289 C  
ENDROOT
BRANCH   2   3
HETATM    3  O   UNL     1      -8.865   9.386  71.502  1.00  0.00    -0.268 OA 
BRANCH   3   4
HETATM    4  C   UNL     1      -8.292   8.712  70.503  1.00  0.00    -0.140 A  
HETATM    5  N   UNL     1      -7.202   7.996  70.607  1.00  0.00    -0.051 NA 
HETATM    6  C   UNL     1      -6.995   7.480  69.359  1.00  0.00    -0.057 A  
HETATM    7  C   UNL     1      -7.976   7.897  68.448  1.00  0.00    -0.122 A  
HETATM    8  N   UNL     1      -8.825   8.657  69.235  1.00  0.00    -0.136 NA 
HETATM    9  C   UNL     1      -7.912   7.504  67.086  1.00  0.00    -0.117 A  
HETATM   10  C   UNL     1      -6.868   6.631  66.711  1.00  0.00    -0.065 A  
HETATM   11  C   UNL     1      -5.973   6.609  68.952  1.00  0.00    -0.022 A  
HETATM   12  C   UNL     1      -5.925   6.178  67.628  1.00  0.00    -0.017 A  
BRANCH   9  13
HETATM   13  C   UNL     1      -8.916   7.870  66.060  1.00  0.00    -0.154 C  
HETATM   14  O   UNL     1      -8.691   8.633  65.137  1.00  0.00    -0.184 OA 
BRANCH  13  15
HETATM   15  O   UNL     1     -10.117   7.296  66.345  1.00  0.00    -0.131 OA 
BRANCH  15  16
HETATM   16  C   UNL     1     -10.126   5.860  66.376  1.00  0.00    -0.110 C  
BRANCH  16  17
HETATM   17  C   UNL     1     -10.079   5.387  67.786  1.00  0.00    -0.171 C  
HETATM   18  O   UNL     1      -9.637   4.259  69.664  1.00  0.00    -0.175 OA 
HETATM   19  C   UNL     1      -9.443   4.359  68.306  1.00  0.00    -0.153 C  
HETATM   20  O   UNL     1     -10.798   6.062  68.759  1.00  0.00    -0.285 OA 
HETATM   21  C   UNL     1      -8.508   3.414  67.686  1.00  0.00    -0.108 C  
HETATM   22  C   UNL     1     -10.464   5.342  69.901  1.00  0.00    -0.308 C  
HETATM   23  O   UNL     1     -10.872   5.629  71.020  1.00  0.00    -0.260 OA 
ENDBRANCH  16  17
ENDBRANCH  15  16
ENDBRANCH  13  15
ENDBRANCH   9  13
BRANCH   8  24
HETATM   24  C   UNL     1     -10.160   9.142  68.925  1.00  0.00    -0.197 C  
BRANCH  24  25
HETATM   25  C   UNL     1     -10.264  10.615  68.602  1.00  0.00    -0.196 A  
HETATM   26  C   UNL     1      -9.169  11.461  68.432  1.00  0.00    -0.183 A  
HETATM   27  C   UNL     1     -11.728  12.527  68.181  1.00  0.00    -0.400 A  
HETATM   28  C   UNL     1     -10.637  13.396  68.022  1.00  0.00    -0.252 A  
HETATM   29  C   UNL     1     -11.546  11.164  68.453  1.00  0.00    -0.376 A  
HETATM   30  C   UNL     1      -9.359  12.805  68.088  1.00  0.00    -0.214 A  
BRANCH  28  31
HETATM   31  C   UNL     1     -10.819  14.852  67.718  1.00  0.00    -0.286 A  
HETATM   32  C   UNL     1     -10.282  16.721  66.193  1.00  0.00    -0.363 A  
HETATM   33  C   UNL     1     -10.413  15.352  66.454  1.00  0.00    -0.307 A  
HETATM   34  C   UNL     1     -10.626  17.644  67.165  1.00  0.00    -0.277 A  
HETATM   35  C   UNL     1     -11.136  17.195  68.379  1.00  0.00    -0.107 A  
HETATM   36  C   UNL     1     -11.255  15.817  68.655  1.00  0.00    -0.351 A  
BRANCH  36  37
HETATM   37  C   UNL     1     -11.882  15.499  69.951  1.00  0.00    -0.362 C  
HETATM   38  N   UNL     1     -12.954  14.794  70.105  1.00  0.00    -0.147 NA 
HETATM   39  O   UNL     1     -13.164  14.740  71.518  1.00  0.00    -0.316 OA 
HETATM   40  C   UNL     1     -12.137  15.447  72.087  1.00  0.00    -0.407 C  
HETATM   41  N   UNL     1     -11.339  15.898  71.108  1.00  0.00    -0.391 NA 
HETATM   42  O   UNL     1     -11.988  15.649  73.284  1.00  0.00    -0.445 OA 
ENDBRANCH  36  37
ENDBRANCH  28  31
ENDBRANCH  24  25
ENDBRANCH   8  24
ENDBRANCH   3   4
ENDBRANCH   2   3
TORSDOF 10
ENDMDL
MODEL      151
REMARK 921   NORMALIZED FREE ENERGY PREDICTED BY IDOCK:   -4.83 KCAL/MOL
REMARK 922        TOTAL FREE ENERGY PREDICTED BY IDOCK:  -10.58 KCAL/MOL
REMARK 923 INTER-LIGAND FREE ENERGY PREDICTED BY IDOCK:   -7.99 KCAL/MOL
REMARK 924 INTRA-LIGAND FREE ENERGY PREDICTED BY IDOCK:   -2.59 KCAL/MOL
REMARK 927      BINDING AFFINITY PREDICTED BY RF-SCORE:    0.00 PKD
ROOT
HETATM    1  C   UNL     1     -10.605   5.019  74.185  1.00  0.00    -0.338 C  
HETATM    2  C   UNL     1     -11.371   5.531  72.977  1.00  0.00    -0.266 C  
ENDROOT
BRANCH   2   3
HETATM    3  O   UNL     1     -10.498   6.312  72.157  1.00  0.00    -0.193 OA 
BRANCH   3   4
HETATM    4  C   UNL     1      -9.786   5.597  71.286  1.00  0.00    -0.167 A  
HETATM    5  N   UNL     1     -10.022   4.352  70.964  1.00  0.00    -0.192 NA 
HETATM    6  C   UNL     1      -9.067   4.037  70.038  1.00  0.00    -0.119 A  
HETATM    7  C   UNL     1      -8.203   5.112  69.786  1.00  0.00    -0.089 A  
HETATM    8  N   UNL     1      -8.726   6.120  70.579  1.00  0.00    -0.141 NA 
HETATM    9  C   UNL     1      -7.115   4.970  68.886  1.00  0.00    -0.053 A  
HETATM   10  C   UNL     1      -6.985   3.735  68.215  1.00  0.00    -0.051 A  
HETATM   11  C   UNL     1      -8.911   2.824  69.349  1.00  0.00    -0.171 A  
HETATM   12  C   UNL     1      -7.875   2.687  68.428  1.00  0.00    -0.057 A  
BRANCH   9  13
HETATM   13  C   UNL     1      -6.170   6.056  68.537  1.00  0.00    -0.032 C  
HETATM   14  O   UNL     1      -5.637   6.778  69.361  1.00  0.00    -0.014 OA 
BRANCH  13  15
HETATM   15  O   UNL     1      -6.051   6.166  67.186  1.00  0.00    -0.020 OA 
BRANCH  15  16
HETATM   16  C   UNL     1      -6.976   7.066  66.553  1.00  0.00    -0.069 C  
BRANCH  16  17
HETATM   17  C   UNL     1      -7.610   6.396  65.385  1.00  0.00    -0.089 C  
HETATM   18  O   UNL     1      -8.310   5.857  63.332  1.00  0.00    -0.090 OA 
HETATM   19  C   UNL     1      -7.624   6.753  64.119  1.00  0.00    -0.105 C  
HETATM   20  O   UNL     1      -8.327   5.226  65.573  1.00  0.00    -0.119 OA 
HETATM   21  C   UNL     1      -6.945   7.863  63.442  1.00  0.00    -0.076 C  
HETATM   22  C   UNL     1      -8.709   4.922  64.271  1.00  0.00    -0.130 C  
HETATM   23  O   UNL     1      -9.353   3.922  63.974  1.00  0.00    -0.135 OA 
ENDBRANCH  16  17
ENDBRANCH  15  16
ENDBRANCH  13  15
ENDBRANCH   9  13
BRANCH   8  24
HETATM   24  C   UNL     1      -8.427   7.542  70.554  1.00  0.00    -0.133 C  
BRANCH  24  25
HETATM   25  C   UNL     1      -8.915   8.294  69.336  1.00  0.00    -0.147 A  
HETATM   26  C   UNL     1     -10.014   7.914  68.567  1.00  0.00    -0.200 A  
HETATM   27  C   UNL     1      -8.596  10.193  67.831  1.00  0.00    -0.118 A  
HETATM   28  C   UNL     1      -9.690   9.817  67.036  1.00  0.00    -0.233 A  
HETATM   29  C   UNL     1      -8.224   9.456  68.963  1.00  0.00    -0.108 A  
HETATM   30  C   UNL     1     -10.423   8.697  67.481  1.00  0.00    -0.335 A  
BRANCH  28  31
HETATM   31  C   UNL     1     -10.106  10.605  65.832  1.00  0.00    -0.321 A  
HETATM   32  C   UNL     1      -9.876  10.915  63.391  1.00  0.00    -0.408 A  
HETATM   33  C   UNL     1      -9.782  10.120  64.539  1.00  0.00    -0.361 A  
HETATM   34  C   UNL     1     -10.370  12.205  63.485  1.00  0.00    -0.473 A  
HETATM   35  C   UNL     1     -10.804  12.679  64.719  1.00  0.00    -0.332 A  
HETATM   36  C   UNL     1     -10.697  11.889  65.882  1.00  0.00    -0.326 A  
BRANCH  36  37
HETATM   37  C   UNL     1     -11.269  12.499  67.097  1.00  0.00    -0.300 C  
HETATM   38  N   UNL     1     -12.141  11.940  67.869  1.00  0.00    -0.522 NA 
HETATM   39  O   UNL     1     -12.377  12.889  68.912  1.00  0.00    -0.093 OA 
HETATM   40  C   UNL     1     -11.570  13.964  68.643  1.00  0.00    -0.328 C  
HETATM   41  N   UNL     1     -10.876  13.705  67.526  1.00  0.00    -0.262 NA 
HETATM   42  O   UNL     1     -11.513  14.994  69.300  1.00  0.00    -0.272 OA 
ENDBRANCH  36  37
ENDBRANCH  28  31
ENDBRANCH  24  25
ENDBRANCH   8  24
ENDBRANCH   3   4
ENDBRANCH   2   3
TORSDOF 10
ENDMDL
MODEL      152
REMARK 921   NORMALIZED FREE ENERGY PREDICTED BY IDOCK:   -4.81 KCAL/MOL
REMARK 922        TOTAL FREE ENERGY PREDICTED BY IDOCK:  -10.55 KCAL/MOL
REMARK 923 INTER-LIGAND FREE ENERGY PREDICTED BY IDOCK:   -9.46 KCAL/MOL
REMARK 924 INTRA-LIGAND FREE ENERGY PREDICTED BY IDOCK:   -1.08 KCAL/MOL
REMARK 927      BINDING AFFINITY PREDICTED BY RF-SCORE:    0.00 PKD
ROOT
HETATM    1  C   UNL     1     -12.108  12.465  69.496  1.00  0.00    -0.250 C  
HETATM    2  C   UNL     1     -12.059  13.980  69.577  1.00  0.00    -0.347 C  
ENDROOT
BRANCH   2   3
HETATM    3  O   UNL     1     -11.208  14.485  68.545  1.00  0.00    -0.244 OA 
BRANCH   3   4
HETATM    4  C   UNL     1     -11.305  13.825  67.390  1.00  0.00    -0.324 A  
HETATM    5  N   UNL     1     -12.272  13.968  66.521  1.00  0.00    -0.459 NA 
HETATM    6  C   UNL     1     -11.958  13.120  65.496  1.00  0.00    -0.412 A  
HETATM    7  C   UNL     1     -10.768  12.419  65.739  1.00  0.00    -0.267 A  
HETATM    8  N   UNL     1     -10.350  12.934  66.955  1.00  0.00    -0.242 NA 
HETATM    9  C   UNL     1     -10.294  11.455  64.812  1.00  0.00    -0.349 A  
HETATM   10  C   UNL     1     -11.029  11.286  63.619  1.00  0.00    -0.369 A  
HETATM   11  C   UNL     1     -12.661  12.930  64.297  1.00  0.00    -0.286 A  
HETATM   12  C   UNL     1     -12.182  12.020  63.357  1.00  0.00    -0.627 A  
BRANCH   9  13
HETATM   13  C   UNL     1      -9.036  10.688  64.970  1.00  0.00    -0.202 C  
HETATM   14  O   UNL     1      -7.950  11.088  64.590  1.00  0.00     0.190 OA 
BRANCH  13  15
HETATM   15  O   UNL     1      -9.288   9.471  65.523  1.00  0.00    -0.218 OA 
BRANCH  15  16
HETATM   16  C   UNL     1      -8.442   9.103  66.625  1.00  0.00    -0.123 C  
BRANCH  16  17
HETATM   17  C   UNL     1      -7.829   7.771  66.366  1.00  0.00    -0.094 C  
HETATM   18  O   UNL     1      -7.065   5.680  66.558  1.00  0.00    -0.069 OA 
HETATM   19  C   UNL     1      -7.665   6.750  67.179  1.00  0.00    -0.104 C  
HETATM   20  O   UNL     1      -7.314   7.487  65.111  1.00  0.00    -0.066 OA 
HETATM   21  C   UNL     1      -8.115   6.562  68.563  1.00  0.00    -0.114 C  
HETATM   22  C   UNL     1      -6.884   6.175  65.278  1.00  0.00    -0.048 C  
HETATM   23  O   UNL     1      -6.379   5.513  64.380  1.00  0.00    -0.025 OA 
ENDBRANCH  16  17
ENDBRANCH  15  16
ENDBRANCH  13  15
ENDBRANCH   9  13
BRANCH   8  24
HETATM   24  C   UNL     1      -9.055  12.795  67.603  1.00  0.00    -0.193 C  
BRANCH  24  25
HETATM   25  C   UNL     1      -8.419  14.081  68.079  1.00  0.00    -0.171 A  
HETATM   26  C   UNL     1      -8.170  14.385  69.417  1.00  0.00     0.217 A  
HETATM   27  C   UNL     1      -7.474  16.252  67.474  1.00  0.00    -0.172 A  
HETATM   28  C   UNL     1      -7.231  16.582  68.817  1.00  0.00    -0.197 A  
HETATM   29  C   UNL     1      -8.044  15.024  67.112  1.00  0.00    -0.245 A  
HETATM   30  C   UNL     1      -7.533  15.582  69.764  1.00  0.00    -0.081 A  
BRANCH  28  31
HETATM   31  C   UNL     1      -6.609  17.885  69.215  1.00  0.00    -0.235 A  
HETATM   32  C   UNL     1      -5.153  19.067  70.824  1.00  0.00    -0.235 A  
HETATM   33  C   UNL     1      -5.582  17.894  70.195  1.00  0.00    -0.243 A  
HETATM   34  C   UNL     1      -5.681  20.288  70.442  1.00  0.00    -0.371 A  
HETATM   35  C   UNL     1      -6.609  20.333  69.406  1.00  0.00    -0.234 A  
HETATM   36  C   UNL     1      -7.059  19.153  68.779  1.00  0.00    -0.366 A  
BRANCH  36  37
HETATM   37  C   UNL     1      -7.983  19.368  67.649  1.00  0.00    -0.283 C  
HETATM   38  N   UNL     1      -7.623  19.580  66.426  1.00  0.00    -0.265 NA 
HETATM   39  O   UNL     1      -8.847  19.709  65.696  1.00  0.00    -0.328 OA 
HETATM   40  C   UNL     1      -9.857  19.540  66.607  1.00  0.00    -0.394 C  
HETATM   41  N   UNL     1      -9.310  19.312  67.810  1.00  0.00    -0.305 NA 
HETATM   42  O   UNL     1     -11.054  19.608  66.365  1.00  0.00    -0.313 OA 
ENDBRANCH  36  37
ENDBRANCH  28  31
ENDBRANCH  24  25
ENDBRANCH   8  24
ENDBRANCH   3   4
ENDBRANCH   2   3
TORSDOF 10
ENDMDL
MODEL      153
REMARK 921   NORMALIZED FREE ENERGY PREDICTED BY IDOCK:   -4.79 KCAL/MOL
REMARK 922        TOTAL FREE ENERGY PREDICTED BY IDOCK:  -10.51 KCAL/MOL
REMARK 923 INTER-LIGAND FREE ENERGY PREDICTED BY IDOCK:   -8.25 KCAL/MOL
REMARK 924 INTRA-LIGAND FREE ENERGY PREDICTED BY IDOCK:   -2.25 KCAL/MOL
REMARK 927      BINDING AFFINITY PREDICTED BY RF-SCORE:    0.00 PKD
ROOT
HETATM    1  C   UNL     1     -10.629   5.888  68.765  1.00  0.00    -0.340 C  
HETATM    2  C   UNL     1     -11.567   6.573  69.744  1.00  0.00    -0.327 C  
ENDROOT
BRANCH   2   3
HETATM    3  O   UNL     1     -11.252   6.157  71.075  1.00  0.00    -0.296 OA 
BRANCH   3   4
HETATM    4  C   UNL     1      -9.944   6.072  71.322  1.00  0.00    -0.184 A  
HETATM    5  N   UNL     1      -9.194   5.034  71.053  1.00  0.00    -0.143 NA 
HETATM    6  C   UNL     1      -7.937   5.391  71.454  1.00  0.00    -0.115 A  
HETATM    7  C   UNL     1      -7.904   6.683  71.999  1.00  0.00    -0.097 A  
HETATM    8  N   UNL     1      -9.214   7.110  71.855  1.00  0.00    -0.139 NA 
HETATM    9  C   UNL     1      -6.697   7.220  72.514  1.00  0.00    -0.059 A  
HETATM   10  C   UNL     1      -5.532   6.433  72.392  1.00  0.00    -0.036 A  
HETATM   11  C   UNL     1      -6.758   4.637  71.345  1.00  0.00    -0.031 A  
HETATM   12  C   UNL     1      -5.557   5.172  71.804  1.00  0.00    -0.009 A  
BRANCH   9  13
HETATM   13  C   UNL     1      -6.561   8.582  73.081  1.00  0.00    -0.064 C  
HETATM   14  O   UNL     1      -6.458   8.810  74.274  1.00  0.00    -0.202 OA 
BRANCH  13  15
HETATM   15  O   UNL     1      -6.642   9.517  72.096  1.00  0.00    -0.281 OA 
BRANCH  15  16
HETATM   16  C   UNL     1      -5.385  10.023  71.616  1.00  0.00    -0.047 C  
BRANCH  16  17
HETATM   17  C   UNL     1      -5.471  10.278  70.152  1.00  0.00    -0.049 C  
HETATM   18  O   UNL     1      -5.712  11.227  68.143  1.00  0.00    -0.046 OA 
HETATM   19  C   UNL     1      -5.740  11.394  69.509  1.00  0.00    -0.063 C  
HETATM   20  O   UNL     1      -5.269   9.235  69.263  1.00  0.00    -0.036 OA 
HETATM   21  C   UNL     1      -5.945  12.753  70.019  1.00  0.00    -0.142 C  
HETATM   22  C   UNL     1      -5.398   9.884  68.040  1.00  0.00    -0.039 C  
HETATM   23  O   UNL     1      -5.260   9.319  66.961  1.00  0.00    -0.035 OA 
ENDBRANCH  16  17
ENDBRANCH  15  16
ENDBRANCH  13  15
ENDBRANCH   9  13
BRANCH   8  24
HETATM   24  C   UNL     1      -9.751   8.454  71.995  1.00  0.00    -0.283 C  
BRANCH  24  25
HETATM   25  C   UNL     1      -9.924   9.228  70.708  1.00  0.00    -0.357 A  
HETATM   26  C   UNL     1      -8.971   9.284  69.691  1.00  0.00    -0.164 A  
HETATM   27  C   UNL     1     -11.351  10.690  69.366  1.00  0.00    -0.348 A  
HETATM   28  C   UNL     1     -10.397  10.770  68.339  1.00  0.00    -0.199 A  
HETATM   29  C   UNL     1     -11.125   9.926  70.519  1.00  0.00    -0.398 A  
HETATM   30  C   UNL     1      -9.235   9.989  68.510  1.00  0.00    -0.141 A  
BRANCH  28  31
HETATM   31  C   UNL     1     -10.633  11.572  67.096  1.00  0.00    -0.273 A  
HETATM   32  C   UNL     1     -10.614  11.595  64.625  1.00  0.00    -0.366 A  
HETATM   33  C   UNL     1     -10.683  10.909  65.842  1.00  0.00    -0.193 A  
HETATM   34  C   UNL     1     -10.567  12.979  64.615  1.00  0.00    -0.397 A  
HETATM   35  C   UNL     1     -10.629  13.670  65.821  1.00  0.00    -0.285 A  
HETATM   36  C   UNL     1     -10.682  12.984  67.052  1.00  0.00    -0.270 A  
BRANCH  36  37
HETATM   37  C   UNL     1     -10.822  13.852  68.236  1.00  0.00    -0.249 C  
HETATM   38  N   UNL     1      -9.840  14.378  68.892  1.00  0.00    -0.200 NA 
HETATM   39  O   UNL     1     -10.455  15.143  69.932  1.00  0.00    -0.255 OA 
HETATM   40  C   UNL     1     -11.808  14.993  69.771  1.00  0.00    -0.321 C  
HETATM   41  N   UNL     1     -12.024  14.205  68.707  1.00  0.00    -0.343 NA 
HETATM   42  O   UNL     1     -12.670  15.478  70.491  1.00  0.00    -0.434 OA 
ENDBRANCH  36  37
ENDBRANCH  28  31
ENDBRANCH  24  25
ENDBRANCH   8  24
ENDBRANCH   3   4
ENDBRANCH   2   3
TORSDOF 10
ENDMDL
MODEL      154
REMARK 921   NORMALIZED FREE ENERGY PREDICTED BY IDOCK:   -4.73 KCAL/MOL
REMARK 922        TOTAL FREE ENERGY PREDICTED BY IDOCK:  -10.41 KCAL/MOL
REMARK 923 INTER-LIGAND FREE ENERGY PREDICTED BY IDOCK:   -8.46 KCAL/MOL
REMARK 924 INTRA-LIGAND FREE ENERGY PREDICTED BY IDOCK:   -1.95 KCAL/MOL
REMARK 927      BINDING AFFINITY PREDICTED BY RF-SCORE:    0.00 PKD
ROOT
HETATM    1  C   UNL     1     -12.185  13.979  63.977  1.00  0.00    -0.395 C  
HETATM    2  C   UNL     1     -12.377  12.506  64.288  1.00  0.00    -0.456 C  
ENDROOT
BRANCH   2   3
HETATM    3  O   UNL     1     -12.481  12.328  65.702  1.00  0.00    -0.591 OA 
BRANCH   3   4
HETATM    4  C   UNL     1     -11.370  12.637  66.372  1.00  0.00    -0.331 A  
HETATM    5  N   UNL     1     -11.212  13.701  67.117  1.00  0.00    -0.300 NA 
HETATM    6  C   UNL     1      -9.944  13.601  67.615  1.00  0.00    -0.239 A  
HETATM    7  C   UNL     1      -9.287  12.449  67.158  1.00  0.00    -0.199 A  
HETATM    8  N   UNL     1     -10.258  11.826  66.391  1.00  0.00    -0.210 NA 
HETATM    9  C   UNL     1      -7.943  12.188  67.528  1.00  0.00    -0.163 A  
HETATM   10  C   UNL     1      -7.328  13.092  68.420  1.00  0.00    -0.116 A  
HETATM   11  C   UNL     1      -9.302  14.478  68.505  1.00  0.00    -0.203 A  
HETATM   12  C   UNL     1      -7.998  14.208  68.912  1.00  0.00    -0.051 A  
BRANCH   9  13
HETATM   13  C   UNL     1      -7.180  10.985  67.118  1.00  0.00    -0.112 C  
HETATM   14  O   UNL     1      -6.860  10.095  67.886  1.00  0.00    -0.073 OA 
BRANCH  13  15
HETATM   15  O   UNL     1      -6.838  11.065  65.804  1.00  0.00    -0.045 OA 
BRANCH  15  16
HETATM   16  C   UNL     1      -5.959  10.033  65.328  1.00  0.00    -0.097 C  
BRANCH  16  17
HETATM   17  C   UNL     1      -6.753   8.957  64.676  1.00  0.00    -0.073 C  
HETATM   18  O   UNL     1      -8.059   7.782  63.292  1.00  0.00    -0.139 OA 
HETATM   19  C   UNL     1      -7.484   8.998  63.582  1.00  0.00    -0.103 C  
HETATM   20  O   UNL     1      -6.799   7.696  65.249  1.00  0.00    -0.047 OA 
HETATM   21  C   UNL     1      -7.672  10.082  62.612  1.00  0.00    -0.138 C  
HETATM   22  C   UNL     1      -7.592   7.006  64.338  1.00  0.00    -0.108 C  
HETATM   23  O   UNL     1      -7.867   5.817  64.451  1.00  0.00    -0.097 OA 
ENDBRANCH  16  17
ENDBRANCH  15  16
ENDBRANCH  13  15
ENDBRANCH   9  13
BRANCH   8  24
HETATM   24  C   UNL     1     -10.269  10.470  65.868  1.00  0.00    -0.245 C  
BRANCH  24  25
HETATM   25  C   UNL     1     -10.335   9.368  66.901  1.00  0.00    -0.308 A  
HETATM   26  C   UNL     1     -10.213   8.010  66.610  1.00  0.00    -0.315 A  
HETATM   27  C   UNL     1     -10.621   8.775  69.255  1.00  0.00    -0.210 A  
HETATM   28  C   UNL     1     -10.516   7.403  68.978  1.00  0.00    -0.217 A  
HETATM   29  C   UNL     1     -10.520   9.737  68.241  1.00  0.00    -0.255 A  
HETATM   30  C   UNL     1     -10.240   7.060  67.639  1.00  0.00    -0.245 A  
BRANCH  28  31
HETATM   31  C   UNL     1     -10.607   6.366  70.056  1.00  0.00    -0.291 A  
HETATM   32  C   UNL     1     -11.357   5.839  72.351  1.00  0.00    -0.348 A  
HETATM   33  C   UNL     1     -11.432   6.608  71.184  1.00  0.00    -0.370 A  
HETATM   34  C   UNL     1     -10.505   4.749  72.404  1.00  0.00    -0.258 A  
HETATM   35  C   UNL     1      -9.762   4.411  71.278  1.00  0.00    -0.252 A  
HETATM   36  C   UNL     1      -9.820   5.192  70.105  1.00  0.00    -0.300 A  
BRANCH  36  37
HETATM   37  C   UNL     1      -9.036   4.664  68.973  1.00  0.00    -0.110 C  
HETATM   38  N   UNL     1      -9.496   3.885  68.050  1.00  0.00    -0.174 NA 
HETATM   39  O   UNL     1      -8.390   3.658  67.171  1.00  0.00    -0.096 OA 
HETATM   40  C   UNL     1      -7.338   4.370  67.684  1.00  0.00    -0.069 C  
HETATM   41  N   UNL     1      -7.754   5.004  68.791  1.00  0.00    -0.077 NA 
HETATM   42  O   UNL     1      -6.206   4.403  67.222  1.00  0.00    -0.036 OA 
ENDBRANCH  36  37
ENDBRANCH  28  31
ENDBRANCH  24  25
ENDBRANCH   8  24
ENDBRANCH   3   4
ENDBRANCH   2   3
TORSDOF 10
ENDMDL
MODEL      155
REMARK 921   NORMALIZED FREE ENERGY PREDICTED BY IDOCK:   -4.69 KCAL/MOL
REMARK 922        TOTAL FREE ENERGY PREDICTED BY IDOCK:  -10.35 KCAL/MOL
REMARK 923 INTER-LIGAND FREE ENERGY PREDICTED BY IDOCK:   -8.31 KCAL/MOL
REMARK 924 INTRA-LIGAND FREE ENERGY PREDICTED BY IDOCK:   -2.04 KCAL/MOL
REMARK 927      BINDING AFFINITY PREDICTED BY RF-SCORE:    0.00 PKD
ROOT
HETATM    1  C   UNL     1      -5.290   7.086  68.316  1.00  0.00    -0.020 C  
HETATM    2  C   UNL     1      -5.761   7.375  69.730  1.00  0.00    -0.023 C  
ENDROOT
BRANCH   2   3
HETATM    3  O   UNL     1      -5.980   8.779  69.881  1.00  0.00    -0.031 OA 
BRANCH   3   4
HETATM    4  C   UNL     1      -7.265   9.120  69.994  1.00  0.00    -0.066 A  
HETATM    5  N   UNL     1      -8.052   8.770  70.978  1.00  0.00    -0.141 NA 
HETATM    6  C   UNL     1      -9.256   9.349  70.693  1.00  0.00    -0.242 A  
HETATM    7  C   UNL     1      -9.223  10.069  69.491  1.00  0.00    -0.221 A  
HETATM    8  N   UNL     1      -7.905   9.936  69.089  1.00  0.00    -0.096 NA 
HETATM    9  C   UNL     1     -10.390  10.708  68.998  1.00  0.00    -0.237 A  
HETATM   10  C   UNL     1     -11.552  10.642  69.796  1.00  0.00    -0.385 A  
HETATM   11  C   UNL     1     -10.429   9.308  71.464  1.00  0.00    -0.385 A  
HETATM   12  C   UNL     1     -11.569   9.970  71.014  1.00  0.00    -0.476 A  
BRANCH   9  13
HETATM   13  C   UNL     1     -10.443  11.513  67.755  1.00  0.00    -0.188 C  
HETATM   14  O   UNL     1     -10.221  12.710  67.717  1.00  0.00    -0.213 OA 
BRANCH  13  15
HETATM   15  O   UNL     1     -10.840  10.743  66.707  1.00  0.00    -0.249 OA 
BRANCH  15  16
HETATM   16  C   UNL     1      -9.782  10.175  65.918  1.00  0.00    -0.232 C  
BRANCH  16  17
HETATM   17  C   UNL     1      -9.692   8.711  66.176  1.00  0.00    -0.222 C  
HETATM   18  O   UNL     1      -9.013   6.586  66.302  1.00  0.00    -0.151 OA 
HETATM   19  C   UNL     1      -8.728   7.865  65.884  1.00  0.00    -0.154 C  
HETATM   20  O   UNL     1     -10.745   8.060  66.797  1.00  0.00    -0.289 OA 
HETATM   21  C   UNL     1      -7.403   8.106  65.302  1.00  0.00    -0.073 C  
HETATM   22  C   UNL     1     -10.260   6.759  66.877  1.00  0.00    -0.231 C  
HETATM   23  O   UNL     1     -10.880   5.840  67.398  1.00  0.00    -0.268 OA 
ENDBRANCH  16  17
ENDBRANCH  15  16
ENDBRANCH  13  15
ENDBRANCH   9  13
BRANCH   8  24
HETATM   24  C   UNL     1      -7.192  10.671  68.057  1.00  0.00    -0.087 C  
BRANCH  24  25
HETATM   25  C   UNL     1      -7.115  12.168  68.252  1.00  0.00    -0.084 A  
HETATM   26  C   UNL     1      -6.995  12.793  69.493  1.00  0.00     0.187 A  
HETATM   27  C   UNL     1      -7.119  14.379  67.209  1.00  0.00     0.024 A  
HETATM   28  C   UNL     1      -7.014  15.025  68.451  1.00  0.00    -0.109 A  
HETATM   29  C   UNL     1      -7.156  12.981  67.111  1.00  0.00     0.067 A  
HETATM   30  C   UNL     1      -6.884  14.187  69.577  1.00  0.00    -0.084 A  
BRANCH  28  31
HETATM   31  C   UNL     1      -6.958  16.518  68.567  1.00  0.00    -0.154 A  
HETATM   32  C   UNL     1      -5.973  18.458  69.739  1.00  0.00    -0.243 A  
HETATM   33  C   UNL     1      -5.934  17.115  69.347  1.00  0.00    -0.222 A  
HETATM   34  C   UNL     1      -7.002  19.274  69.302  1.00  0.00    -0.349 A  
HETATM   35  C   UNL     1      -7.965  18.753  68.444  1.00  0.00    -0.365 A  
HETATM   36  C   UNL     1      -7.941  17.397  68.058  1.00  0.00    -0.224 A  
BRANCH  36  37
HETATM   37  C   UNL     1      -8.982  17.014  67.086  1.00  0.00    -0.222 C  
HETATM   38  N   UNL     1      -9.104  17.503  65.897  1.00  0.00    -0.516 NA 
HETATM   39  O   UNL     1     -10.227  16.823  65.329  1.00  0.00    -0.607 OA 
HETATM   40  C   UNL     1     -10.672  15.948  66.286  1.00  0.00    -0.261 C  
HETATM   41  N   UNL     1      -9.883  16.063  67.364  1.00  0.00    -0.234 NA 
HETATM   42  O   UNL     1     -11.639  15.207  66.180  1.00  0.00    -0.235 OA 
ENDBRANCH  36  37
ENDBRANCH  28  31
ENDBRANCH  24  25
ENDBRANCH   8  24
ENDBRANCH   3   4
ENDBRANCH   2   3
TORSDOF 10
ENDMDL
MODEL      156
REMARK 921   NORMALIZED FREE ENERGY PREDICTED BY IDOCK:   -4.64 KCAL/MOL
REMARK 922        TOTAL FREE ENERGY PREDICTED BY IDOCK:  -10.27 KCAL/MOL
REMARK 923 INTER-LIGAND FREE ENERGY PREDICTED BY IDOCK:   -8.43 KCAL/MOL
REMARK 924 INTRA-LIGAND FREE ENERGY PREDICTED BY IDOCK:   -1.84 KCAL/MOL
REMARK 927      BINDING AFFINITY PREDICTED BY RF-SCORE:    0.00 PKD
ROOT
HETATM    1  C   UNL     1      -9.195   7.970  72.919  1.00  0.00    -0.332 C  
HETATM    2  C   UNL     1     -10.044   8.785  71.958  1.00  0.00    -0.327 C  
ENDROOT
BRANCH   2   3
HETATM    3  O   UNL     1      -9.198   9.415  70.994  1.00  0.00    -0.229 OA 
BRANCH   3   4
HETATM    4  C   UNL     1      -8.468   8.563  70.272  1.00  0.00    -0.128 A  
HETATM    5  N   UNL     1      -7.323   8.052  70.642  1.00  0.00    -0.055 NA 
HETATM    6  C   UNL     1      -6.950   7.232  69.614  1.00  0.00    -0.054 A  
HETATM    7  C   UNL     1      -7.883   7.242  68.568  1.00  0.00    -0.122 A  
HETATM    8  N   UNL     1      -8.875   8.081  69.048  1.00  0.00    -0.144 NA 
HETATM    9  C   UNL     1      -7.654   6.489  67.387  1.00  0.00    -0.100 A  
HETATM   10  C   UNL     1      -6.495   5.686  67.345  1.00  0.00    -0.047 A  
HETATM   11  C   UNL     1      -5.809   6.418  69.540  1.00  0.00    -0.018 A  
HETATM   12  C   UNL     1      -5.596   5.638  68.406  1.00  0.00    -0.008 A  
BRANCH   9  13
HETATM   13  C   UNL     1      -8.595   6.416  66.244  1.00  0.00    -0.140 C  
HETATM   14  O   UNL     1      -8.316   6.784  65.117  1.00  0.00    -0.136 OA 
BRANCH  13  15
HETATM   15  O   UNL     1      -9.808   5.958  66.656  1.00  0.00    -0.150 OA 
BRANCH  15  16
HETATM   16  C   UNL     1      -9.863   4.560  66.983  1.00  0.00    -0.202 C  
BRANCH  16  17
HETATM   17  C   UNL     1      -9.803   4.386  68.460  1.00  0.00    -0.069 C  
HETATM   18  O   UNL     1      -9.298   3.705  70.528  1.00  0.00    -0.129 OA 
HETATM   19  C   UNL     1      -9.085   3.549  69.178  1.00  0.00    -0.140 C  
HETATM   20  O   UNL     1     -10.602   5.171  69.275  1.00  0.00    -0.192 OA 
HETATM   21  C   UNL     1      -8.054   2.592  68.763  1.00  0.00    -0.066 C  
HETATM   22  C   UNL     1     -10.227   4.731  70.540  1.00  0.00    -0.182 C  
HETATM   23  O   UNL     1     -10.683   5.196  71.577  1.00  0.00    -0.189 OA 
ENDBRANCH  16  17
ENDBRANCH  15  16
ENDBRANCH  13  15
ENDBRANCH   9  13
BRANCH   8  24
HETATM   24  C   UNL     1     -10.220   8.283  68.534  1.00  0.00    -0.208 C  
BRANCH  24  25
HETATM   25  C   UNL     1     -10.460   9.594  67.821  1.00  0.00    -0.309 A  
HETATM   26  C   UNL     1     -10.025   9.875  66.526  1.00  0.00    -0.291 A  
HETATM   27  C   UNL     1     -11.416  11.842  67.921  1.00  0.00    -0.387 A  
HETATM   28  C   UNL     1     -10.972  12.147  66.625  1.00  0.00    -0.325 A  
HETATM   29  C   UNL     1     -11.177  10.589  68.502  1.00  0.00    -0.332 A  
HETATM   30  C   UNL     1     -10.333  11.102  65.926  1.00  0.00    -0.314 A  
BRANCH  28  31
HETATM   31  C   UNL     1     -11.235  13.478  65.988  1.00  0.00    -0.305 A  
HETATM   32  C   UNL     1     -12.362  14.700  64.159  1.00  0.00    -0.294 A  
HETATM   33  C   UNL     1     -12.245  13.585  64.996  1.00  0.00    -0.453 A  
HETATM   34  C   UNL     1     -11.520  15.785  64.334  1.00  0.00    -0.268 A  
HETATM   35  C   UNL     1     -10.590  15.764  65.369  1.00  0.00    -0.441 A  
HETATM   36  C   UNL     1     -10.455  14.637  66.205  1.00  0.00    -0.308 A  
BRANCH  36  37
HETATM   37  C   UNL     1      -9.482  14.795  67.302  1.00  0.00    -0.214 C  
HETATM   38  N   UNL     1      -9.787  14.962  68.547  1.00  0.00    -0.211 NA 
HETATM   39  O   UNL     1      -8.532  15.046  69.228  1.00  0.00    -0.200 OA 
HETATM   40  C   UNL     1      -7.563  14.903  68.269  1.00  0.00    -0.113 C  
HETATM   41  N   UNL     1      -8.163  14.731  67.082  1.00  0.00    -0.212 NA 
HETATM   42  O   UNL     1      -6.356  14.948  68.463  1.00  0.00    -0.085 OA 
ENDBRANCH  36  37
ENDBRANCH  28  31
ENDBRANCH  24  25
ENDBRANCH   8  24
ENDBRANCH   3   4
ENDBRANCH   2   3
TORSDOF 10
ENDMDL
MODEL      157
REMARK 921   NORMALIZED FREE ENERGY PREDICTED BY IDOCK:   -4.62 KCAL/MOL
REMARK 922        TOTAL FREE ENERGY PREDICTED BY IDOCK:  -10.25 KCAL/MOL
REMARK 923 INTER-LIGAND FREE ENERGY PREDICTED BY IDOCK:   -8.11 KCAL/MOL
REMARK 924 INTRA-LIGAND FREE ENERGY PREDICTED BY IDOCK:   -2.14 KCAL/MOL
REMARK 927      BINDING AFFINITY PREDICTED BY RF-SCORE:    0.00 PKD
ROOT
HETATM    1  C   UNL     1     -10.467   7.391  73.330  1.00  0.00    -0.419 C  
HETATM    2  C   UNL     1      -9.685   8.319  72.417  1.00  0.00    -0.303 C  
ENDROOT
BRANCH   2   3
HETATM    3  O   UNL     1     -10.297   8.341  71.126  1.00  0.00    -0.195 OA 
BRANCH   3   4
HETATM    4  C   UNL     1     -10.774   9.535  70.771  1.00  0.00    -0.321 A  
HETATM    5  N   UNL     1     -11.833  10.105  71.284  1.00  0.00    -0.370 NA 
HETATM    6  C   UNL     1     -11.937  11.307  70.642  1.00  0.00    -0.336 A  
HETATM    7  C   UNL     1     -10.921  11.486  69.693  1.00  0.00    -0.064 A  
HETATM    8  N   UNL     1     -10.160  10.338  69.835  1.00  0.00    -0.216 NA 
HETATM    9  C   UNL     1     -10.880  12.654  68.888  1.00  0.00    -0.238 A  
HETATM   10  C   UNL     1     -11.856  13.644  69.132  1.00  0.00    -0.394 A  
HETATM   11  C   UNL     1     -12.889  12.315  70.861  1.00  0.00    -0.179 A  
HETATM   12  C   UNL     1     -12.833  13.486  70.110  1.00  0.00     0.075 A  
BRANCH   9  13
HETATM   13  C   UNL     1      -9.831  12.943  67.882  1.00  0.00    -0.227 C  
HETATM   14  O   UNL     1      -9.624  12.246  66.904  1.00  0.00    -0.202 OA 
BRANCH  13  15
HETATM   15  O   UNL     1      -9.107  14.034  68.251  1.00  0.00    -0.183 OA 
BRANCH  15  16
HETATM   16  C   UNL     1      -8.736  14.921  67.183  1.00  0.00    -0.219 C  
BRANCH  16  17
HETATM   17  C   UNL     1      -9.085  16.321  67.548  1.00  0.00    -0.192 C  
HETATM   18  O   UNL     1      -9.068  18.400  68.370  1.00  0.00    -0.306 OA 
HETATM   19  C   UNL     1      -8.414  17.194  68.269  1.00  0.00    -0.236 C  
HETATM   20  O   UNL     1     -10.288  16.860  67.121  1.00  0.00    -0.299 OA 
HETATM   21  C   UNL     1      -7.074  17.100  68.858  1.00  0.00    -0.242 C  
HETATM   22  C   UNL     1     -10.211  18.152  67.630  1.00  0.00    -0.374 C  
HETATM   23  O   UNL     1     -11.079  18.998  67.453  1.00  0.00    -0.395 OA 
ENDBRANCH  16  17
ENDBRANCH  15  16
ENDBRANCH  13  15
ENDBRANCH   9  13
BRANCH   8  24
HETATM   24  C   UNL     1      -8.832  10.058  69.314  1.00  0.00    -0.178 C  
BRANCH  24  25
HETATM   25  C   UNL     1      -8.766   9.032  68.205  1.00  0.00    -0.130 A  
HETATM   26  C   UNL     1      -9.848   8.671  67.403  1.00  0.00    -0.249 A  
HETATM   27  C   UNL     1      -7.396   7.429  66.970  1.00  0.00    -0.097 A  
HETATM   28  C   UNL     1      -8.478   7.042  66.163  1.00  0.00    -0.136 A  
HETATM   29  C   UNL     1      -7.533   8.411  67.960  1.00  0.00    -0.097 A  
HETATM   30  C   UNL     1      -9.684   7.743  66.367  1.00  0.00    -0.219 A  
BRANCH  28  31
HETATM   31  C   UNL     1      -8.339   6.004  65.092  1.00  0.00    -0.140 A  
HETATM   32  C   UNL     1      -8.234   5.550  62.665  1.00  0.00    -0.106 A  
HETATM   33  C   UNL     1      -8.094   6.415  63.756  1.00  0.00    -0.034 A  
HETATM   34  C   UNL     1      -8.551   4.219  62.876  1.00  0.00    -0.101 A  
HETATM   35  C   UNL     1      -8.690   3.752  64.179  1.00  0.00    -0.107 A  
HETATM   36  C   UNL     1      -8.567   4.622  65.283  1.00  0.00    -0.133 A  
BRANCH  36  37
HETATM   37  C   UNL     1      -8.663   3.965  66.600  1.00  0.00    -0.115 C  
HETATM   38  N   UNL     1      -9.733   3.427  67.085  1.00  0.00    -0.075 NA 
HETATM   39  O   UNL     1      -9.343   2.909  68.360  1.00  0.00    -0.181 OA 
HETATM   40  C   UNL     1      -8.011   3.199  68.501  1.00  0.00    -0.057 C  
HETATM   41  N   UNL     1      -7.596   3.839  67.398  1.00  0.00    -0.074 NA 
HETATM   42  O   UNL     1      -7.324   2.937  69.479  1.00  0.00    -0.044 OA 
ENDBRANCH  36  37
ENDBRANCH  28  31
ENDBRANCH  24  25
ENDBRANCH   8  24
ENDBRANCH   3   4
ENDBRANCH   2   3
TORSDOF 10
ENDMDL
MODEL      158
REMARK 921   NORMALIZED FREE ENERGY PREDICTED BY IDOCK:   -4.60 KCAL/MOL
REMARK 922        TOTAL FREE ENERGY PREDICTED BY IDOCK:  -10.21 KCAL/MOL
REMARK 923 INTER-LIGAND FREE ENERGY PREDICTED BY IDOCK:   -7.67 KCAL/MOL
REMARK 924 INTRA-LIGAND FREE ENERGY PREDICTED BY IDOCK:   -2.53 KCAL/MOL
REMARK 927      BINDING AFFINITY PREDICTED BY RF-SCORE:    0.00 PKD
ROOT
HETATM    1  C   UNL     1      -7.960   9.253  62.441  1.00  0.00    -0.129 C  
HETATM    2  C   UNL     1      -6.444   9.199  62.377  1.00  0.00    -0.093 C  
ENDROOT
BRANCH   2   3
HETATM    3  O   UNL     1      -5.951   8.412  63.464  1.00  0.00    -0.071 OA 
BRANCH   3   4
HETATM    4  C   UNL     1      -6.723   7.370  63.775  1.00  0.00    -0.053 A  
HETATM    5  N   UNL     1      -7.040   6.398  62.959  1.00  0.00    -0.046 NA 
HETATM    6  C   UNL     1      -7.821   5.554  63.697  1.00  0.00    -0.096 A  
HETATM    7  C   UNL     1      -8.007   6.019  65.007  1.00  0.00    -0.125 A  
HETATM    8  N   UNL     1      -7.244   7.175  65.034  1.00  0.00    -0.070 NA 
HETATM    9  C   UNL     1      -8.827   5.305  65.918  1.00  0.00    -0.145 A  
HETATM   10  C   UNL     1      -9.383   4.086  65.474  1.00  0.00    -0.159 A  
HETATM   11  C   UNL     1      -8.386   4.335  63.290  1.00  0.00    -0.095 A  
HETATM   12  C   UNL     1      -9.154   3.601  64.190  1.00  0.00    -0.123 A  
BRANCH   9  13
HETATM   13  C   UNL     1      -9.058   5.703  67.326  1.00  0.00    -0.110 C  
HETATM   14  O   UNL     1      -8.175   5.768  68.163  1.00  0.00    -0.103 OA 
BRANCH  13  15
HETATM   15  O   UNL     1     -10.384   5.907  67.551  1.00  0.00    -0.168 OA 
BRANCH  15  16
HETATM   16  C   UNL     1     -10.785   7.279  67.696  1.00  0.00    -0.224 C  
BRANCH  16  17
HETATM   17  C   UNL     1     -10.296   7.811  68.998  1.00  0.00    -0.211 C  
HETATM   18  O   UNL     1      -9.996   8.242  71.170  1.00  0.00    -0.176 OA 
HETATM   19  C   UNL     1     -10.720   7.562  70.219  1.00  0.00    -0.238 C  
HETATM   20  O   UNL     1      -9.253   8.722  69.017  1.00  0.00    -0.141 OA 
HETATM   21  C   UNL     1     -11.738   6.618  70.692  1.00  0.00    -0.452 C  
HETATM   22  C   UNL     1      -9.090   8.929  70.382  1.00  0.00    -0.190 C  
HETATM   23  O   UNL     1      -8.229   9.663  70.853  1.00  0.00    -0.290 OA 
ENDBRANCH  16  17
ENDBRANCH  15  16
ENDBRANCH  13  15
ENDBRANCH   9  13
BRANCH   8  24
HETATM   24  C   UNL     1      -6.828   7.960  66.185  1.00  0.00    -0.058 C  
BRANCH  24  25
HETATM   25  C   UNL     1      -7.513   9.299  66.347  1.00  0.00    -0.093 A  
HETATM   26  C   UNL     1      -7.022  10.341  67.133  1.00  0.00    -0.088 A  
HETATM   27  C   UNL     1      -9.423  10.712  65.774  1.00  0.00    -0.244 A  
HETATM   28  C   UNL     1      -8.952  11.766  66.572  1.00  0.00    -0.196 A  
HETATM   29  C   UNL     1      -8.713   9.509  65.654  1.00  0.00    -0.173 A  
HETATM   30  C   UNL     1      -7.699  11.566  67.188  1.00  0.00    -0.160 A  
BRANCH  28  31
HETATM   31  C   UNL     1      -9.695  13.061  66.697  1.00  0.00    -0.256 A  
HETATM   32  C   UNL     1      -9.775  15.457  66.094  1.00  0.00    -0.347 A  
HETATM   33  C   UNL     1      -9.340  14.148  65.856  1.00  0.00    -0.036 A  
HETATM   34  C   UNL     1     -10.645  15.715  67.140  1.00  0.00    -0.308 A  
HETATM   35  C   UNL     1     -11.104  14.658  67.919  1.00  0.00    -0.301 A  
HETATM   36  C   UNL     1     -10.657  13.339  67.696  1.00  0.00    -0.242 A  
BRANCH  36  37
HETATM   37  C   UNL     1     -11.291  12.319  68.551  1.00  0.00    -0.286 C  
HETATM   38  N   UNL     1     -11.923  11.277  68.120  1.00  0.00    -0.641 NA 
HETATM   39  O   UNL     1     -12.340  10.582  69.299  1.00  0.00    -0.234 OA 
HETATM   40  C   UNL     1     -11.879  11.316  70.361  1.00  0.00    -0.350 C  
HETATM   41  N   UNL     1     -11.217  12.381  69.886  1.00  0.00     0.026 NA 
HETATM   42  O   UNL     1     -12.064  11.054  71.542  1.00  0.00    -0.179 OA 
ENDBRANCH  36  37
ENDBRANCH  28  31
ENDBRANCH  24  25
ENDBRANCH   8  24
ENDBRANCH   3   4
ENDBRANCH   2   3
TORSDOF 10
ENDMDL
MODEL      159
REMARK 921   NORMALIZED FREE ENERGY PREDICTED BY IDOCK:   -4.59 KCAL/MOL
REMARK 922        TOTAL FREE ENERGY PREDICTED BY IDOCK:  -10.20 KCAL/MOL
REMARK 923 INTER-LIGAND FREE ENERGY PREDICTED BY IDOCK:   -8.12 KCAL/MOL
REMARK 924 INTRA-LIGAND FREE ENERGY PREDICTED BY IDOCK:   -2.07 KCAL/MOL
REMARK 927      BINDING AFFINITY PREDICTED BY RF-SCORE:    0.00 PKD
ROOT
HETATM    1  C   UNL     1      -5.954   5.238  63.344  1.00  0.00    -0.021 C  
HETATM    2  C   UNL     1      -6.110   5.985  64.657  1.00  0.00    -0.026 C  
ENDROOT
BRANCH   2   3
HETATM    3  O   UNL     1      -7.496   6.242  64.895  1.00  0.00    -0.074 OA 
BRANCH   3   4
HETATM    4  C   UNL     1      -7.963   5.702  66.021  1.00  0.00    -0.106 A  
HETATM    5  N   UNL     1      -8.329   4.454  66.162  1.00  0.00    -0.112 NA 
HETATM    6  C   UNL     1      -8.717   4.342  67.467  1.00  0.00    -0.105 A  
HETATM    7  C   UNL     1      -8.603   5.557  68.157  1.00  0.00    -0.100 A  
HETATM    8  N   UNL     1      -8.068   6.405  67.201  1.00  0.00    -0.112 NA 
HETATM    9  C   UNL     1      -9.000   5.659  69.515  1.00  0.00    -0.129 A  
HETATM   10  C   UNL     1      -9.446   4.480  70.151  1.00  0.00    -0.237 A  
HETATM   11  C   UNL     1      -9.161   3.188  68.132  1.00  0.00    -0.219 A  
HETATM   12  C   UNL     1      -9.510   3.263  69.478  1.00  0.00    -0.205 A  
BRANCH   9  13
HETATM   13  C   UNL     1      -8.889   6.890  70.331  1.00  0.00    -0.152 C  
HETATM   14  O   UNL     1      -7.857   7.254  70.867  1.00  0.00    -0.091 OA 
BRANCH  13  15
HETATM   15  O   UNL     1     -10.102   7.494  70.447  1.00  0.00    -0.194 OA 
BRANCH  15  16
HETATM   16  C   UNL     1     -10.480   7.877  71.780  1.00  0.00    -0.221 C  
BRANCH  16  17
HETATM   17  C   UNL     1     -10.662   6.661  72.620  1.00  0.00    -0.235 C  
HETATM   18  O   UNL     1     -10.519   5.113  74.226  1.00  0.00    -0.262 OA 
HETATM   19  C   UNL     1     -10.062   6.317  73.739  1.00  0.00    -0.249 C  
HETATM   20  O   UNL     1     -11.567   5.688  72.228  1.00  0.00    -0.264 OA 
HETATM   21  C   UNL     1      -9.099   7.056  74.561  1.00  0.00    -0.219 C  
HETATM   22  C   UNL     1     -11.460   4.773  73.270  1.00  0.00    -0.273 C  
HETATM   23  O   UNL     1     -12.127   3.748  73.337  1.00  0.00     0.104 OA 
ENDBRANCH  16  17
ENDBRANCH  15  16
ENDBRANCH  13  15
ENDBRANCH   9  13
BRANCH   8  24
HETATM   24  C   UNL     1      -7.483   7.724  67.382  1.00  0.00    -0.093 C  
BRANCH  24  25
HETATM   25  C   UNL     1      -8.282   8.878  66.821  1.00  0.00    -0.111 A  
HETATM   26  C   UNL     1      -7.895   9.638  65.718  1.00  0.00    -0.106 A  
HETATM   27  C   UNL     1     -10.282  10.272  67.003  1.00  0.00    -0.282 A  
HETATM   28  C   UNL     1      -9.900  11.058  65.904  1.00  0.00    -0.278 A  
HETATM   29  C   UNL     1      -9.497   9.198  67.444  1.00  0.00    -0.177 A  
HETATM   30  C   UNL     1      -8.722  10.662  65.238  1.00  0.00    -0.198 A  
BRANCH  28  31
HETATM   31  C   UNL     1     -10.738  12.199  65.413  1.00  0.00    -0.323 A  
HETATM   32  C   UNL     1     -12.191  13.063  63.610  1.00  0.00    -0.568 A  
HETATM   33  C   UNL     1     -11.598  12.000  64.302  1.00  0.00    -0.435 A  
HETATM   34  C   UNL     1     -12.005  14.362  64.051  1.00  0.00    -0.288 A  
HETATM   35  C   UNL     1     -11.259  14.589  65.204  1.00  0.00    -0.367 A  
HETATM   36  C   UNL     1     -10.646  13.524  65.896  1.00  0.00    -0.284 A  
BRANCH  36  37
HETATM   37  C   UNL     1      -9.955  13.914  67.140  1.00  0.00    -0.239 C  
HETATM   38  N   UNL     1     -10.531  14.408  68.186  1.00  0.00    -0.233 NA 
HETATM   39  O   UNL     1      -9.476  14.607  69.132  1.00  0.00    -0.166 OA 
HETATM   40  C   UNL     1      -8.326  14.179  68.521  1.00  0.00    -0.155 C  
HETATM   41  N   UNL     1      -8.637  13.736  67.293  1.00  0.00    -0.206 NA 
HETATM   42  O   UNL     1      -7.204  14.217  69.006  1.00  0.00    -0.115 OA 
ENDBRANCH  36  37
ENDBRANCH  28  31
ENDBRANCH  24  25
ENDBRANCH   8  24
ENDBRANCH   3   4
ENDBRANCH   2   3
TORSDOF 10
ENDMDL
MODEL      160
REMARK 921   NORMALIZED FREE ENERGY PREDICTED BY IDOCK:   -4.59 KCAL/MOL
REMARK 922        TOTAL FREE ENERGY PREDICTED BY IDOCK:  -10.20 KCAL/MOL
REMARK 923 INTER-LIGAND FREE ENERGY PREDICTED BY IDOCK:   -8.13 KCAL/MOL
REMARK 924 INTRA-LIGAND FREE ENERGY PREDICTED BY IDOCK:   -2.07 KCAL/MOL
REMARK 927      BINDING AFFINITY PREDICTED BY RF-SCORE:    0.00 PKD
ROOT
HETATM    1  C   UNL     1     -11.669  10.173  71.078  1.00  0.00    -0.470 C  
HETATM    2  C   UNL     1     -12.523   8.986  70.668  1.00  0.00     0.150 C  
ENDROOT
BRANCH   2   3
HETATM    3  O   UNL     1     -12.696   8.115  71.789  1.00  0.00    -0.312 OA 
BRANCH   3   4
HETATM    4  C   UNL     1     -11.561   7.586  72.246  1.00  0.00    -0.310 A  
HETATM    5  N   UNL     1     -11.060   7.792  73.436  1.00  0.00    -0.253 NA 
HETATM    6  C   UNL     1      -9.914   7.048  73.474  1.00  0.00    -0.284 A  
HETATM    7  C   UNL     1      -9.688   6.368  72.269  1.00  0.00    -0.150 A  
HETATM    8  N   UNL     1     -10.798   6.705  71.513  1.00  0.00    -0.234 NA 
HETATM    9  C   UNL     1      -8.525   5.575  72.093  1.00  0.00    -0.126 A  
HETATM   10  C   UNL     1      -7.653   5.449  73.196  1.00  0.00    -0.096 A  
HETATM   11  C   UNL     1      -9.028   6.896  74.552  1.00  0.00    -0.222 A  
HETATM   12  C   UNL     1      -7.906   6.084  74.408  1.00  0.00    -0.099 A  
BRANCH   9  13
HETATM   13  C   UNL     1      -8.216   4.800  70.869  1.00  0.00    -0.087 C  
HETATM   14  O   UNL     1      -8.402   3.600  70.766  1.00  0.00    -0.067 OA 
BRANCH  13  15
HETATM   15  O   UNL     1      -7.641   5.601  69.932  1.00  0.00    -0.072 OA 
BRANCH  15  16
HETATM   16  C   UNL     1      -6.290   6.006  70.208  1.00  0.00    -0.032 C  
BRANCH  16  17
HETATM   17  C   UNL     1      -6.147   7.470  69.977  1.00  0.00    -0.027 C  
HETATM   18  O   UNL     1      -5.708   9.477  69.098  1.00  0.00    -0.036 OA 
HETATM   19  C   UNL     1      -5.652   8.112  68.940  1.00  0.00    -0.031 C  
HETATM   20  O   UNL     1      -6.555   8.360  70.956  1.00  0.00    -0.038 OA 
HETATM   21  C   UNL     1      -5.175   7.599  67.652  1.00  0.00    -0.030 C  
HETATM   22  C   UNL     1      -6.290   9.583  70.349  1.00  0.00    -0.073 C  
HETATM   23  O   UNL     1      -6.536  10.663  70.873  1.00  0.00    -0.333 OA 
ENDBRANCH  16  17
ENDBRANCH  15  16
ENDBRANCH  13  15
ENDBRANCH   9  13
BRANCH   8  24
HETATM   24  C   UNL     1     -11.267   6.107  70.273  1.00  0.00    -0.369 C  
BRANCH  24  25
HETATM   25  C   UNL     1     -10.750   6.743  69.002  1.00  0.00    -0.280 A  
HETATM   26  C   UNL     1     -11.215   6.434  67.724  1.00  0.00    -0.258 A  
HETATM   27  C   UNL     1      -9.193   8.329  67.985  1.00  0.00    -0.142 A  
HETATM   28  C   UNL     1      -9.638   8.020  66.690  1.00  0.00    -0.297 A  
HETATM   29  C   UNL     1      -9.745   7.714  69.117  1.00  0.00    -0.164 A  
HETATM   30  C   UNL     1     -10.711   7.108  66.605  1.00  0.00    -0.092 A  
BRANCH  28  31
HETATM   31  C   UNL     1      -9.067   8.682  65.474  1.00  0.00    -0.190 A  
HETATM   32  C   UNL     1      -7.317   8.629  63.730  1.00  0.00    -0.101 A  
HETATM   33  C   UNL     1      -8.101   7.990  64.697  1.00  0.00    -0.140 A  
HETATM   34  C   UNL     1      -7.523   9.968  63.449  1.00  0.00    -0.139 A  
HETATM   35  C   UNL     1      -8.537  10.653  64.110  1.00  0.00    -0.100 A  
HETATM   36  C   UNL     1      -9.320  10.021  65.099  1.00  0.00    -0.302 A  
BRANCH  36  37
HETATM   37  C   UNL     1     -10.404  10.853  65.654  1.00  0.00    -0.242 C  
HETATM   38  N   UNL     1     -10.709  10.937  66.906  1.00  0.00    -0.265 NA 
HETATM   39  O   UNL     1     -11.795  11.865  66.963  1.00  0.00    -0.585 OA 
HETATM   40  C   UNL     1     -12.027  12.265  65.673  1.00  0.00    -0.306 C  
HETATM   41  N   UNL     1     -11.148  11.645  64.872  1.00  0.00    -0.283 NA 
HETATM   42  O   UNL     1     -12.903  13.039  65.312  1.00  0.00    -0.642 OA 
ENDBRANCH  36  37
ENDBRANCH  28  31
ENDBRANCH  24  25
ENDBRANCH   8  24
ENDBRANCH   3   4
ENDBRANCH   2   3
TORSDOF 10
ENDMDL
MODEL      161
REMARK 921   NORMALIZED FREE ENERGY PREDICTED BY IDOCK:   -4.58 KCAL/MOL
REMARK 922        TOTAL FREE ENERGY PREDICTED BY IDOCK:  -10.17 KCAL/MOL
REMARK 923 INTER-LIGAND FREE ENERGY PREDICTED BY IDOCK:   -9.03 KCAL/MOL
REMARK 924 INTRA-LIGAND FREE ENERGY PREDICTED BY IDOCK:   -1.14 KCAL/MOL
REMARK 927      BINDING AFFINITY PREDICTED BY RF-SCORE:    0.00 PKD
ROOT
HETATM    1  C   UNL     1      -9.072  10.010  63.060  1.00  0.00    -0.298 C  
HETATM    2  C   UNL     1      -9.740  10.016  64.424  1.00  0.00    -0.207 C  
ENDROOT
BRANCH   2   3
HETATM    3  O   UNL     1      -9.030  10.897  65.297  1.00  0.00    -0.194 OA 
BRANCH   3   4
HETATM    4  C   UNL     1      -9.490  12.148  65.299  1.00  0.00     0.027 A  
HETATM    5  N   UNL     1     -10.442  12.601  64.524  1.00  0.00    -0.335 NA 
HETATM    6  C   UNL     1     -10.595  13.912  64.877  1.00  0.00    -0.419 A  
HETATM    7  C   UNL     1      -9.705  14.292  65.892  1.00  0.00    -0.262 A  
HETATM    8  N   UNL     1      -9.036  13.112  66.172  1.00  0.00     0.015 NA 
HETATM    9  C   UNL     1      -9.677  15.628  66.367  1.00  0.00    -0.302 A  
HETATM   10  C   UNL     1     -10.619  16.529  65.826  1.00  0.00    -0.307 A  
HETATM   11  C   UNL     1     -11.521  14.834  64.364  1.00  0.00    -0.261 A  
HETATM   12  C   UNL     1     -11.535  16.137  64.855  1.00  0.00    -0.086 A  
BRANCH   9  13
HETATM   13  C   UNL     1      -8.793  16.113  67.453  1.00  0.00    -0.187 C  
HETATM   14  O   UNL     1      -7.577  16.125  67.380  1.00  0.00    -0.136 OA 
BRANCH  13  15
HETATM   15  O   UNL     1      -9.529  16.462  68.543  1.00  0.00    -0.212 OA 
BRANCH  15  16
HETATM   16  C   UNL     1      -9.558  15.496  69.607  1.00  0.00    -0.262 C  
BRANCH  16  17
HETATM   17  C   UNL     1     -10.956  15.318  70.087  1.00  0.00    -0.291 C  
HETATM   18  O   UNL     1     -13.091  14.698  70.311  1.00  0.00    -0.230 OA 
HETATM   19  C   UNL     1     -11.943  14.629  69.556  1.00  0.00    -0.319 C  
HETATM   20  O   UNL     1     -11.367  15.950  71.249  1.00  0.00    -0.379 OA 
HETATM   21  C   UNL     1     -11.958  13.748  68.384  1.00  0.00    -0.395 C  
HETATM   22  C   UNL     1     -12.681  15.508  71.355  1.00  0.00    -0.451 C  
HETATM   23  O   UNL     1     -13.421  15.814  72.282  1.00  0.00    -0.467 OA 
ENDBRANCH  16  17
ENDBRANCH  15  16
ENDBRANCH  13  15
ENDBRANCH   9  13
BRANCH   8  24
HETATM   24  C   UNL     1      -8.179  12.801  67.304  1.00  0.00    -0.181 C  
BRANCH  24  25
HETATM   25  C   UNL     1      -8.570  11.581  68.108  1.00  0.00    -0.156 A  
HETATM   26  C   UNL     1      -7.676  10.594  68.521  1.00  0.00    -0.107 A  
HETATM   27  C   UNL     1     -10.364  10.325  69.192  1.00  0.00    -0.241 A  
HETATM   28  C   UNL     1      -9.482   9.313  69.602  1.00  0.00    -0.188 A  
HETATM   29  C   UNL     1      -9.916  11.440  68.471  1.00  0.00    -0.203 A  
HETATM   30  C   UNL     1      -8.119   9.520  69.304  1.00  0.00    -0.103 A  
BRANCH  28  31
HETATM   31  C   UNL     1      -9.946   8.123  70.385  1.00  0.00    -0.190 A  
HETATM   32  C   UNL     1      -9.527   5.765  70.993  1.00  0.00    -0.195 A  
HETATM   33  C   UNL     1      -9.081   7.009  70.532  1.00  0.00    -0.156 A  
HETATM   34  C   UNL     1     -10.842   5.610  71.396  1.00  0.00    -0.290 A  
HETATM   35  C   UNL     1     -11.694   6.710  71.372  1.00  0.00    -0.374 A  
HETATM   36  C   UNL     1     -11.256   7.962  70.894  1.00  0.00    -0.284 A  
BRANCH  36  37
HETATM   37  C   UNL     1     -12.249   9.047  71.003  1.00  0.00    -0.223 C  
HETATM   38  N   UNL     1     -13.378   9.087  70.376  1.00  0.00     0.774 NA 
HETATM   39  O   UNL     1     -13.999  10.301  70.807  1.00  0.00     0.277 OA 
HETATM   40  C   UNL     1     -13.135  10.880  71.699  1.00  0.00    -0.433 C  
HETATM   41  N   UNL     1     -12.061  10.086  71.826  1.00  0.00    -0.327 NA 
HETATM   42  O   UNL     1     -13.306  11.951  72.265  1.00  0.00    -0.471 OA 
ENDBRANCH  36  37
ENDBRANCH  28  31
ENDBRANCH  24  25
ENDBRANCH   8  24
ENDBRANCH   3   4
ENDBRANCH   2   3
TORSDOF 10
ENDMDL
MODEL      162
REMARK 921   NORMALIZED FREE ENERGY PREDICTED BY IDOCK:   -4.56 KCAL/MOL
REMARK 922        TOTAL FREE ENERGY PREDICTED BY IDOCK:  -10.15 KCAL/MOL
REMARK 923 INTER-LIGAND FREE ENERGY PREDICTED BY IDOCK:   -7.99 KCAL/MOL
REMARK 924 INTRA-LIGAND FREE ENERGY PREDICTED BY IDOCK:   -2.16 KCAL/MOL
REMARK 927      BINDING AFFINITY PREDICTED BY RF-SCORE:    0.00 PKD
ROOT
HETATM    1  C   UNL     1     -10.351  15.339  64.963  1.00  0.00    -0.375 C  
HETATM    2  C   UNL     1     -11.278  15.483  66.156  1.00  0.00    -0.102 C  
ENDROOT
BRANCH   2   3
HETATM    3  O   UNL     1     -11.134  16.791  66.715  1.00  0.00     0.016 OA 
BRANCH   3   4
HETATM    4  C   UNL     1      -9.871  17.209  66.800  1.00  0.00    -0.285 A  
HETATM    5  N   UNL     1      -9.279  17.994  65.938  1.00  0.00    -0.501 NA 
HETATM    6  C   UNL     1      -8.015  18.171  66.427  1.00  0.00    -0.266 A  
HETATM    7  C   UNL     1      -7.809  17.466  67.621  1.00  0.00    -0.191 A  
HETATM    8  N   UNL     1      -9.047  16.891  67.856  1.00  0.00    -0.229 NA 
HETATM    9  C   UNL     1      -6.544  17.485  68.264  1.00  0.00    -0.188 A  
HETATM   10  C   UNL     1      -5.537  18.291  67.691  1.00  0.00    -0.150 A  
HETATM   11  C   UNL     1      -6.991  18.966  65.886  1.00  0.00    -0.304 A  
HETATM   12  C   UNL     1      -5.760  19.030  66.533  1.00  0.00    -0.172 A  
BRANCH   9  13
HETATM   13  C   UNL     1      -6.243  16.796  69.541  1.00  0.00    -0.227 C  
HETATM   14  O   UNL     1      -5.957  17.379  70.571  1.00  0.00    -0.056 OA 
BRANCH  13  15
HETATM   15  O   UNL     1      -6.261  15.447  69.368  1.00  0.00    -0.114 OA 
BRANCH  15  16
HETATM   16  C   UNL     1      -5.597  14.682  70.387  1.00  0.00    -0.139 C  
BRANCH  16  17
HETATM   17  C   UNL     1      -5.737  13.228  70.097  1.00  0.00    -0.137 C  
HETATM   18  O   UNL     1      -5.790  11.228  69.101  1.00  0.00    -0.041 OA 
HETATM   19  C   UNL     1      -5.591  12.582  68.960  1.00  0.00    -0.065 C  
HETATM   20  O   UNL     1      -6.087  12.357  71.115  1.00  0.00    -0.166 OA 
HETATM   21  C   UNL     1      -5.155  13.067  67.646  1.00  0.00    -0.059 C  
HETATM   22  C   UNL     1      -6.075  11.135  70.452  1.00  0.00    -0.126 C  
HETATM   23  O   UNL     1      -6.307  10.067  71.005  1.00  0.00    -0.253 OA 
ENDBRANCH  16  17
ENDBRANCH  15  16
ENDBRANCH  13  15
ENDBRANCH   9  13
BRANCH   8  24
HETATM   24  C   UNL     1      -9.538  16.257  69.069  1.00  0.00    -0.257 C  
BRANCH  24  25
HETATM   25  C   UNL     1      -9.782  14.768  68.979  1.00  0.00    -0.190 A  
HETATM   26  C   UNL     1      -8.888  13.859  68.414  1.00  0.00    -0.177 A  
HETATM   27  C   UNL     1     -11.292  12.903  69.440  1.00  0.00    -0.265 A  
HETATM   28  C   UNL     1     -10.412  11.975  68.860  1.00  0.00    -0.154 A  
HETATM   29  C   UNL     1     -10.979  14.267  69.510  1.00  0.00    -0.206 A  
HETATM   30  C   UNL     1      -9.176  12.489  68.415  1.00  0.00    -0.139 A  
BRANCH  28  31
HETATM   31  C   UNL     1     -10.729  10.513  68.794  1.00  0.00    -0.249 A  
HETATM   32  C   UNL     1     -11.191   8.444  70.065  1.00  0.00    -0.085 A  
HETATM   33  C   UNL     1     -11.151   9.840  69.970  1.00  0.00    -0.311 A  
HETATM   34  C   UNL     1     -10.883   7.669  68.960  1.00  0.00    -0.059 A  
HETATM   35  C   UNL     1     -10.574   8.293  67.756  1.00  0.00    -0.236 A  
HETATM   36  C   UNL     1     -10.515   9.699  67.657  1.00  0.00    -0.317 A  
BRANCH  36  37
HETATM   37  C   UNL     1     -10.250  10.212  66.300  1.00  0.00    -0.219 C  
HETATM   38  N   UNL     1      -9.145  10.056  65.650  1.00  0.00    -0.171 NA 
HETATM   39  O   UNL     1      -9.361  10.699  64.391  1.00  0.00    -0.212 OA 
HETATM   40  C   UNL     1     -10.642  11.186  64.422  1.00  0.00    -0.343 C  
HETATM   41  N   UNL     1     -11.189  10.863  65.603  1.00  0.00     0.138 NA 
HETATM   42  O   UNL     1     -11.184  11.825  63.531  1.00  0.00    -0.408 OA 
ENDBRANCH  36  37
ENDBRANCH  28  31
ENDBRANCH  24  25
ENDBRANCH   8  24
ENDBRANCH   3   4
ENDBRANCH   2   3
TORSDOF 10
ENDMDL
MODEL      163
REMARK 921   NORMALIZED FREE ENERGY PREDICTED BY IDOCK:   -4.56 KCAL/MOL
REMARK 922        TOTAL FREE ENERGY PREDICTED BY IDOCK:  -10.14 KCAL/MOL
REMARK 923 INTER-LIGAND FREE ENERGY PREDICTED BY IDOCK:   -8.04 KCAL/MOL
REMARK 924 INTRA-LIGAND FREE ENERGY PREDICTED BY IDOCK:   -2.10 KCAL/MOL
REMARK 927      BINDING AFFINITY PREDICTED BY RF-SCORE:    0.00 PKD
ROOT
HETATM    1  C   UNL     1     -13.284  11.754  71.932  1.00  0.00    -0.468 C  
HETATM    2  C   UNL     1     -12.639  10.423  71.588  1.00  0.00    -0.417 C  
ENDROOT
BRANCH   2   3
HETATM    3  O   UNL     1     -12.707  10.213  70.175  1.00  0.00    -0.133 OA 
BRANCH   3   4
HETATM    4  C   UNL     1     -12.023  11.106  69.459  1.00  0.00    -0.355 A  
HETATM    5  N   UNL     1     -12.520  12.203  68.950  1.00  0.00     0.117 NA 
HETATM    6  C   UNL     1     -11.471  12.811  68.321  1.00  0.00    -0.314 A  
HETATM    7  C   UNL     1     -10.288  12.066  68.430  1.00  0.00    -0.214 A  
HETATM    8  N   UNL     1     -10.673  10.990  69.212  1.00  0.00    -0.227 NA 
HETATM    9  C   UNL     1      -9.094  12.508  67.804  1.00  0.00    -0.191 A  
HETATM   10  C   UNL     1      -9.134  13.750  67.134  1.00  0.00    -0.243 A  
HETATM   11  C   UNL     1     -11.473  14.044  67.650  1.00  0.00    -0.362 A  
HETATM   12  C   UNL     1     -10.297  14.513  67.071  1.00  0.00    -0.263 A  
BRANCH   9  13
HETATM   13  C   UNL     1      -7.793  11.804  67.888  1.00  0.00    -0.135 C  
HETATM   14  O   UNL     1      -7.174  11.651  68.926  1.00  0.00    -0.107 OA 
BRANCH  13  15
HETATM   15  O   UNL     1      -7.375  11.430  66.648  1.00  0.00    -0.144 OA 
BRANCH  15  16
HETATM   16  C   UNL     1      -7.813  10.133  66.211  1.00  0.00    -0.113 C  
BRANCH  16  17
HETATM   17  C   UNL     1      -8.617  10.268  64.965  1.00  0.00    -0.180 C  
HETATM   18  O   UNL     1      -9.519   9.967  62.942  1.00  0.00    -0.276 OA 
HETATM   19  C   UNL     1      -8.615   9.524  63.880  1.00  0.00    -0.212 C  
HETATM   20  O   UNL     1      -9.514  11.317  64.839  1.00  0.00    -0.218 OA 
HETATM   21  C   UNL     1      -7.896   8.279  63.590  1.00  0.00    -0.152 C  
HETATM   22  C   UNL     1     -10.063  11.064  63.587  1.00  0.00    -0.371 C  
HETATM   23  O   UNL     1     -10.943  11.754  63.086  1.00  0.00    -0.310 OA 
ENDBRANCH  16  17
ENDBRANCH  15  16
ENDBRANCH  13  15
ENDBRANCH   9  13
BRANCH   8  24
HETATM   24  C   UNL     1      -9.835  10.010  69.884  1.00  0.00    -0.224 C  
BRANCH  24  25
HETATM   25  C   UNL     1      -9.544   8.750  69.101  1.00  0.00    -0.162 A  
HETATM   26  C   UNL     1      -8.371   8.005  69.221  1.00  0.00    -0.134 A  
HETATM   27  C   UNL     1     -10.315   7.150  67.422  1.00  0.00    -0.324 A  
HETATM   28  C   UNL     1      -9.135   6.396  67.519  1.00  0.00    -0.114 A  
HETATM   29  C   UNL     1     -10.521   8.294  68.205  1.00  0.00    -0.211 A  
HETATM   30  C   UNL     1      -8.205   6.822  68.490  1.00  0.00    -0.120 A  
BRANCH  28  31
HETATM   31  C   UNL     1      -8.910   5.163  66.698  1.00  0.00    -0.112 A  
HETATM   32  C   UNL     1      -8.947   4.154  64.442  1.00  0.00    -0.143 A  
HETATM   33  C   UNL     1      -8.866   5.270  65.283  1.00  0.00    -0.144 A  
HETATM   34  C   UNL     1      -8.997   2.882  64.986  1.00  0.00    -0.136 A  
HETATM   35  C   UNL     1      -8.929   2.731  66.367  1.00  0.00    -0.153 A  
HETATM   36  C   UNL     1      -8.865   3.851  67.222  1.00  0.00    -0.135 A  
BRANCH  36  37
HETATM   37  C   UNL     1      -8.720   3.528  68.653  1.00  0.00    -0.100 C  
HETATM   38  N   UNL     1      -7.612   3.198  69.232  1.00  0.00    -0.048 NA 
HETATM   39  O   UNL     1      -7.956   3.000  70.606  1.00  0.00    -0.046 OA 
HETATM   40  C   UNL     1      -9.298   3.255  70.708  1.00  0.00    -0.153 C  
HETATM   41  N   UNL     1      -9.758   3.598  69.495  1.00  0.00    -0.129 NA 
HETATM   42  O   UNL     1      -9.966   3.163  71.728  1.00  0.00    -0.170 OA 
ENDBRANCH  36  37
ENDBRANCH  28  31
ENDBRANCH  24  25
ENDBRANCH   8  24
ENDBRANCH   3   4
ENDBRANCH   2   3
TORSDOF 10
ENDMDL
MODEL      164
REMARK 921   NORMALIZED FREE ENERGY PREDICTED BY IDOCK:   -4.55 KCAL/MOL
REMARK 922        TOTAL FREE ENERGY PREDICTED BY IDOCK:  -10.12 KCAL/MOL
REMARK 923 INTER-LIGAND FREE ENERGY PREDICTED BY IDOCK:   -8.66 KCAL/MOL
REMARK 924 INTRA-LIGAND FREE ENERGY PREDICTED BY IDOCK:   -1.46 KCAL/MOL
REMARK 927      BINDING AFFINITY PREDICTED BY RF-SCORE:    0.00 PKD
ROOT
HETATM    1  C   UNL     1      -8.013  10.604  62.360  1.00  0.00    -0.217 C  
HETATM    2  C   UNL     1      -7.656  10.420  63.824  1.00  0.00    -0.029 C  
ENDROOT
BRANCH   2   3
HETATM    3  O   UNL     1      -8.561   9.487  64.420  1.00  0.00    -0.170 OA 
BRANCH   3   4
HETATM    4  C   UNL     1      -8.248   9.149  65.671  1.00  0.00    -0.120 A  
HETATM    5  N   UNL     1      -7.064   8.765  66.072  1.00  0.00    -0.083 NA 
HETATM    6  C   UNL     1      -7.198   8.540  67.414  1.00  0.00    -0.084 A  
HETATM    7  C   UNL     1      -8.505   8.780  67.860  1.00  0.00    -0.126 A  
HETATM    8  N   UNL     1      -9.146   9.216  66.712  1.00  0.00    -0.140 NA 
HETATM    9  C   UNL     1      -8.859   8.560  69.216  1.00  0.00    -0.142 A  
HETATM   10  C   UNL     1      -7.831   8.161  70.098  1.00  0.00    -0.098 A  
HETATM   11  C   UNL     1      -6.200   8.148  68.319  1.00  0.00    -0.050 A  
HETATM   12  C   UNL     1      -6.523   7.973  69.663  1.00  0.00    -0.037 A  
BRANCH   9  13
HETATM   13  C   UNL     1     -10.204   8.812  69.782  1.00  0.00    -0.202 C  
HETATM   14  O   UNL     1     -11.050   7.947  69.924  1.00  0.00    -0.222 OA 
BRANCH  13  15
HETATM   15  O   UNL     1     -10.369  10.137  70.043  1.00  0.00    -0.260 OA 
BRANCH  15  16
HETATM   16  C   UNL     1     -11.539  10.742  69.468  1.00  0.00    -0.303 C  
BRANCH  16  17
HETATM   17  C   UNL     1     -12.171  11.656  70.458  1.00  0.00    -0.361 C  
HETATM   18  O   UNL     1     -13.307  12.503  72.186  1.00  0.00    -0.525 OA 
HETATM   19  C   UNL     1     -12.922  11.374  71.501  1.00  0.00    -0.399 C  
HETATM   20  O   UNL     1     -12.010  13.025  70.325  1.00  0.00    -0.337 OA 
HETATM   21  C   UNL     1     -13.295  10.076  72.074  1.00  0.00    -0.513 C  
HETATM   22  C   UNL     1     -12.705  13.496  71.434  1.00  0.00    -0.336 C  
HETATM   23  O   UNL     1     -12.790  14.684  71.720  1.00  0.00    -0.306 OA 
ENDBRANCH  16  17
ENDBRANCH  15  16
ENDBRANCH  13  15
ENDBRANCH   9  13
BRANCH   8  24
HETATM   24  C   UNL     1     -10.444   9.861  66.587  1.00  0.00    -0.169 C  
BRANCH  24  25
HETATM   25  C   UNL     1     -10.430  11.372  66.613  1.00  0.00    -0.285 A  
HETATM   26  C   UNL     1     -11.565  12.170  66.469  1.00  0.00    -0.425 A  
HETATM   27  C   UNL     1      -9.097  13.411  66.814  1.00  0.00    -0.221 A  
HETATM   28  C   UNL     1     -10.226  14.230  66.655  1.00  0.00    -0.272 A  
HETATM   29  C   UNL     1      -9.198  12.013  66.806  1.00  0.00    -0.201 A  
HETATM   30  C   UNL     1     -11.465  13.564  66.553  1.00  0.00    -0.365 A  
BRANCH  28  31
HETATM   31  C   UNL     1     -10.132  15.725  66.677  1.00  0.00    -0.287 A  
HETATM   32  C   UNL     1     -10.721  17.843  65.549  1.00  0.00     0.020 A  
HETATM   33  C   UNL     1     -10.945  16.484  65.795  1.00  0.00    -0.010 A  
HETATM   34  C   UNL     1      -9.722  18.513  66.234  1.00  0.00    -0.315 A  
HETATM   35  C   UNL     1      -8.977  17.830  67.190  1.00  0.00    -0.249 A  
HETATM   36  C   UNL     1      -9.186  16.456  67.431  1.00  0.00    -0.213 A  
BRANCH  36  37
HETATM   37  C   UNL     1      -8.373  15.892  68.525  1.00  0.00    -0.182 C  
HETATM   38  N   UNL     1      -8.844  15.261  69.550  1.00  0.00    -0.227 NA 
HETATM   39  O   UNL     1      -7.695  14.890  70.318  1.00  0.00     0.204 OA 
HETATM   40  C   UNL     1      -6.606  15.355  69.628  1.00  0.00    -0.178 C  
HETATM   41  N   UNL     1      -7.037  15.959  68.511  1.00  0.00    -0.120 NA 
HETATM   42  O   UNL     1      -5.440  15.254  69.985  1.00  0.00    -0.110 OA 
ENDBRANCH  36  37
ENDBRANCH  28  31
ENDBRANCH  24  25
ENDBRANCH   8  24
ENDBRANCH   3   4
ENDBRANCH   2   3
TORSDOF 10
ENDMDL
MODEL      165
REMARK 921   NORMALIZED FREE ENERGY PREDICTED BY IDOCK:   -4.53 KCAL/MOL
REMARK 922        TOTAL FREE ENERGY PREDICTED BY IDOCK:  -10.09 KCAL/MOL
REMARK 923 INTER-LIGAND FREE ENERGY PREDICTED BY IDOCK:   -6.94 KCAL/MOL
REMARK 924 INTRA-LIGAND FREE ENERGY PREDICTED BY IDOCK:   -3.15 KCAL/MOL
REMARK 927      BINDING AFFINITY PREDICTED BY RF-SCORE:    0.00 PKD
ROOT
HETATM    1  C   UNL     1      -6.409   5.537  70.494  1.00  0.00    -0.027 C  
HETATM    2  C   UNL     1      -7.921   5.526  70.636  1.00  0.00    -0.103 C  
ENDROOT
BRANCH   2   3
HETATM    3  O   UNL     1      -8.300   6.340  71.748  1.00  0.00    -0.120 OA 
BRANCH   3   4
HETATM    4  C   UNL     1      -9.563   6.765  71.705  1.00  0.00    -0.162 A  
HETATM    5  N   UNL     1     -10.605   6.067  72.078  1.00  0.00    -0.215 NA 
HETATM    6  C   UNL     1     -11.676   6.893  71.879  1.00  0.00    -0.299 A  
HETATM    7  C   UNL     1     -11.293   8.136  71.355  1.00  0.00    -0.259 A  
HETATM    8  N   UNL     1      -9.913   8.033  71.298  1.00  0.00    -0.172 NA 
HETATM    9  C   UNL     1     -12.266   9.118  71.036  1.00  0.00    -0.302 A  
HETATM   10  C   UNL     1     -13.613   8.816  71.330  1.00  0.00    -0.292 A  
HETATM   11  C   UNL     1     -13.025   6.628  72.162  1.00  0.00    -0.035 A  
HETATM   12  C   UNL     1     -13.985   7.601  71.898  1.00  0.00    -0.400 A  
BRANCH   9  13
HETATM   13  C   UNL     1     -11.953  10.466  70.507  1.00  0.00    -0.334 C  
HETATM   14  O   UNL     1     -12.084  11.491  71.153  1.00  0.00    -0.253 OA 
BRANCH  13  15
HETATM   15  O   UNL     1     -11.580  10.389  69.202  1.00  0.00    -0.232 OA 
BRANCH  15  16
HETATM   16  C   UNL     1     -12.028  11.468  68.364  1.00  0.00    -0.198 C  
BRANCH  16  17
HETATM   17  C   UNL     1     -10.906  11.938  67.506  1.00  0.00    -0.238 C  
HETATM   18  O   UNL     1      -9.668  12.705  65.810  1.00  0.00    -0.247 OA 
HETATM   19  C   UNL     1     -10.916  12.327  66.249  1.00  0.00    -0.291 C  
HETATM   20  O   UNL     1      -9.622  11.986  68.024  1.00  0.00    -0.186 OA 
HETATM   21  C   UNL     1     -12.041  12.513  65.327  1.00  0.00    -0.500 C  
HETATM   22  C   UNL     1      -8.906  12.495  66.946  1.00  0.00    -0.203 C  
HETATM   23  O   UNL     1      -7.704  12.729  66.986  1.00  0.00    -0.109 OA 
ENDBRANCH  16  17
ENDBRANCH  15  16
ENDBRANCH  13  15
ENDBRANCH   9  13
BRANCH   8  24
HETATM   24  C   UNL     1      -8.932   9.086  71.088  1.00  0.00    -0.235 C  
BRANCH  24  25
HETATM   25  C   UNL     1      -8.288   9.119  69.721  1.00  0.00    -0.136 A  
HETATM   26  C   UNL     1      -8.933   8.755  68.540  1.00  0.00    -0.138 A  
HETATM   27  C   UNL     1      -6.280   9.587  68.407  1.00  0.00    -0.048 A  
HETATM   28  C   UNL     1      -6.909   9.210  67.210  1.00  0.00    -0.077 A  
HETATM   29  C   UNL     1      -6.958   9.555  69.633  1.00  0.00    -0.066 A  
HETATM   30  C   UNL     1      -8.272   8.862  67.310  1.00  0.00    -0.104 A  
BRANCH  28  31
HETATM   31  C   UNL     1      -6.200   9.254  65.891  1.00  0.00    -0.056 A  
HETATM   32  C   UNL     1      -5.153  10.676  64.162  1.00  0.00    -0.156 A  
HETATM   33  C   UNL     1      -5.581  10.462  65.477  1.00  0.00    -0.108 A  
HETATM   34  C   UNL     1      -5.259   9.659  63.229  1.00  0.00    -0.074 A  
HETATM   35  C   UNL     1      -5.757   8.422  63.625  1.00  0.00    -0.070 A  
HETATM   36  C   UNL     1      -6.206   8.205  64.944  1.00  0.00    -0.049 A  
BRANCH  36  37
HETATM   37  C   UNL     1      -6.635   6.823  65.231  1.00  0.00    -0.050 C  
HETATM   38  N   UNL     1      -6.037   6.014  66.042  1.00  0.00    -0.031 NA 
HETATM   39  O   UNL     1      -6.815   4.814  66.009  1.00  0.00    -0.055 OA 
HETATM   40  C   UNL     1      -7.852   5.051  65.145  1.00  0.00    -0.089 C  
HETATM   41  N   UNL     1      -7.740   6.305  64.682  1.00  0.00    -0.099 NA 
HETATM   42  O   UNL     1      -8.719   4.246  64.834  1.00  0.00    -0.120 OA 
ENDBRANCH  36  37
ENDBRANCH  28  31
ENDBRANCH  24  25
ENDBRANCH   8  24
ENDBRANCH   3   4
ENDBRANCH   2   3
TORSDOF 10
ENDMDL
MODEL      166
REMARK 921   NORMALIZED FREE ENERGY PREDICTED BY IDOCK:   -4.52 KCAL/MOL
REMARK 922        TOTAL FREE ENERGY PREDICTED BY IDOCK:  -10.08 KCAL/MOL
REMARK 923 INTER-LIGAND FREE ENERGY PREDICTED BY IDOCK:   -7.80 KCAL/MOL
REMARK 924 INTRA-LIGAND FREE ENERGY PREDICTED BY IDOCK:   -2.28 KCAL/MOL
REMARK 927      BINDING AFFINITY PREDICTED BY RF-SCORE:    0.00 PKD
ROOT
HETATM    1  C   UNL     1      -5.690   6.145  69.133  1.00  0.00    -0.019 C  
HETATM    2  C   UNL     1      -6.888   6.855  69.739  1.00  0.00    -0.051 C  
ENDROOT
BRANCH   2   3
HETATM    3  O   UNL     1      -7.345   7.867  68.838  1.00  0.00    -0.081 OA 
BRANCH   3   4
HETATM    4  C   UNL     1      -8.413   8.538  69.272  1.00  0.00    -0.128 A  
HETATM    5  N   UNL     1      -9.088   8.258  70.356  1.00  0.00    -0.145 NA 
HETATM    6  C   UNL     1     -10.074   9.202  70.415  1.00  0.00    -0.218 A  
HETATM    7  C   UNL     1     -10.021  10.088  69.330  1.00  0.00    -0.223 A  
HETATM    8  N   UNL     1      -8.905   9.655  68.634  1.00  0.00    -0.127 NA 
HETATM    9  C   UNL     1     -10.989  11.115  69.186  1.00  0.00    -0.295 A  
HETATM   10  C   UNL     1     -11.954  11.244  70.208  1.00  0.00    -0.466 A  
HETATM   11  C   UNL     1     -11.046   9.362  71.415  1.00  0.00    -0.450 A  
HETATM   12  C   UNL     1     -11.974  10.396  71.310  1.00  0.00    -0.425 A  
BRANCH   9  13
HETATM   13  C   UNL     1     -10.995  12.113  68.091  1.00  0.00    -0.230 C  
HETATM   14  O   UNL     1     -10.870  13.311  68.269  1.00  0.00    -0.240 OA 
BRANCH  13  15
HETATM   15  O   UNL     1     -11.232  11.506  66.897  1.00  0.00    -0.299 OA 
BRANCH  15  16
HETATM   16  C   UNL     1     -12.253  12.109  66.085  1.00  0.00     0.245 C  
BRANCH  16  17
HETATM   17  C   UNL     1     -11.668  13.220  65.285  1.00  0.00    -0.330 C  
HETATM   18  O   UNL     1     -10.475  14.430  63.833  1.00  0.00     0.578 OA 
HETATM   19  C   UNL     1     -10.736  13.185  64.356  1.00  0.00    -0.407 C  
HETATM   20  O   UNL     1     -12.101  14.518  65.497  1.00  0.00    -0.357 OA 
HETATM   21  C   UNL     1     -10.048  12.040  63.751  1.00  0.00    -0.419 C  
HETATM   22  C   UNL     1     -11.355  15.218  64.554  1.00  0.00    -0.300 C  
HETATM   23  O   UNL     1     -11.454  16.426  64.380  1.00  0.00    -0.744 OA 
ENDBRANCH  16  17
ENDBRANCH  15  16
ENDBRANCH  13  15
ENDBRANCH   9  13
BRANCH   8  24
HETATM   24  C   UNL     1      -8.184  10.327  67.565  1.00  0.00    -0.114 C  
BRANCH  24  25
HETATM   25  C   UNL     1      -7.872  11.787  67.802  1.00  0.00    -0.135 A  
HETATM   26  C   UNL     1      -7.353  12.296  68.992  1.00  0.00     0.017 A  
HETATM   27  C   UNL     1      -7.871  14.060  66.902  1.00  0.00     0.267 A  
HETATM   28  C   UNL     1      -7.364  14.592  68.098  1.00  0.00    -0.129 A  
HETATM   29  C   UNL     1      -8.108  12.687  66.753  1.00  0.00     0.073 A  
HETATM   30  C   UNL     1      -7.050  13.658  69.108  1.00  0.00    -0.036 A  
BRANCH  28  31
HETATM   31  C   UNL     1      -7.093  16.056  68.265  1.00  0.00    -0.122 A  
HETATM   32  C   UNL     1      -5.379  17.822  68.487  1.00  0.00    -0.152 A  
HETATM   33  C   UNL     1      -5.774  16.543  68.079  1.00  0.00    -0.123 A  
HETATM   34  C   UNL     1      -6.311  18.691  69.028  1.00  0.00    -0.261 A  
HETATM   35  C   UNL     1      -7.640  18.290  69.123  1.00  0.00    -0.086 A  
HETATM   36  C   UNL     1      -8.041  16.997  68.730  1.00  0.00    -0.250 A  
BRANCH  36  37
HETATM   37  C   UNL     1      -9.492  16.747  68.818  1.00  0.00    -0.259 C  
HETATM   38  N   UNL     1     -10.342  16.961  67.868  1.00  0.00    -0.318 NA 
HETATM   39  O   UNL     1     -11.606  16.558  68.402  1.00  0.00    -0.231 OA 
HETATM   40  C   UNL     1     -11.361  16.115  69.676  1.00  0.00    -0.316 C  
HETATM   41  N   UNL     1     -10.046  16.221  69.917  1.00  0.00    -0.121 NA 
HETATM   42  O   UNL     1     -12.204  15.713  70.465  1.00  0.00    -0.372 OA 
ENDBRANCH  36  37
ENDBRANCH  28  31
ENDBRANCH  24  25
ENDBRANCH   8  24
ENDBRANCH   3   4
ENDBRANCH   2   3
TORSDOF 10
ENDMDL
MODEL      167
REMARK 921   NORMALIZED FREE ENERGY PREDICTED BY IDOCK:   -4.47 KCAL/MOL
REMARK 922        TOTAL FREE ENERGY PREDICTED BY IDOCK:  -10.00 KCAL/MOL
REMARK 923 INTER-LIGAND FREE ENERGY PREDICTED BY IDOCK:   -7.32 KCAL/MOL
REMARK 924 INTRA-LIGAND FREE ENERGY PREDICTED BY IDOCK:   -2.68 KCAL/MOL
REMARK 927      BINDING AFFINITY PREDICTED BY RF-SCORE:    0.00 PKD
ROOT
HETATM    1  C   UNL     1     -10.673  12.565  65.558  1.00  0.00    -0.303 C  
HETATM    2  C   UNL     1     -11.160  11.603  66.627  1.00  0.00    -0.307 C  
ENDROOT
BRANCH   2   3
HETATM    3  O   UNL     1     -10.747  12.072  67.912  1.00  0.00    -0.198 OA 
BRANCH   3   4
HETATM    4  C   UNL     1     -11.145  11.303  68.926  1.00  0.00    -0.238 A  
HETATM    5  N   UNL     1     -12.373  11.218  69.369  1.00  0.00    -0.302 NA 
HETATM    6  C   UNL     1     -12.322  10.311  70.390  1.00  0.00    -0.238 A  
HETATM    7  C   UNL     1     -11.023   9.826  70.598  1.00  0.00    -0.331 A  
HETATM    8  N   UNL     1     -10.296  10.456  69.602  1.00  0.00    -0.237 NA 
HETATM    9  C   UNL     1     -10.753   8.906  71.644  1.00  0.00    -0.418 A  
HETATM   10  C   UNL     1     -11.849   8.457  72.411  1.00  0.00    -0.452 A  
HETATM   11  C   UNL     1     -13.389   9.840  71.169  1.00  0.00    -0.360 A  
HETATM   12  C   UNL     1     -13.145   8.902  72.170  1.00  0.00    -0.475 A  
BRANCH   9  13
HETATM   13  C   UNL     1      -9.421   8.319  71.920  1.00  0.00    -0.220 C  
HETATM   14  O   UNL     1      -8.532   8.909  72.509  1.00  0.00    -0.395 OA 
BRANCH  13  15
HETATM   15  O   UNL     1      -9.324   7.081  71.365  1.00  0.00    -0.156 OA 
BRANCH  15  16
HETATM   16  C   UNL     1      -8.231   6.896  70.450  1.00  0.00    -0.124 C  
BRANCH  16  17
HETATM   17  C   UNL     1      -7.293   5.873  70.988  1.00  0.00    -0.082 C  
HETATM   18  O   UNL     1      -5.662   4.364  71.230  1.00  0.00    -0.014 OA 
HETATM   19  C   UNL     1      -6.319   5.226  70.384  1.00  0.00    -0.027 C  
HETATM   20  O   UNL     1      -7.402   5.472  72.310  1.00  0.00    -0.090 OA 
HETATM   21  C   UNL     1      -5.789   5.373  69.024  1.00  0.00    -0.023 C  
HETATM   22  C   UNL     1      -6.353   4.564  72.412  1.00  0.00    -0.022 C  
HETATM   23  O   UNL     1      -6.067   3.981  73.451  1.00  0.00    -0.013 OA 
ENDBRANCH  16  17
ENDBRANCH  15  16
ENDBRANCH  13  15
ENDBRANCH   9  13
BRANCH   8  24
HETATM   24  C   UNL     1      -8.949  10.164  69.138  1.00  0.00    -0.175 C  
BRANCH  24  25
HETATM   25  C   UNL     1      -8.837   9.084  68.086  1.00  0.00    -0.133 A  
HETATM   26  C   UNL     1      -9.901   8.287  67.663  1.00  0.00    -0.218 A  
HETATM   27  C   UNL     1      -7.393   7.877  66.526  1.00  0.00    -0.087 A  
HETATM   28  C   UNL     1      -8.449   7.055  66.100  1.00  0.00    -0.136 A  
HETATM   29  C   UNL     1      -7.586   8.877  67.489  1.00  0.00    -0.093 A  
HETATM   30  C   UNL     1      -9.716   7.340  66.648  1.00  0.00    -0.249 A  
BRANCH  28  31
HETATM   31  C   UNL     1      -8.258   5.992  65.061  1.00  0.00    -0.136 A  
HETATM   32  C   UNL     1      -8.158   5.463  62.650  1.00  0.00    -0.098 A  
HETATM   33  C   UNL     1      -8.059   6.372  63.709  1.00  0.00    -0.034 A  
HETATM   34  C   UNL     1      -8.385   4.122  62.911  1.00  0.00    -0.086 A  
HETATM   35  C   UNL     1      -8.475   3.692  64.230  1.00  0.00    -0.090 A  
HETATM   36  C   UNL     1      -8.393   4.605  65.302  1.00  0.00    -0.124 A  
BRANCH  36  37
HETATM   37  C   UNL     1      -8.428   3.990  66.642  1.00  0.00    -0.104 C  
HETATM   38  N   UNL     1      -7.535   3.183  67.112  1.00  0.00    -0.069 NA 
HETATM   39  O   UNL     1      -7.979   2.867  68.435  1.00  0.00    -0.057 OA 
HETATM   40  C   UNL     1      -9.144   3.564  68.626  1.00  0.00    -0.146 C  
HETATM   41  N   UNL     1      -9.404   4.269  67.515  1.00  0.00    -0.150 NA 
HETATM   42  O   UNL     1      -9.839   3.528  69.631  1.00  0.00    -0.110 OA 
ENDBRANCH  36  37
ENDBRANCH  28  31
ENDBRANCH  24  25
ENDBRANCH   8  24
ENDBRANCH   3   4
ENDBRANCH   2   3
TORSDOF 10
ENDMDL
MODEL      168
REMARK 921   NORMALIZED FREE ENERGY PREDICTED BY IDOCK:   -4.47 KCAL/MOL
REMARK 922        TOTAL FREE ENERGY PREDICTED BY IDOCK:  -10.00 KCAL/MOL
REMARK 923 INTER-LIGAND FREE ENERGY PREDICTED BY IDOCK:   -7.32 KCAL/MOL
REMARK 924 INTRA-LIGAND FREE ENERGY PREDICTED BY IDOCK:   -2.68 KCAL/MOL
REMARK 927      BINDING AFFINITY PREDICTED BY RF-SCORE:    0.00 PKD
ROOT
HETATM    1  C   UNL     1     -12.889  11.971  63.141  1.00  0.00    -0.184 C  
HETATM    2  C   UNL     1     -11.400  11.744  63.339  1.00  0.00    -0.344 C  
ENDROOT
BRANCH   2   3
HETATM    3  O   UNL     1     -11.188  11.011  64.548  1.00  0.00    -0.129 OA 
BRANCH   3   4
HETATM    4  C   UNL     1     -10.993  11.779  65.621  1.00  0.00    -0.295 A  
HETATM    5  N   UNL     1     -11.941  12.312  66.348  1.00  0.00    -0.624 NA 
HETATM    6  C   UNL     1     -11.290  12.993  67.338  1.00  0.00    -0.305 A  
HETATM    7  C   UNL     1      -9.896  12.892  67.218  1.00  0.00    -0.218 A  
HETATM    8  N   UNL     1      -9.741  12.061  66.121  1.00  0.00    -0.234 NA 
HETATM    9  C   UNL     1      -9.042  13.568  68.127  1.00  0.00    -0.199 A  
HETATM   10  C   UNL     1      -9.650  14.280  69.182  1.00  0.00     0.074 A  
HETATM   11  C   UNL     1     -11.861  13.707  68.403  1.00  0.00    -0.407 A  
HETATM   12  C   UNL     1     -11.032  14.336  69.329  1.00  0.00    -0.271 A  
BRANCH   9  13
HETATM   13  C   UNL     1      -7.562  13.496  68.096  1.00  0.00    -0.138 C  
HETATM   14  O   UNL     1      -6.885  13.925  67.178  1.00  0.00    -0.146 OA 
BRANCH  13  15
HETATM   15  O   UNL     1      -7.096  12.830  69.186  1.00  0.00    -0.068 OA 
BRANCH  15  16
HETATM   16  C   UNL     1      -6.407  11.598  68.912  1.00  0.00    -0.062 C  
BRANCH  16  17
HETATM   17  C   UNL     1      -6.705  10.607  69.982  1.00  0.00    -0.156 C  
HETATM   18  O   UNL     1      -7.702   9.128  71.329  1.00  0.00    -0.266 OA 
HETATM   19  C   UNL     1      -7.832   9.990  70.265  1.00  0.00    -0.040 C  
HETATM   20  O   UNL     1      -5.707  10.236  70.868  1.00  0.00    -0.082 OA 
HETATM   21  C   UNL     1      -9.120  10.008  69.564  1.00  0.00    -0.236 C  
HETATM   22  C   UNL     1      -6.368   9.300  71.656  1.00  0.00     0.005 C  
HETATM   23  O   UNL     1      -5.828   8.686  72.569  1.00  0.00    -0.062 OA 
ENDBRANCH  16  17
ENDBRANCH  15  16
ENDBRANCH  13  15
ENDBRANCH   9  13
BRANCH   8  24
HETATM   24  C   UNL     1      -8.542  11.379  65.662  1.00  0.00     0.044 C  
BRANCH  24  25
HETATM   25  C   UNL     1      -8.451   9.910  66.005  1.00  0.00    -0.135 A  
HETATM   26  C   UNL     1      -9.545   9.048  66.067  1.00  0.00    -0.342 A  
HETATM   27  C   UNL     1      -7.015   8.030  66.620  1.00  0.00    -0.072 A  
HETATM   28  C   UNL     1      -8.107   7.152  66.703  1.00  0.00    -0.109 A  
HETATM   29  C   UNL     1      -7.181   9.376  66.267  1.00  0.00    -0.092 A  
HETATM   30  C   UNL     1      -9.362   7.689  66.348  1.00  0.00    -0.228 A  
BRANCH  28  31
HETATM   31  C   UNL     1      -7.940   5.707  67.065  1.00  0.00    -0.102 A  
HETATM   32  C   UNL     1      -7.145   3.481  66.345  1.00  0.00    -0.063 A  
HETATM   33  C   UNL     1      -7.128   4.877  66.250  1.00  0.00    -0.072 A  
HETATM   34  C   UNL     1      -7.920   2.865  67.312  1.00  0.00    -0.077 A  
HETATM   35  C   UNL     1      -8.645   3.650  68.203  1.00  0.00    -0.117 A  
HETATM   36  C   UNL     1      -8.646   5.056  68.103  1.00  0.00    -0.102 A  
BRANCH  36  37
HETATM   37  C   UNL     1      -9.399   5.751  69.164  1.00  0.00    -0.123 C  
HETATM   38  N   UNL     1      -8.870   6.348  70.181  1.00  0.00    -0.149 NA 
HETATM   39  O   UNL     1      -9.975   6.883  70.914  1.00  0.00    -0.189 OA 
HETATM   40  C   UNL     1     -11.103   6.538  70.215  1.00  0.00    -0.335 C  
HETATM   41  N   UNL     1     -10.733   5.852  69.124  1.00  0.00    -0.304 NA 
HETATM   42  O   UNL     1     -12.252   6.795  70.546  1.00  0.00    -0.363 OA 
ENDBRANCH  36  37
ENDBRANCH  28  31
ENDBRANCH  24  25
ENDBRANCH   8  24
ENDBRANCH   3   4
ENDBRANCH   2   3
TORSDOF 10
ENDMDL
MODEL      169
REMARK 921   NORMALIZED FREE ENERGY PREDICTED BY IDOCK:   -4.46 KCAL/MOL
REMARK 922        TOTAL FREE ENERGY PREDICTED BY IDOCK:   -9.98 KCAL/MOL
REMARK 923 INTER-LIGAND FREE ENERGY PREDICTED BY IDOCK:   -7.78 KCAL/MOL
REMARK 924 INTRA-LIGAND FREE ENERGY PREDICTED BY IDOCK:   -2.21 KCAL/MOL
REMARK 927      BINDING AFFINITY PREDICTED BY RF-SCORE:    0.00 PKD
ROOT
HETATM    1  C   UNL     1     -13.150   7.107  71.626  1.00  0.00    -0.410 C  
HETATM    2  C   UNL     1     -11.888   7.709  71.035  1.00  0.00    -0.285 C  
ENDROOT
BRANCH   2   3
HETATM    3  O   UNL     1     -10.864   6.713  70.986  1.00  0.00    -0.229 OA 
BRANCH   3   4
HETATM    4  C   UNL     1     -10.451   6.418  69.753  1.00  0.00    -0.215 A  
HETATM    5  N   UNL     1     -10.993   5.519  68.973  1.00  0.00    -0.096 NA 
HETATM    6  C   UNL     1     -10.268   5.568  67.816  1.00  0.00    -0.188 A  
HETATM    7  C   UNL     1      -9.236   6.515  67.881  1.00  0.00    -0.110 A  
HETATM    8  N   UNL     1      -9.413   7.078  69.134  1.00  0.00    -0.143 NA 
HETATM    9  C   UNL     1      -8.341   6.685  66.793  1.00  0.00    -0.115 A  
HETATM   10  C   UNL     1      -8.576   5.916  65.633  1.00  0.00    -0.155 A  
HETATM   11  C   UNL     1     -10.475   4.823  66.644  1.00  0.00    -0.216 A  
HETATM   12  C   UNL     1      -9.632   5.014  65.552  1.00  0.00    -0.105 A  
BRANCH   9  13
HETATM   13  C   UNL     1      -7.242   7.678  66.760  1.00  0.00    -0.088 C  
HETATM   14  O   UNL     1      -7.403   8.854  66.486  1.00  0.00    -0.083 OA 
BRANCH  13  15
HETATM   15  O   UNL     1      -6.048   7.073  67.004  1.00  0.00    -0.033 OA 
BRANCH  15  16
HETATM   16  C   UNL     1      -5.571   7.165  68.357  1.00  0.00    -0.022 C  
BRANCH  16  17
HETATM   17  C   UNL     1      -5.779   5.866  69.053  1.00  0.00    -0.012 C  
HETATM   18  O   UNL     1      -6.105   4.275  70.589  1.00  0.00    -0.016 OA 
HETATM   19  C   UNL     1      -5.913   5.614  70.338  1.00  0.00    -0.025 C  
HETATM   20  O   UNL     1      -5.835   4.695  68.315  1.00  0.00    -0.023 OA 
HETATM   21  C   UNL     1      -5.996   6.533  71.477  1.00  0.00    -0.036 C  
HETATM   22  C   UNL     1      -6.068   3.750  69.309  1.00  0.00    -0.027 C  
HETATM   23  O   UNL     1      -6.217   2.556  69.081  1.00  0.00    -0.027 OA 
ENDBRANCH  16  17
ENDBRANCH  15  16
ENDBRANCH  13  15
ENDBRANCH   9  13
BRANCH   8  24
HETATM   24  C   UNL     1      -8.820   8.289  69.677  1.00  0.00    -0.139 C  
BRANCH  24  25
HETATM   25  C   UNL     1      -9.218   9.578  68.994  1.00  0.00    -0.155 A  
HETATM   26  C   UNL     1      -8.456  10.745  69.014  1.00  0.00    -0.137 A  
HETATM   27  C   UNL     1     -10.880  10.760  67.647  1.00  0.00    -0.332 A  
HETATM   28  C   UNL     1     -10.134  11.948  67.670  1.00  0.00    -0.202 A  
HETATM   29  C   UNL     1     -10.427   9.596  68.283  1.00  0.00    -0.259 A  
HETATM   30  C   UNL     1      -8.881  11.881  68.313  1.00  0.00    -0.174 A  
BRANCH  28  31
HETATM   31  C   UNL     1     -10.602  13.194  66.981  1.00  0.00    -0.259 A  
HETATM   32  C   UNL     1     -10.589  14.525  64.899  1.00  0.00    -0.450 A  
HETATM   33  C   UNL     1     -10.448  13.308  65.575  1.00  0.00    -0.295 A  
HETATM   34  C   UNL     1     -10.964  15.661  65.595  1.00  0.00    -0.276 A  
HETATM   35  C   UNL     1     -11.234  15.566  66.957  1.00  0.00    -0.177 A  
HETATM   36  C   UNL     1     -11.077  14.347  67.648  1.00  0.00    -0.311 A  
BRANCH  36  37
HETATM   37  C   UNL     1     -11.474  14.386  69.067  1.00  0.00    -0.283 C  
HETATM   38  N   UNL     1     -12.209  13.503  69.658  1.00  0.00    -0.285 NA 
HETATM   39  O   UNL     1     -12.307  13.947  71.014  1.00  0.00    -0.346 OA 
HETATM   40  C   UNL     1     -11.574  15.102  71.094  1.00  0.00    -0.360 C  
HETATM   41  N   UNL     1     -11.048  15.356  69.886  1.00  0.00    -0.269 NA 
HETATM   42  O   UNL     1     -11.441  15.796  72.093  1.00  0.00    -0.406 OA 
ENDBRANCH  36  37
ENDBRANCH  28  31
ENDBRANCH  24  25
ENDBRANCH   8  24
ENDBRANCH   3   4
ENDBRANCH   2   3
TORSDOF 10
ENDMDL
MODEL      170
REMARK 921   NORMALIZED FREE ENERGY PREDICTED BY IDOCK:   -4.45 KCAL/MOL
REMARK 922        TOTAL FREE ENERGY PREDICTED BY IDOCK:   -9.98 KCAL/MOL
REMARK 923 INTER-LIGAND FREE ENERGY PREDICTED BY IDOCK:   -7.31 KCAL/MOL
REMARK 924 INTRA-LIGAND FREE ENERGY PREDICTED BY IDOCK:   -2.67 KCAL/MOL
REMARK 927      BINDING AFFINITY PREDICTED BY RF-SCORE:    0.00 PKD
ROOT
HETATM    1  C   UNL     1      -7.811  13.027  67.649  1.00  0.00    -0.166 C  
HETATM    2  C   UNL     1      -9.048  13.783  67.198  1.00  0.00    -0.239 C  
ENDROOT
BRANCH   2   3
HETATM    3  O   UNL     1     -10.161  12.887  67.151  1.00  0.00    -0.237 OA 
BRANCH   3   4
HETATM    4  C   UNL     1     -10.854  12.822  68.288  1.00  0.00    -0.248 A  
HETATM    5  N   UNL     1     -11.115  13.837  69.069  1.00  0.00    -0.256 NA 
HETATM    6  C   UNL     1     -11.854  13.317  70.094  1.00  0.00    -0.263 A  
HETATM    7  C   UNL     1     -12.049  11.935  69.955  1.00  0.00    -0.272 A  
HETATM    8  N   UNL     1     -11.426  11.657  68.750  1.00  0.00    -0.257 NA 
HETATM    9  C   UNL     1     -12.755  11.201  70.942  1.00  0.00    -0.438 A  
HETATM   10  C   UNL     1     -13.304  11.926  72.022  1.00  0.00    -0.425 A  
HETATM   11  C   UNL     1     -12.417  14.007  71.179  1.00  0.00    -0.447 A  
HETATM   12  C   UNL     1     -13.152  13.305  72.131  1.00  0.00    -0.486 A  
BRANCH   9  13
HETATM   13  C   UNL     1     -13.035   9.748  70.865  1.00  0.00    -0.228 C  
HETATM   14  O   UNL     1     -14.151   9.282  70.717  1.00  0.00     0.020 OA 
BRANCH  13  15
HETATM   15  O   UNL     1     -11.892   9.034  71.055  1.00  0.00    -0.283 OA 
BRANCH  15  16
HETATM   16  C   UNL     1     -11.971   7.638  70.724  1.00  0.00    -0.169 C  
BRANCH  16  17
HETATM   17  C   UNL     1     -11.011   6.867  71.561  1.00  0.00    -0.238 C  
HETATM   18  O   UNL     1      -9.307   6.256  72.872  1.00  0.00    -0.141 OA 
HETATM   19  C   UNL     1      -9.924   7.274  72.181  1.00  0.00    -0.165 C  
HETATM   20  O   UNL     1     -11.208   5.510  71.753  1.00  0.00    -0.206 OA 
HETATM   21  C   UNL     1      -9.366   8.622  72.325  1.00  0.00    -0.322 C  
HETATM   22  C   UNL     1     -10.146   5.191  72.593  1.00  0.00    -0.177 C  
HETATM   23  O   UNL     1      -9.957   4.067  73.042  1.00  0.00    -0.128 OA 
ENDBRANCH  16  17
ENDBRANCH  15  16
ENDBRANCH  13  15
ENDBRANCH   9  13
BRANCH   8  24
HETATM   24  C   UNL     1     -11.511  10.452  67.940  1.00  0.00    -0.036 C  
BRANCH  24  25
HETATM   25  C   UNL     1     -10.405   9.443  68.148  1.00  0.00    -0.255 A  
HETATM   26  C   UNL     1      -9.189   9.727  68.768  1.00  0.00    -0.143 A  
HETATM   27  C   UNL     1      -9.635   7.145  67.829  1.00  0.00    -0.146 A  
HETATM   28  C   UNL     1      -8.399   7.417  68.436  1.00  0.00    -0.125 A  
HETATM   29  C   UNL     1     -10.621   8.132  67.699  1.00  0.00    -0.258 A  
HETATM   30  C   UNL     1      -8.239   8.717  68.960  1.00  0.00    -0.122 A  
BRANCH  28  31
HETATM   31  C   UNL     1      -7.342   6.367  68.594  1.00  0.00    -0.087 A  
HETATM   32  C   UNL     1      -6.197   4.811  70.135  1.00  0.00    -0.026 A  
HETATM   33  C   UNL     1      -7.300   5.599  69.786  1.00  0.00    -0.070 A  
HETATM   34  C   UNL     1      -5.125   4.701  69.265  1.00  0.00     0.000 A  
HETATM   35  C   UNL     1      -5.178   5.350  68.036  1.00  0.00    -0.004 A  
HETATM   36  C   UNL     1      -6.278   6.160  67.685  1.00  0.00    -0.029 A  
BRANCH  36  37
HETATM   37  C   UNL     1      -6.224   6.717  66.321  1.00  0.00    -0.044 C  
HETATM   38  N   UNL     1      -5.931   7.942  66.030  1.00  0.00    -0.038 NA 
HETATM   39  O   UNL     1      -5.987   8.008  64.602  1.00  0.00    -0.047 OA 
HETATM   40  C   UNL     1      -6.313   6.748  64.171  1.00  0.00    -0.035 C  
HETATM   41  N   UNL     1      -6.442   5.953  65.244  1.00  0.00    -0.041 NA 
HETATM   42  O   UNL     1      -6.481   6.414  63.007  1.00  0.00    -0.032 OA 
ENDBRANCH  36  37
ENDBRANCH  28  31
ENDBRANCH  24  25
ENDBRANCH   8  24
ENDBRANCH   3   4
ENDBRANCH   2   3
TORSDOF 10
ENDMDL
MODEL      171
REMARK 921   NORMALIZED FREE ENERGY PREDICTED BY IDOCK:   -4.41 KCAL/MOL
REMARK 922        TOTAL FREE ENERGY PREDICTED BY IDOCK:   -9.91 KCAL/MOL
REMARK 923 INTER-LIGAND FREE ENERGY PREDICTED BY IDOCK:   -7.98 KCAL/MOL
REMARK 924 INTRA-LIGAND FREE ENERGY PREDICTED BY IDOCK:   -1.94 KCAL/MOL
REMARK 927      BINDING AFFINITY PREDICTED BY RF-SCORE:    0.00 PKD
ROOT
HETATM    1  C   UNL     1     -10.104   7.790  73.561  1.00  0.00    -0.257 C  
HETATM    2  C   UNL     1     -10.612   8.332  72.237  1.00  0.00    -0.323 C  
ENDROOT
BRANCH   2   3
HETATM    3  O   UNL     1      -9.575   9.082  71.601  1.00  0.00    -0.288 OA 
BRANCH   3   4
HETATM    4  C   UNL     1      -8.761   8.348  70.841  1.00  0.00    -0.154 A  
HETATM    5  N   UNL     1      -7.697   7.719  71.269  1.00  0.00    -0.082 NA 
HETATM    6  C   UNL     1      -7.188   7.092  70.167  1.00  0.00    -0.075 A  
HETATM    7  C   UNL     1      -7.948   7.347  69.017  1.00  0.00    -0.122 A  
HETATM    8  N   UNL     1      -8.984   8.128  69.501  1.00  0.00    -0.150 NA 
HETATM    9  C   UNL     1      -7.556   6.822  67.759  1.00  0.00    -0.107 A  
HETATM   10  C   UNL     1      -6.420   5.984  67.731  1.00  0.00    -0.046 A  
HETATM   11  C   UNL     1      -6.065   6.251  70.103  1.00  0.00    -0.030 A  
HETATM   12  C   UNL     1      -5.697   5.690  68.882  1.00  0.00    -0.015 A  
BRANCH   9  13
HETATM   13  C   UNL     1      -8.311   7.015  66.498  1.00  0.00    -0.121 C  
HETATM   14  O   UNL     1      -9.527   7.003  66.431  1.00  0.00    -0.175 OA 
BRANCH  13  15
HETATM   15  O   UNL     1      -7.456   7.130  65.446  1.00  0.00    -0.079 OA 
BRANCH  15  16
HETATM   16  C   UNL     1      -7.692   8.248  64.575  1.00  0.00    -0.123 C  
BRANCH  16  17
HETATM   17  C   UNL     1      -6.776   9.366  64.931  1.00  0.00    -0.085 C  
HETATM   18  O   UNL     1      -5.407  11.131  64.864  1.00  0.00    -0.194 OA 
HETATM   19  C   UNL     1      -6.164  10.231  64.151  1.00  0.00    -0.107 C  
HETATM   20  O   UNL     1      -6.453   9.589  66.259  1.00  0.00    -0.068 OA 
HETATM   21  C   UNL     1      -6.262  10.430  62.701  1.00  0.00    -0.142 C  
HETATM   22  C   UNL     1      -5.631  10.707  66.162  1.00  0.00    -0.101 C  
HETATM   23  O   UNL     1      -5.137  11.265  67.133  1.00  0.00    -0.046 OA 
ENDBRANCH  16  17
ENDBRANCH  15  16
ENDBRANCH  13  15
ENDBRANCH   9  13
BRANCH   8  24
HETATM   24  C   UNL     1     -10.230   8.491  68.845  1.00  0.00    -0.207 C  
BRANCH  24  25
HETATM   25  C   UNL     1     -10.309   9.908  68.324  1.00  0.00    -0.232 A  
HETATM   26  C   UNL     1      -9.201  10.676  67.967  1.00  0.00    -0.148 A  
HETATM   27  C   UNL     1     -11.735  11.802  67.731  1.00  0.00    -0.337 A  
HETATM   28  C   UNL     1     -10.631  12.595  67.382  1.00  0.00    -0.240 A  
HETATM   29  C   UNL     1     -11.579  10.484  68.180  1.00  0.00    -0.145 A  
HETATM   30  C   UNL     1      -9.371  11.966  67.449  1.00  0.00    -0.176 A  
BRANCH  28  31
HETATM   31  C   UNL     1     -10.786  14.001  66.887  1.00  0.00    -0.290 A  
HETATM   32  C   UNL     1     -10.594  15.541  64.964  1.00  0.00    -0.435 A  
HETATM   33  C   UNL     1     -10.743  14.253  65.491  1.00  0.00    -0.339 A  
HETATM   34  C   UNL     1     -10.560  16.634  65.812  1.00  0.00    -0.278 A  
HETATM   35  C   UNL     1     -10.712  16.437  67.181  1.00  0.00    -0.233 A  
HETATM   36  C   UNL     1     -10.845  15.141  67.721  1.00  0.00    -0.292 A  
BRANCH  36  37
HETATM   37  C   UNL     1     -11.075  15.099  69.177  1.00  0.00    -0.258 C  
HETATM   38  N   UNL     1     -10.193  15.384  70.077  1.00  0.00    -0.285 NA 
HETATM   39  O   UNL     1     -10.870  15.223  71.326  1.00  0.00    -0.264 OA 
HETATM   40  C   UNL     1     -12.154  14.850  71.022  1.00  0.00    -0.321 C  
HETATM   41  N   UNL     1     -12.274  14.793  69.688  1.00  0.00    -0.295 NA 
HETATM   42  O   UNL     1     -13.032  14.591  71.833  1.00  0.00    -0.312 OA 
ENDBRANCH  36  37
ENDBRANCH  28  31
ENDBRANCH  24  25
ENDBRANCH   8  24
ENDBRANCH   3   4
ENDBRANCH   2   3
TORSDOF 10
ENDMDL
MODEL      172
REMARK 921   NORMALIZED FREE ENERGY PREDICTED BY IDOCK:   -4.39 KCAL/MOL
REMARK 922        TOTAL FREE ENERGY PREDICTED BY IDOCK:   -9.88 KCAL/MOL
REMARK 923 INTER-LIGAND FREE ENERGY PREDICTED BY IDOCK:   -7.72 KCAL/MOL
REMARK 924 INTRA-LIGAND FREE ENERGY PREDICTED BY IDOCK:   -2.17 KCAL/MOL
REMARK 927      BINDING AFFINITY PREDICTED BY RF-SCORE:    0.00 PKD
ROOT
HETATM    1  C   UNL     1     -12.869  12.016  63.487  1.00  0.00    -0.472 C  
HETATM    2  C   UNL     1     -11.368  11.843  63.633  1.00  0.00    -0.450 C  
ENDROOT
BRANCH   2   3
HETATM    3  O   UNL     1     -11.083  11.191  64.874  1.00  0.00    -0.187 OA 
BRANCH   3   4
HETATM    4  C   UNL     1     -10.334  11.914  65.707  1.00  0.00    -0.248 A  
HETATM    5  N   UNL     1     -10.752  12.946  66.393  1.00  0.00    -0.268 NA 
HETATM    6  C   UNL     1      -9.666  13.357  67.114  1.00  0.00    -0.237 A  
HETATM    7  C   UNL     1      -8.536  12.567  66.862  1.00  0.00    -0.158 A  
HETATM    8  N   UNL     1      -9.018  11.614  65.980  1.00  0.00    -0.185 NA 
HETATM    9  C   UNL     1      -7.295  12.861  67.482  1.00  0.00    -0.154 A  
HETATM   10  C   UNL     1      -7.267  13.930  68.404  1.00  0.00    -0.110 A  
HETATM   11  C   UNL     1      -9.604  14.410  68.041  1.00  0.00    -0.216 A  
HETATM   12  C   UNL     1      -8.403  14.681  68.691  1.00  0.00    -0.165 A  
BRANCH   9  13
HETATM   13  C   UNL     1      -6.057  12.067  67.299  1.00  0.00    -0.147 C  
HETATM   14  O   UNL     1      -5.596  11.778  66.209  1.00  0.00    -0.269 OA 
BRANCH  13  15
HETATM   15  O   UNL     1      -5.573  11.659  68.503  1.00  0.00    -0.046 OA 
BRANCH  15  16
HETATM   16  C   UNL     1      -5.937  10.326  68.899  1.00  0.00    -0.040 C  
BRANCH  16  17
HETATM   17  C   UNL     1      -5.813  10.188  70.376  1.00  0.00    -0.080 C  
HETATM   18  O   UNL     1      -5.492  10.573  72.554  1.00  0.00    -0.298 OA 
HETATM   19  C   UNL     1      -5.481  11.087  71.278  1.00  0.00     0.018 C  
HETATM   20  O   UNL     1      -6.049   8.959  70.970  1.00  0.00    -0.038 OA 
HETATM   21  C   UNL     1      -5.221  12.523  71.130  1.00  0.00    -0.153 C  
HETATM   22  C   UNL     1      -5.867   9.262  72.316  1.00  0.00     0.009 C  
HETATM   23  O   UNL     1      -6.012   8.443  73.215  1.00  0.00    -0.078 OA 
ENDBRANCH  16  17
ENDBRANCH  15  16
ENDBRANCH  13  15
ENDBRANCH   9  13
BRANCH   8  24
HETATM   24  C   UNL     1      -8.394  10.370  65.558  1.00  0.00    -0.168 C  
BRANCH  24  25
HETATM   25  C   UNL     1      -8.622   9.182  66.465  1.00  0.00    -0.136 A  
HETATM   26  C   UNL     1      -9.853   8.850  67.029  1.00  0.00    -0.277 A  
HETATM   27  C   UNL     1      -7.650   7.248  67.600  1.00  0.00    -0.110 A  
HETATM   28  C   UNL     1      -8.877   6.908  68.190  1.00  0.00    -0.125 A  
HETATM   29  C   UNL     1      -7.527   8.353  66.747  1.00  0.00    -0.083 A  
HETATM   30  C   UNL     1      -9.983   7.702  67.821  1.00  0.00    -0.219 A  
BRANCH  28  31
HETATM   31  C   UNL     1      -9.024   5.721  69.092  1.00  0.00    -0.120 A  
HETATM   32  C   UNL     1      -8.953   3.258  69.285  1.00  0.00    -0.180 A  
HETATM   33  C   UNL     1      -8.599   4.446  68.636  1.00  0.00    -0.108 A  
HETATM   34  C   UNL     1      -9.685   3.306  70.459  1.00  0.00    -0.138 A  
HETATM   35  C   UNL     1     -10.025   4.542  70.999  1.00  0.00    -0.257 A  
HETATM   36  C   UNL     1      -9.686   5.743  70.341  1.00  0.00    -0.224 A  
BRANCH  36  37
HETATM   37  C   UNL     1     -10.046   6.971  71.074  1.00  0.00    -0.195 C  
HETATM   38  N   UNL     1      -9.205   7.777  71.633  1.00  0.00    -0.134 NA 
HETATM   39  O   UNL     1     -10.007   8.819  72.196  1.00  0.00    -0.320 OA 
HETATM   40  C   UNL     1     -11.307   8.513  71.888  1.00  0.00    -0.329 C  
HETATM   41  N   UNL     1     -11.318   7.375  71.178  1.00  0.00    -0.262 NA 
HETATM   42  O   UNL     1     -12.290   9.158  72.225  1.00  0.00    -0.359 OA 
ENDBRANCH  36  37
ENDBRANCH  28  31
ENDBRANCH  24  25
ENDBRANCH   8  24
ENDBRANCH   3   4
ENDBRANCH   2   3
TORSDOF 10
ENDMDL
MODEL      173
REMARK 921   NORMALIZED FREE ENERGY PREDICTED BY IDOCK:   -4.33 KCAL/MOL
REMARK 922        TOTAL FREE ENERGY PREDICTED BY IDOCK:   -9.78 KCAL/MOL
REMARK 923 INTER-LIGAND FREE ENERGY PREDICTED BY IDOCK:   -6.70 KCAL/MOL
REMARK 924 INTRA-LIGAND FREE ENERGY PREDICTED BY IDOCK:   -3.08 KCAL/MOL
REMARK 927      BINDING AFFINITY PREDICTED BY RF-SCORE:    0.00 PKD
ROOT
HETATM    1  C   UNL     1     -11.601   8.986  72.138  1.00  0.00    -0.348 C  
HETATM    2  C   UNL     1     -12.357   7.981  71.287  1.00  0.00    -0.271 C  
ENDROOT
BRANCH   2   3
HETATM    3  O   UNL     1     -12.277   6.689  71.895  1.00  0.00    -0.336 OA 
BRANCH   3   4
HETATM    4  C   UNL     1     -11.052   6.355  72.303  1.00  0.00    -0.265 A  
HETATM    5  N   UNL     1     -10.607   6.481  73.526  1.00  0.00    -0.284 NA 
HETATM    6  C   UNL     1      -9.326   6.006  73.489  1.00  0.00    -0.134 A  
HETATM    7  C   UNL     1      -8.958   5.584  72.204  1.00  0.00    -0.137 A  
HETATM    8  N   UNL     1     -10.116   5.783  71.472  1.00  0.00    -0.190 NA 
HETATM    9  C   UNL     1      -7.650   5.098  71.949  1.00  0.00    -0.096 A  
HETATM   10  C   UNL     1      -6.769   4.998  73.048  1.00  0.00    -0.067 A  
HETATM   11  C   UNL     1      -8.426   5.889  74.560  1.00  0.00    -0.115 A  
HETATM   12  C   UNL     1      -7.153   5.370  74.332  1.00  0.00    -0.078 A  
BRANCH   9  13
HETATM   13  C   UNL     1      -7.181   4.604  70.633  1.00  0.00    -0.048 C  
HETATM   14  O   UNL     1      -7.066   3.423  70.358  1.00  0.00    -0.034 OA 
BRANCH  13  15
HETATM   15  O   UNL     1      -6.838   5.647  69.829  1.00  0.00    -0.056 OA 
BRANCH  15  16
HETATM   16  C   UNL     1      -5.660   6.371  70.221  1.00  0.00    -0.018 C  
BRANCH  16  17
HETATM   17  C   UNL     1      -5.806   7.806  69.853  1.00  0.00    -0.023 C  
HETATM   18  O   UNL     1      -6.321   9.980  69.832  1.00  0.00    -0.049 OA 
HETATM   19  C   UNL     1      -6.420   8.778  70.492  1.00  0.00    -0.040 C  
HETATM   20  O   UNL     1      -5.257   8.268  68.668  1.00  0.00    -0.030 OA 
HETATM   21  C   UNL     1      -7.071   8.781  71.807  1.00  0.00    -0.077 C  
HETATM   22  C   UNL     1      -5.578   9.620  68.721  1.00  0.00    -0.036 C  
HETATM   23  O   UNL     1      -5.247  10.425  67.860  1.00  0.00    -0.038 OA 
ENDBRANCH  16  17
ENDBRANCH  15  16
ENDBRANCH  13  15
ENDBRANCH   9  13
BRANCH   8  24
HETATM   24  C   UNL     1     -10.445   5.294  70.142  1.00  0.00    -0.268 C  
BRANCH  24  25
HETATM   25  C   UNL     1     -10.319   6.302  69.023  1.00  0.00    -0.251 A  
HETATM   26  C   UNL     1     -10.971   6.198  67.795  1.00  0.00    -0.400 A  
HETATM   27  C   UNL     1      -9.311   8.387  68.240  1.00  0.00    -0.139 A  
HETATM   28  C   UNL     1      -9.947   8.290  66.993  1.00  0.00    -0.325 A  
HETATM   29  C   UNL     1      -9.502   7.421  69.238  1.00  0.00    -0.154 A  
HETATM   30  C   UNL     1     -10.833   7.205  66.831  1.00  0.00    -0.307 A  
BRANCH  28  31
HETATM   31  C   UNL     1      -9.762   9.323  65.924  1.00  0.00    -0.355 A  
HETATM   32  C   UNL     1     -10.703  11.308  64.791  1.00  0.00    -0.352 A  
HETATM   33  C   UNL     1     -10.617  10.455  65.897  1.00  0.00    -0.114 A  
HETATM   34  C   UNL     1      -9.879  11.103  63.697  1.00  0.00    -0.387 A  
HETATM   35  C   UNL     1      -8.948  10.071  63.731  1.00  0.00    -0.274 A  
HETATM   36  C   UNL     1      -8.868   9.197  64.836  1.00  0.00    -0.215 A  
BRANCH  36  37
HETATM   37  C   UNL     1      -7.781   8.203  64.758  1.00  0.00    -0.123 C  
HETATM   38  N   UNL     1      -6.715   8.208  65.488  1.00  0.00    -0.051 NA 
HETATM   39  O   UNL     1      -5.975   7.056  65.075  1.00  0.00    -0.035 OA 
HETATM   40  C   UNL     1      -6.722   6.450  64.099  1.00  0.00    -0.038 C  
HETATM   41  N   UNL     1      -7.847   7.159  63.923  1.00  0.00    -0.124 NA 
HETATM   42  O   UNL     1      -6.404   5.444  63.479  1.00  0.00    -0.021 OA 
ENDBRANCH  36  37
ENDBRANCH  28  31
ENDBRANCH  24  25
ENDBRANCH   8  24
ENDBRANCH   3   4
ENDBRANCH   2   3
TORSDOF 10
ENDMDL
MODEL      174
REMARK 921   NORMALIZED FREE ENERGY PREDICTED BY IDOCK:   -4.28 KCAL/MOL
REMARK 922        TOTAL FREE ENERGY PREDICTED BY IDOCK:   -9.70 KCAL/MOL
REMARK 923 INTER-LIGAND FREE ENERGY PREDICTED BY IDOCK:   -8.32 KCAL/MOL
REMARK 924 INTRA-LIGAND FREE ENERGY PREDICTED BY IDOCK:   -1.37 KCAL/MOL
REMARK 927      BINDING AFFINITY PREDICTED BY RF-SCORE:    0.00 PKD
ROOT
HETATM    1  C   UNL     1     -12.888  13.462  71.188  1.00  0.00    -0.372 C  
HETATM    2  C   UNL     1     -12.587  13.831  69.746  1.00  0.00    -0.031 C  
ENDROOT
BRANCH   2   3
HETATM    3  O   UNL     1     -11.192  13.650  69.491  1.00  0.00    -0.228 OA 
BRANCH   3   4
HETATM    4  C   UNL     1     -10.927  12.986  68.365  1.00  0.00    -0.262 A  
HETATM    5  N   UNL     1     -11.808  12.675  67.450  1.00  0.00    -0.404 NA 
HETATM    6  C   UNL     1     -11.099  12.023  66.481  1.00  0.00    -0.314 A  
HETATM    7  C   UNL     1      -9.740  11.912  66.807  1.00  0.00    -0.204 A  
HETATM    8  N   UNL     1      -9.657  12.587  68.014  1.00  0.00    -0.206 NA 
HETATM    9  C   UNL     1      -8.844  11.227  65.947  1.00  0.00    -0.174 A  
HETATM   10  C   UNL     1      -9.362  10.728  64.733  1.00  0.00    -0.264 A  
HETATM   11  C   UNL     1     -11.580  11.518  65.262  1.00  0.00     0.001 A  
HETATM   12  C   UNL     1     -10.701  10.884  64.388  1.00  0.00    -0.250 A  
BRANCH   9  13
HETATM   13  C   UNL     1      -7.389  11.085  66.194  1.00  0.00    -0.060 C  
HETATM   14  O   UNL     1      -6.564  10.950  65.308  1.00  0.00     0.021 OA 
BRANCH  13  15
HETATM   15  O   UNL     1      -7.136  11.054  67.531  1.00  0.00    -0.085 OA 
BRANCH  15  16
HETATM   16  C   UNL     1      -6.056  10.197  67.937  1.00  0.00    -0.052 C  
BRANCH  16  17
HETATM   17  C   UNL     1      -6.594   9.034  68.694  1.00  0.00    -0.054 C  
HETATM   18  O   UNL     1      -7.469   7.060  69.269  1.00  0.00    -0.089 OA 
HETATM   19  C   UNL     1      -7.084   7.897  68.248  1.00  0.00    -0.088 C  
HETATM   20  O   UNL     1      -6.639   9.079  70.078  1.00  0.00    -0.040 OA 
HETATM   21  C   UNL     1      -7.167   7.376  66.879  1.00  0.00    -0.088 C  
HETATM   22  C   UNL     1      -7.158   7.824  70.380  1.00  0.00    -0.050 C  
HETATM   23  O   UNL     1      -7.338   7.428  71.525  1.00  0.00    -0.076 OA 
ENDBRANCH  16  17
ENDBRANCH  15  16
ENDBRANCH  13  15
ENDBRANCH   9  13
BRANCH   8  24
HETATM   24  C   UNL     1      -8.470  13.038  68.722  1.00  0.00     0.150 C  
BRANCH  24  25
HETATM   25  C   UNL     1      -8.073  14.477  68.486  1.00  0.00    -0.148 A  
HETATM   26  C   UNL     1      -8.470  15.543  69.292  1.00  0.00    -0.265 A  
HETATM   27  C   UNL     1      -6.852  16.069  67.090  1.00  0.00    -0.223 A  
HETATM   28  C   UNL     1      -7.255  17.156  67.881  1.00  0.00    -0.177 A  
HETATM   29  C   UNL     1      -7.241  14.757  67.392  1.00  0.00    -0.202 A  
HETATM   30  C   UNL     1      -8.015  16.841  69.026  1.00  0.00    -0.188 A  
BRANCH  28  31
HETATM   31  C   UNL     1      -6.832  18.560  67.576  1.00  0.00    -0.204 A  
HETATM   32  C   UNL     1      -5.127  20.318  67.909  1.00  0.00    -0.200 A  
HETATM   33  C   UNL     1      -5.512  18.973  67.894  1.00  0.00    -0.177 A  
HETATM   34  C   UNL     1      -6.029  21.298  67.532  1.00  0.00    -0.427 A  
HETATM   35  C   UNL     1      -7.300  20.924  67.106  1.00  0.00    -0.369 A  
HETATM   36  C   UNL     1      -7.700  19.572  67.104  1.00  0.00    -0.283 A  
BRANCH  36  37
HETATM   37  C   UNL     1      -9.047  19.328  66.554  1.00  0.00    -0.350 C  
HETATM   38  N   UNL     1     -10.050  20.136  66.658  1.00  0.00    -0.453 NA 
HETATM   39  O   UNL     1     -11.120  19.490  65.963  1.00  0.00    -0.261 OA 
HETATM   40  C   UNL     1     -10.613  18.310  65.486  1.00  0.00     0.046 C  
HETATM   41  N   UNL     1      -9.323  18.228  65.843  1.00  0.00    -0.474 NA 
HETATM   42  O   UNL     1     -11.239  17.466  64.860  1.00  0.00    -0.744 OA 
ENDBRANCH  36  37
ENDBRANCH  28  31
ENDBRANCH  24  25
ENDBRANCH   8  24
ENDBRANCH   3   4
ENDBRANCH   2   3
TORSDOF 10
ENDMDL
MODEL      175
REMARK 921   NORMALIZED FREE ENERGY PREDICTED BY IDOCK:   -4.25 KCAL/MOL
REMARK 922        TOTAL FREE ENERGY PREDICTED BY IDOCK:   -9.65 KCAL/MOL
REMARK 923 INTER-LIGAND FREE ENERGY PREDICTED BY IDOCK:   -7.57 KCAL/MOL
REMARK 924 INTRA-LIGAND FREE ENERGY PREDICTED BY IDOCK:   -2.08 KCAL/MOL
REMARK 927      BINDING AFFINITY PREDICTED BY RF-SCORE:    0.00 PKD
ROOT
HETATM    1  C   UNL     1      -8.271   8.792  62.994  1.00  0.00    -0.188 C  
HETATM    2  C   UNL     1      -6.857   8.255  62.855  1.00  0.00    -0.086 C  
ENDROOT
BRANCH   2   3
HETATM    3  O   UNL     1      -6.396   7.797  64.129  1.00  0.00    -0.055 OA 
BRANCH   3   4
HETATM    4  C   UNL     1      -7.102   6.784  64.631  1.00  0.00    -0.060 A  
HETATM    5  N   UNL     1      -7.309   5.641  64.030  1.00  0.00    -0.055 NA 
HETATM    6  C   UNL     1      -8.059   4.908  64.907  1.00  0.00    -0.112 A  
HETATM    7  C   UNL     1      -8.339   5.620  66.083  1.00  0.00    -0.120 A  
HETATM    8  N   UNL     1      -7.665   6.814  65.887  1.00  0.00    -0.090 NA 
HETATM    9  C   UNL     1      -9.144   5.047  67.101  1.00  0.00    -0.115 A  
HETATM   10  C   UNL     1      -9.588   3.721  66.908  1.00  0.00    -0.207 A  
HETATM   11  C   UNL     1      -8.514   3.589  64.751  1.00  0.00    -0.100 A  
HETATM   12  C   UNL     1      -9.266   2.999  65.763  1.00  0.00    -0.124 A  
BRANCH   9  13
HETATM   13  C   UNL     1      -9.468   5.711  68.385  1.00  0.00    -0.121 C  
HETATM   14  O   UNL     1     -10.473   6.376  68.567  1.00  0.00    -0.179 OA 
BRANCH  13  15
HETATM   15  O   UNL     1      -8.460   5.529  69.281  1.00  0.00    -0.100 OA 
BRANCH  15  16
HETATM   16  C   UNL     1      -8.844   4.946  70.537  1.00  0.00    -0.115 C  
BRANCH  16  17
HETATM   17  C   UNL     1      -9.051   6.020  71.547  1.00  0.00    -0.143 C  
HETATM   18  O   UNL     1      -8.754   7.662  73.035  1.00  0.00    -0.135 OA 
HETATM   19  C   UNL     1      -8.165   6.759  72.179  1.00  0.00    -0.104 C  
HETATM   20  O   UNL     1     -10.336   6.340  71.953  1.00  0.00    -0.199 OA 
HETATM   21  C   UNL     1      -6.708   6.829  72.023  1.00  0.00    -0.058 C  
HETATM   22  C   UNL     1     -10.095   7.378  72.846  1.00  0.00    -0.244 C  
HETATM   23  O   UNL     1     -10.986   7.985  73.428  1.00  0.00    -0.172 OA 
ENDBRANCH  16  17
ENDBRANCH  15  16
ENDBRANCH  13  15
ENDBRANCH   9  13
BRANCH   8  24
HETATM   24  C   UNL     1      -7.361   7.854  66.857  1.00  0.00    -0.090 C  
BRANCH  24  25
HETATM   25  C   UNL     1      -8.142   9.140  66.707  1.00  0.00    -0.111 A  
HETATM   26  C   UNL     1      -7.588  10.414  66.829  1.00  0.00    -0.110 A  
HETATM   27  C   UNL     1     -10.309  10.189  66.288  1.00  0.00    -0.245 A  
HETATM   28  C   UNL     1      -9.772  11.479  66.423  1.00  0.00    -0.231 A  
HETATM   29  C   UNL     1      -9.510   9.045  66.414  1.00  0.00    -0.288 A  
HETATM   30  C   UNL     1      -8.379  11.552  66.628  1.00  0.00    -0.167 A  
BRANCH  28  31
HETATM   31  C   UNL     1     -10.614  12.710  66.276  1.00  0.00    -0.274 A  
HETATM   32  C   UNL     1     -11.089  14.733  64.939  1.00  0.00    -0.416 A  
HETATM   33  C   UNL     1     -10.568  13.440  65.060  1.00  0.00    -0.370 A  
HETATM   34  C   UNL     1     -11.744  15.316  66.010  1.00  0.00     0.104 A  
HETATM   35  C   UNL     1     -11.908  14.588  67.184  1.00  0.00    -0.412 A  
HETATM   36  C   UNL     1     -11.371  13.291  67.319  1.00  0.00    -0.347 A  
BRANCH  36  37
HETATM   37  C   UNL     1     -11.693  12.618  68.592  1.00  0.00    -0.325 C  
HETATM   38  N   UNL     1     -11.585  11.349  68.809  1.00  0.00    -0.284 NA 
HETATM   39  O   UNL     1     -11.986  11.171  70.171  1.00  0.00    -0.303 OA 
HETATM   40  C   UNL     1     -12.296  12.418  70.647  1.00  0.00    -0.279 C  
HETATM   41  N   UNL     1     -12.095  13.309  69.666  1.00  0.00    -0.297 NA 
HETATM   42  O   UNL     1     -12.708  12.669  71.771  1.00  0.00    -0.243 OA 
ENDBRANCH  36  37
ENDBRANCH  28  31
ENDBRANCH  24  25
ENDBRANCH   8  24
ENDBRANCH   3   4
ENDBRANCH   2   3
TORSDOF 10
ENDMDL
MODEL      176
REMARK 921   NORMALIZED FREE ENERGY PREDICTED BY IDOCK:   -4.24 KCAL/MOL
REMARK 922        TOTAL FREE ENERGY PREDICTED BY IDOCK:   -9.65 KCAL/MOL
REMARK 923 INTER-LIGAND FREE ENERGY PREDICTED BY IDOCK:   -7.96 KCAL/MOL
REMARK 924 INTRA-LIGAND FREE ENERGY PREDICTED BY IDOCK:   -1.69 KCAL/MOL
REMARK 927      BINDING AFFINITY PREDICTED BY RF-SCORE:    0.00 PKD
ROOT
HETATM    1  C   UNL     1      -7.019   8.663  62.679  1.00  0.00    -0.094 C  
HETATM    2  C   UNL     1      -8.233   8.856  63.570  1.00  0.00    -0.177 C  
ENDROOT
BRANCH   2   3
HETATM    3  O   UNL     1      -8.077  10.053  64.335  1.00  0.00    -0.145 OA 
BRANCH   3   4
HETATM    4  C   UNL     1      -9.189  10.782  64.438  1.00  0.00    -0.221 A  
HETATM    5  N   UNL     1     -10.099  10.900  63.507  1.00  0.00    -0.345 NA 
HETATM    6  C   UNL     1     -11.055  11.716  64.045  1.00  0.00    -0.384 A  
HETATM    7  C   UNL     1     -10.725  12.128  65.344  1.00  0.00    -0.284 A  
HETATM    8  N   UNL     1      -9.531  11.467  65.582  1.00  0.00    -0.227 NA 
HETATM    9  C   UNL     1     -11.569  13.016  66.058  1.00  0.00    -0.409 A  
HETATM   10  C   UNL     1     -12.775  13.407  65.435  1.00  0.00    -0.484 A  
HETATM   11  C   UNL     1     -12.264  12.121  63.458  1.00  0.00    -0.670 A  
HETATM   12  C   UNL     1     -13.124  12.956  64.166  1.00  0.00     0.202 A  
BRANCH   9  13
HETATM   13  C   UNL     1     -11.317  13.482  67.442  1.00  0.00    -0.311 C  
HETATM   14  O   UNL     1     -11.346  12.751  68.416  1.00  0.00    -0.253 OA 
BRANCH  13  15
HETATM   15  O   UNL     1     -11.128  14.829  67.462  1.00  0.00    -0.297 OA 
BRANCH  15  16
HETATM   16  C   UNL     1     -10.006  15.309  66.704  1.00  0.00    -0.254 C  
BRANCH  16  17
HETATM   17  C   UNL     1      -8.934  15.770  67.628  1.00  0.00    -0.187 C  
HETATM   18  O   UNL     1      -7.701  16.935  69.083  1.00  0.00    -0.227 OA 
HETATM   19  C   UNL     1      -8.850  16.880  68.330  1.00  0.00    -0.228 C  
HETATM   20  O   UNL     1      -7.813  14.980  67.823  1.00  0.00    -0.125 OA 
HETATM   21  C   UNL     1      -9.821  17.967  68.499  1.00  0.00    -0.367 C  
HETATM   22  C   UNL     1      -7.102  15.732  68.752  1.00  0.00    -0.131 C  
HETATM   23  O   UNL     1      -6.033  15.374  69.231  1.00  0.00    -0.104 OA 
ENDBRANCH  16  17
ENDBRANCH  15  16
ENDBRANCH  13  15
ENDBRANCH   9  13
BRANCH   8  24
HETATM   24  C   UNL     1      -8.830  11.286  66.843  1.00  0.00    -0.165 C  
BRANCH  24  25
HETATM   25  C   UNL     1      -8.872   9.890  67.423  1.00  0.00    -0.137 A  
HETATM   26  C   UNL     1      -7.744   9.160  67.796  1.00  0.00    -0.093 A  
HETATM   27  C   UNL     1     -10.251   7.993  68.112  1.00  0.00    -0.251 A  
HETATM   28  C   UNL     1      -9.126   7.238  68.479  1.00  0.00    -0.136 A  
HETATM   29  C   UNL     1     -10.128   9.295  67.607  1.00  0.00    -0.266 A  
HETATM   30  C   UNL     1      -7.880   7.889  68.369  1.00  0.00    -0.120 A  
BRANCH  28  31
HETATM   31  C   UNL     1      -9.246   5.852  69.033  1.00  0.00    -0.132 A  
HETATM   32  C   UNL     1     -10.363   4.377  70.672  1.00  0.00     0.046 A  
HETATM   33  C   UNL     1     -10.330   5.540  69.894  1.00  0.00    -0.368 A  
HETATM   34  C   UNL     1      -9.346   3.444  70.561  1.00  0.00    -0.231 A  
HETATM   35  C   UNL     1      -8.322   3.660  69.644  1.00  0.00    -0.078 A  
HETATM   36  C   UNL     1      -8.274   4.838  68.869  1.00  0.00    -0.082 A  
BRANCH  36  37
HETATM   37  C   UNL     1      -7.172   4.887  67.890  1.00  0.00    -0.070 C  
HETATM   38  N   UNL     1      -5.974   5.301  68.140  1.00  0.00    -0.021 NA 
HETATM   39  O   UNL     1      -5.263   5.148  66.908  1.00  0.00    -0.007 OA 
HETATM   40  C   UNL     1      -6.157   4.623  66.011  1.00  0.00    -0.027 C  
HETATM   41  N   UNL     1      -7.332   4.450  66.635  1.00  0.00    -0.079 NA 
HETATM   42  O   UNL     1      -5.926   4.377  64.836  1.00  0.00    -0.021 OA 
ENDBRANCH  36  37
ENDBRANCH  28  31
ENDBRANCH  24  25
ENDBRANCH   8  24
ENDBRANCH   3   4
ENDBRANCH   2   3
TORSDOF 10
ENDMDL
MODEL      177
REMARK 921   NORMALIZED FREE ENERGY PREDICTED BY IDOCK:   -4.21 KCAL/MOL
REMARK 922        TOTAL FREE ENERGY PREDICTED BY IDOCK:   -9.58 KCAL/MOL
REMARK 923 INTER-LIGAND FREE ENERGY PREDICTED BY IDOCK:   -8.04 KCAL/MOL
REMARK 924 INTRA-LIGAND FREE ENERGY PREDICTED BY IDOCK:   -1.55 KCAL/MOL
REMARK 927      BINDING AFFINITY PREDICTED BY RF-SCORE:    0.00 PKD
ROOT
HETATM    1  C   UNL     1      -5.421   8.047  71.582  1.00  0.00    -0.034 C  
HETATM    2  C   UNL     1      -6.007   9.316  72.176  1.00  0.00     0.025 C  
ENDROOT
BRANCH   2   3
HETATM    3  O   UNL     1      -7.189   9.675  71.458  1.00  0.00    -0.294 OA 
BRANCH   3   4
HETATM    4  C   UNL     1      -7.869   8.634  70.975  1.00  0.00    -0.111 A  
HETATM    5  N   UNL     1      -8.708   7.900  71.659  1.00  0.00    -0.117 NA 
HETATM    6  C   UNL     1      -9.176   6.973  70.771  1.00  0.00    -0.157 A  
HETATM    7  C   UNL     1      -8.603   7.125  69.500  1.00  0.00    -0.134 A  
HETATM    8  N   UNL     1      -7.795   8.238  69.658  1.00  0.00    -0.100 NA 
HETATM    9  C   UNL     1      -8.927   6.229  68.449  1.00  0.00    -0.116 A  
HETATM   10  C   UNL     1      -9.891   5.233  68.719  1.00  0.00    -0.224 A  
HETATM   11  C   UNL     1     -10.134   5.974  71.003  1.00  0.00    -0.241 A  
HETATM   12  C   UNL     1     -10.496   5.117  69.967  1.00  0.00    -0.305 A  
BRANCH   9  13
HETATM   13  C   UNL     1      -8.395   6.328  67.070  1.00  0.00    -0.109 C  
HETATM   14  O   UNL     1      -8.831   7.098  66.232  1.00  0.00    -0.140 OA 
BRANCH  13  15
HETATM   15  O   UNL     1      -7.422   5.399  66.868  1.00  0.00    -0.085 OA 
BRANCH  15  16
HETATM   16  C   UNL     1      -7.146   5.077  65.495  1.00  0.00    -0.067 C  
BRANCH  16  17
HETATM   17  C   UNL     1      -8.142   4.087  65.001  1.00  0.00    -0.093 C  
HETATM   18  O   UNL     1      -9.261   2.209  64.536  1.00  0.00    -0.125 OA 
HETATM   19  C   UNL     1      -8.153   2.777  65.120  1.00  0.00    -0.083 C  
HETATM   20  O   UNL     1      -9.243   4.524  64.283  1.00  0.00    -0.154 OA 
HETATM   21  C   UNL     1      -7.246   1.887  65.854  1.00  0.00    -0.056 C  
HETATM   22  C   UNL     1      -9.914   3.328  64.049  1.00  0.00    -0.178 C  
HETATM   23  O   UNL     1     -10.983   3.262  63.454  1.00  0.00    -0.221 OA 
ENDBRANCH  16  17
ENDBRANCH  15  16
ENDBRANCH  13  15
ENDBRANCH   9  13
BRANCH   8  24
HETATM   24  C   UNL     1      -7.147   9.042  68.634  1.00  0.00    -0.071 C  
BRANCH  24  25
HETATM   25  C   UNL     1      -8.065   9.903  67.797  1.00  0.00    -0.109 A  
HETATM   26  C   UNL     1      -7.662  10.612  66.666  1.00  0.00    -0.132 A  
HETATM   27  C   UNL     1     -10.321  10.785  67.468  1.00  0.00    -0.244 A  
HETATM   28  C   UNL     1      -9.929  11.517  66.337  1.00  0.00    -0.241 A  
HETATM   29  C   UNL     1      -9.412   9.985  68.175  1.00  0.00    -0.148 A  
HETATM   30  C   UNL     1      -8.592  11.348  65.922  1.00  0.00    -0.049 A  
BRANCH  28  31
HETATM   31  C   UNL     1     -10.895  12.363  65.565  1.00  0.00    -0.316 A  
HETATM   32  C   UNL     1     -12.065  12.715  63.417  1.00  0.00    -0.614 A  
HETATM   33  C   UNL     1     -11.397  11.887  64.326  1.00  0.00    -0.425 A  
HETATM   34  C   UNL     1     -12.323  14.035  63.747  1.00  0.00    -0.195 A  
HETATM   35  C   UNL     1     -11.944  14.509  64.999  1.00  0.00    -0.399 A  
HETATM   36  C   UNL     1     -11.256  13.685  65.913  1.00  0.00    -0.311 A  
BRANCH  36  37
HETATM   37  C   UNL     1     -10.991  14.305  67.225  1.00  0.00    -0.297 C  
HETATM   38  N   UNL     1      -9.825  14.649  67.662  1.00  0.00    -0.217 NA 
HETATM   39  O   UNL     1     -10.065  15.217  68.953  1.00  0.00    -0.221 OA 
HETATM   40  C   UNL     1     -11.420  15.157  69.153  1.00  0.00    -0.306 C  
HETATM   41  N   UNL     1     -11.985  14.606  68.070  1.00  0.00    -0.301 NA 
HETATM   42  O   UNL     1     -12.008  15.524  70.161  1.00  0.00    -0.319 OA 
ENDBRANCH  36  37
ENDBRANCH  28  31
ENDBRANCH  24  25
ENDBRANCH   8  24
ENDBRANCH   3   4
ENDBRANCH   2   3
TORSDOF 10
ENDMDL
MODEL      178
REMARK 921   NORMALIZED FREE ENERGY PREDICTED BY IDOCK:   -4.20 KCAL/MOL
REMARK 922        TOTAL FREE ENERGY PREDICTED BY IDOCK:   -9.58 KCAL/MOL
REMARK 923 INTER-LIGAND FREE ENERGY PREDICTED BY IDOCK:   -7.66 KCAL/MOL
REMARK 924 INTRA-LIGAND FREE ENERGY PREDICTED BY IDOCK:   -1.92 KCAL/MOL
REMARK 927      BINDING AFFINITY PREDICTED BY RF-SCORE:    0.00 PKD
ROOT
HETATM    1  C   UNL     1     -10.642  13.598  64.492  1.00  0.00    -0.428 C  
HETATM    2  C   UNL     1     -11.923  13.754  65.291  1.00  0.00    -0.374 C  
ENDROOT
BRANCH   2   3
HETATM    3  O   UNL     1     -11.824  14.911  66.126  1.00  0.00    -0.256 OA 
BRANCH   3   4
HETATM    4  C   UNL     1     -10.573  15.308  66.358  1.00  0.00    -0.308 A  
HETATM    5  N   UNL     1      -9.918  16.187  65.644  1.00  0.00    -0.466 NA 
HETATM    6  C   UNL     1      -8.696  16.296  66.247  1.00  0.00    -0.335 A  
HETATM    7  C   UNL     1      -8.581  15.453  67.361  1.00  0.00    -0.179 A  
HETATM    8  N   UNL     1      -9.832  14.861  67.429  1.00  0.00    -0.221 NA 
HETATM    9  C   UNL     1      -7.371  15.387  68.097  1.00  0.00    -0.122 A  
HETATM   10  C   UNL     1      -6.324  16.249  67.703  1.00  0.00    -0.181 A  
HETATM   11  C   UNL     1      -7.637  17.143  65.886  1.00  0.00     0.007 A  
HETATM   12  C   UNL     1      -6.459  17.123  66.629  1.00  0.00    -0.267 A  
BRANCH   9  13
HETATM   13  C   UNL     1      -7.167  14.549  69.302  1.00  0.00    -0.131 C  
HETATM   14  O   UNL     1      -7.118  14.995  70.434  1.00  0.00     0.013 OA 
BRANCH  13  15
HETATM   15  O   UNL     1      -6.973  13.249  68.948  1.00  0.00    -0.101 OA 
BRANCH  15  16
HETATM   16  C   UNL     1      -6.145  12.482  69.837  1.00  0.00    -0.130 C  
BRANCH  16  17
HETATM   17  C   UNL     1      -6.422  11.030  69.656  1.00  0.00    -0.123 C  
HETATM   18  O   UNL     1      -6.517   8.938  68.875  1.00  0.00    -0.047 OA 
HETATM   19  C   UNL     1      -6.085  10.228  68.669  1.00  0.00    -0.047 C  
HETATM   20  O   UNL     1      -7.154  10.349  70.615  1.00  0.00    -0.300 OA 
HETATM   21  C   UNL     1      -5.254  10.481  67.488  1.00  0.00    -0.040 C  
HETATM   22  C   UNL     1      -7.155   9.058  70.097  1.00  0.00    -0.052 C  
HETATM   23  O   UNL     1      -7.683   8.107  70.662  1.00  0.00    -0.080 OA 
ENDBRANCH  16  17
ENDBRANCH  15  16
ENDBRANCH  13  15
ENDBRANCH   9  13
BRANCH   8  24
HETATM   24  C   UNL     1     -10.414  14.090  68.516  1.00  0.00    -0.249 C  
BRANCH  24  25
HETATM   25  C   UNL     1     -10.297  12.588  68.391  1.00  0.00    -0.237 A  
HETATM   26  C   UNL     1      -9.372  11.938  67.574  1.00  0.00    -0.177 A  
HETATM   27  C   UNL     1     -11.141  10.399  69.074  1.00  0.00    -0.297 A  
HETATM   28  C   UNL     1     -10.228   9.727  68.246  1.00  0.00    -0.212 A  
HETATM   29  C   UNL     1     -11.167  11.798  69.155  1.00  0.00    -0.324 A  
HETATM   30  C   UNL     1      -9.304  10.539  67.556  1.00  0.00    -0.162 A  
BRANCH  28  31
HETATM   31  C   UNL     1     -10.181   8.232  68.162  1.00  0.00    -0.255 A  
HETATM   32  C   UNL     1     -10.673   6.089  69.290  1.00  0.00    -0.401 A  
HETATM   33  C   UNL     1     -10.889   7.461  69.121  1.00  0.00    -0.129 A  
HETATM   34  C   UNL     1      -9.795   5.421  68.454  1.00  0.00    -0.197 A  
HETATM   35  C   UNL     1      -9.167   6.120  67.429  1.00  0.00    -0.112 A  
HETATM   36  C   UNL     1      -9.366   7.506  67.263  1.00  0.00    -0.168 A  
BRANCH  36  37
HETATM   37  C   UNL     1      -8.693   8.091  66.088  1.00  0.00    -0.154 C  
HETATM   38  N   UNL     1      -9.281   8.760  65.152  1.00  0.00    -0.057 NA 
HETATM   39  O   UNL     1      -8.235   9.135  64.251  1.00  0.00    -0.142 OA 
HETATM   40  C   UNL     1      -7.075   8.632  64.778  1.00  0.00    -0.077 C  
HETATM   41  N   UNL     1      -7.367   8.001  65.925  1.00  0.00    -0.075 NA 
HETATM   42  O   UNL     1      -5.964   8.724  64.274  1.00  0.00    -0.065 OA 
ENDBRANCH  36  37
ENDBRANCH  28  31
ENDBRANCH  24  25
ENDBRANCH   8  24
ENDBRANCH   3   4
ENDBRANCH   2   3
TORSDOF 10
ENDMDL
MODEL      179
REMARK 921   NORMALIZED FREE ENERGY PREDICTED BY IDOCK:   -4.20 KCAL/MOL
REMARK 922        TOTAL FREE ENERGY PREDICTED BY IDOCK:   -9.57 KCAL/MOL
REMARK 923 INTER-LIGAND FREE ENERGY PREDICTED BY IDOCK:   -8.40 KCAL/MOL
REMARK 924 INTRA-LIGAND FREE ENERGY PREDICTED BY IDOCK:   -1.17 KCAL/MOL
REMARK 927      BINDING AFFINITY PREDICTED BY RF-SCORE:    0.00 PKD
ROOT
HETATM    1  C   UNL     1     -14.225   7.209  71.727  1.00  0.00    -0.484 C  
HETATM    2  C   UNL     1     -13.510   8.497  71.359  1.00  0.00    -0.222 C  
ENDROOT
BRANCH   2   3
HETATM    3  O   UNL     1     -12.188   8.478  71.905  1.00  0.00    -0.309 OA 
BRANCH   3   4
HETATM    4  C   UNL     1     -11.362   7.624  71.299  1.00  0.00    -0.264 A  
HETATM    5  N   UNL     1     -11.666   6.399  70.956  1.00  0.00    -0.331 NA 
HETATM    6  C   UNL     1     -10.540   5.908  70.357  1.00  0.00    -0.286 A  
HETATM    7  C   UNL     1      -9.501   6.849  70.337  1.00  0.00    -0.169 A  
HETATM    8  N   UNL     1     -10.084   7.964  70.915  1.00  0.00    -0.190 NA 
HETATM    9  C   UNL     1      -8.232   6.515  69.797  1.00  0.00    -0.126 A  
HETATM   10  C   UNL     1      -8.087   5.232  69.227  1.00  0.00    -0.092 A  
HETATM   11  C   UNL     1     -10.362   4.642  69.778  1.00  0.00     0.020 A  
HETATM   12  C   UNL     1      -9.136   4.317  69.202  1.00  0.00    -0.185 A  
BRANCH   9  13
HETATM   13  C   UNL     1      -7.087   7.451  69.708  1.00  0.00    -0.068 C  
HETATM   14  O   UNL     1      -7.018   8.357  68.896  1.00  0.00    -0.060 OA 
BRANCH  13  15
HETATM   15  O   UNL     1      -6.119   7.103  70.598  1.00  0.00    -0.031 OA 
BRANCH  15  16
HETATM   16  C   UNL     1      -6.346   7.519  71.955  1.00  0.00    -0.039 C  
BRANCH  16  17
HETATM   17  C   UNL     1      -7.035   6.434  72.705  1.00  0.00    -0.074 C  
HETATM   18  O   UNL     1      -8.356   5.276  74.087  1.00  0.00    -0.109 OA 
HETATM   19  C   UNL     1      -7.951   6.514  73.646  1.00  0.00    -0.100 C  
HETATM   20  O   UNL     1      -6.711   5.111  72.448  1.00  0.00    -0.053 OA 
HETATM   21  C   UNL     1      -8.649   7.685  74.187  1.00  0.00    -0.296 C  
HETATM   22  C   UNL     1      -7.577   4.441  73.306  1.00  0.00    -0.082 C  
HETATM   23  O   UNL     1      -7.642   3.220  73.377  1.00  0.00    -0.054 OA 
ENDBRANCH  16  17
ENDBRANCH  15  16
ENDBRANCH  13  15
ENDBRANCH   9  13
BRANCH   8  24
HETATM   24  C   UNL     1      -9.598   9.334  70.939  1.00  0.00    -0.269 C  
BRANCH  24  25
HETATM   25  C   UNL     1      -9.880  10.152  69.699  1.00  0.00    -0.254 A  
HETATM   26  C   UNL     1      -9.002  11.092  69.161  1.00  0.00    -0.000 A  
HETATM   27  C   UNL     1     -11.449  10.681  67.901  1.00  0.00    -0.261 A  
HETATM   28  C   UNL     1     -10.584  11.642  67.355  1.00  0.00    -0.257 A  
HETATM   29  C   UNL     1     -11.100   9.943  69.040  1.00  0.00    -0.184 A  
HETATM   30  C   UNL     1      -9.327  11.771  67.981  1.00  0.00    -0.184 A  
BRANCH  28  31
HETATM   31  C   UNL     1     -10.939  12.427  66.129  1.00  0.00    -0.321 A  
HETATM   32  C   UNL     1     -12.399  14.160  65.144  1.00  0.00    -0.460 A  
HETATM   33  C   UNL     1     -11.794  13.553  66.250  1.00  0.00    -0.431 A  
HETATM   34  C   UNL     1     -12.110  13.711  63.867  1.00  0.00    -0.462 A  
HETATM   35  C   UNL     1     -11.190  12.681  63.700  1.00  0.00    -0.525 A  
HETATM   36  C   UNL     1     -10.590  12.053  64.811  1.00  0.00    -0.340 A  
BRANCH  36  37
HETATM   37  C   UNL     1      -9.579  11.033  64.472  1.00  0.00    -0.256 C  
HETATM   38  N   UNL     1      -9.698  10.154  63.533  1.00  0.00    -0.203 NA 
HETATM   39  O   UNL     1      -8.479   9.406  63.568  1.00  0.00    -0.177 OA 
HETATM   40  C   UNL     1      -7.720   9.955  64.569  1.00  0.00    -0.142 C  
HETATM   41  N   UNL     1      -8.405  10.973  65.111  1.00  0.00     0.005 NA 
HETATM   42  O   UNL     1      -6.615   9.566  64.921  1.00  0.00    -0.079 OA 
ENDBRANCH  36  37
ENDBRANCH  28  31
ENDBRANCH  24  25
ENDBRANCH   8  24
ENDBRANCH   3   4
ENDBRANCH   2   3
TORSDOF 10
ENDMDL
MODEL      180
REMARK 921   NORMALIZED FREE ENERGY PREDICTED BY IDOCK:   -4.18 KCAL/MOL
REMARK 922        TOTAL FREE ENERGY PREDICTED BY IDOCK:   -9.55 KCAL/MOL
REMARK 923 INTER-LIGAND FREE ENERGY PREDICTED BY IDOCK:   -8.50 KCAL/MOL
REMARK 924 INTRA-LIGAND FREE ENERGY PREDICTED BY IDOCK:   -1.05 KCAL/MOL
REMARK 927      BINDING AFFINITY PREDICTED BY RF-SCORE:    0.00 PKD
ROOT
HETATM    1  C   UNL     1      -5.157   7.864  71.486  1.00  0.00    -0.030 C  
HETATM    2  C   UNL     1      -5.847   8.906  72.348  1.00  0.00    -0.071 C  
ENDROOT
BRANCH   2   3
HETATM    3  O   UNL     1      -6.852   9.569  71.578  1.00  0.00    -0.314 OA 
BRANCH   3   4
HETATM    4  C   UNL     1      -8.021   8.928  71.542  1.00  0.00    -0.066 A  
HETATM    5  N   UNL     1      -8.861   8.837  72.540  1.00  0.00    -0.389 NA 
HETATM    6  C   UNL     1      -9.915   8.116  72.054  1.00  0.00    -0.233 A  
HETATM    7  C   UNL     1      -9.721   7.734  70.719  1.00  0.00    -0.173 A  
HETATM    8  N   UNL     1      -8.504   8.316  70.406  1.00  0.00    -0.125 NA 
HETATM    9  C   UNL     1     -10.685   6.939  70.047  1.00  0.00    -0.276 A  
HETATM   10  C   UNL     1     -11.862   6.612  70.753  1.00  0.00    -0.441 A  
HETATM   11  C   UNL     1     -11.100   7.776  72.725  1.00  0.00    -0.457 A  
HETATM   12  C   UNL     1     -12.075   7.035  72.061  1.00  0.00    -0.329 A  
BRANCH   9  13
HETATM   13  C   UNL     1     -10.579   6.513  68.632  1.00  0.00    -0.245 C  
HETATM   14  O   UNL     1     -11.041   7.148  67.700  1.00  0.00    -0.175 OA 
BRANCH  13  15
HETATM   15  O   UNL     1      -9.970   5.300  68.545  1.00  0.00    -0.149 OA 
BRANCH  15  16
HETATM   16  C   UNL     1      -8.954   5.044  69.529  1.00  0.00    -0.096 C  
BRANCH  16  17
HETATM   17  C   UNL     1      -9.162   3.698  70.129  1.00  0.00    -0.151 C  
HETATM   18  O   UNL     1      -9.080   1.514  70.597  1.00  0.00    -0.065 OA 
HETATM   19  C   UNL     1      -8.654   2.536  69.780  1.00  0.00    -0.060 C  
HETATM   20  O   UNL     1     -10.017   3.555  71.210  1.00  0.00    -0.166 OA 
HETATM   21  C   UNL     1      -7.655   2.211  68.757  1.00  0.00    -0.043 C  
HETATM   22  C   UNL     1      -9.904   2.194  71.475  1.00  0.00    -0.132 C  
HETATM   23  O   UNL     1     -10.489   1.638  72.397  1.00  0.00    -0.155 OA 
ENDBRANCH  16  17
ENDBRANCH  15  16
ENDBRANCH  13  15
ENDBRANCH   9  13
BRANCH   8  24
HETATM   24  C   UNL     1      -7.894   8.498  69.099  1.00  0.00    -0.100 C  
BRANCH  24  25
HETATM   25  C   UNL     1      -8.648   9.392  68.142  1.00  0.00    -0.120 A  
HETATM   26  C   UNL     1      -8.445   9.413  66.762  1.00  0.00    -0.129 A  
HETATM   27  C   UNL     1     -10.346  11.126  67.856  1.00  0.00    -0.211 A  
HETATM   28  C   UNL     1     -10.144  11.173  66.468  1.00  0.00    -0.265 A  
HETATM   29  C   UNL     1      -9.624  10.246  68.674  1.00  0.00    -0.169 A  
HETATM   30  C   UNL     1      -9.223  10.242  65.944  1.00  0.00    -0.205 A  
BRANCH  28  31
HETATM   31  C   UNL     1     -10.921  12.098  65.583  1.00  0.00    -0.337 A  
HETATM   32  C   UNL     1     -12.650  12.305  63.829  1.00  0.00    -0.577 A  
HETATM   33  C   UNL     1     -12.049  11.602  64.879  1.00  0.00     0.178 A  
HETATM   34  C   UNL     1     -12.192  13.567  63.493  1.00  0.00    -0.410 A  
HETATM   35  C   UNL     1     -11.160  14.135  64.233  1.00  0.00    -0.146 A  
HETATM   36  C   UNL     1     -10.538  13.426  65.281  1.00  0.00    -0.333 A  
BRANCH  36  37
HETATM   37  C   UNL     1      -9.515  14.189  66.020  1.00  0.00    -0.160 C  
HETATM   38  N   UNL     1      -8.724  13.696  66.915  1.00  0.00    -0.189 NA 
HETATM   39  O   UNL     1      -7.906  14.793  67.333  1.00  0.00    -0.173 OA 
HETATM   40  C   UNL     1      -8.311  15.876  66.597  1.00  0.00    -0.293 C  
HETATM   41  N   UNL     1      -9.297  15.487  65.776  1.00  0.00    -0.313 NA 
HETATM   42  O   UNL     1      -7.864  17.010  66.693  1.00  0.00    -0.208 OA 
ENDBRANCH  36  37
ENDBRANCH  28  31
ENDBRANCH  24  25
ENDBRANCH   8  24
ENDBRANCH   3   4
ENDBRANCH   2   3
TORSDOF 10
ENDMDL
MODEL      181
REMARK 921   NORMALIZED FREE ENERGY PREDICTED BY IDOCK:   -4.12 KCAL/MOL
REMARK 922        TOTAL FREE ENERGY PREDICTED BY IDOCK:   -9.44 KCAL/MOL
REMARK 923 INTER-LIGAND FREE ENERGY PREDICTED BY IDOCK:   -7.69 KCAL/MOL
REMARK 924 INTRA-LIGAND FREE ENERGY PREDICTED BY IDOCK:   -1.75 KCAL/MOL
REMARK 927      BINDING AFFINITY PREDICTED BY RF-SCORE:    0.00 PKD
ROOT
HETATM    1  C   UNL     1      -8.789   8.805  63.472  1.00  0.00     0.153 C  
HETATM    2  C   UNL     1      -7.296   8.591  63.298  1.00  0.00    -0.103 C  
ENDROOT
BRANCH   2   3
HETATM    3  O   UNL     1      -6.740   8.104  64.522  1.00  0.00    -0.066 OA 
BRANCH   3   4
HETATM    4  C   UNL     1      -7.375   7.043  65.022  1.00  0.00    -0.083 A  
HETATM    5  N   UNL     1      -7.739   5.991  64.335  1.00  0.00    -0.097 NA 
HETATM    6  C   UNL     1      -8.332   5.160  65.243  1.00  0.00    -0.139 A  
HETATM    7  C   UNL     1      -8.351   5.715  66.531  1.00  0.00    -0.110 A  
HETATM    8  N   UNL     1      -7.682   6.915  66.358  1.00  0.00    -0.095 NA 
HETATM    9  C   UNL     1      -8.965   5.024  67.607  1.00  0.00    -0.115 A  
HETATM   10  C   UNL     1      -9.489   3.741  67.340  1.00  0.00    -0.239 A  
HETATM   11  C   UNL     1      -8.859   3.879  65.014  1.00  0.00    -0.126 A  
HETATM   12  C   UNL     1      -9.423   3.171  66.073  1.00  0.00    -0.048 A  
BRANCH   9  13
HETATM   13  C   UNL     1      -9.007   5.517  69.004  1.00  0.00    -0.108 C  
HETATM   14  O   UNL     1      -8.013   5.778  69.658  1.00  0.00    -0.096 OA 
BRANCH  13  15
HETATM   15  O   UNL     1     -10.290   5.561  69.453  1.00  0.00    -0.231 OA 
BRANCH  15  16
HETATM   16  C   UNL     1     -10.798   6.872  69.752  1.00  0.00    -0.259 C  
BRANCH  16  17
HETATM   17  C   UNL     1     -10.460   7.235  71.155  1.00  0.00    -0.209 C  
HETATM   18  O   UNL     1     -10.392   7.378  73.385  1.00  0.00    -0.312 OA 
HETATM   19  C   UNL     1     -10.995   6.816  72.282  1.00  0.00    -0.243 C  
HETATM   20  O   UNL     1      -9.456   8.157  71.401  1.00  0.00    -0.151 OA 
HETATM   21  C   UNL     1     -12.021   5.796  72.520  1.00  0.00    -0.157 C  
HETATM   22  C   UNL     1      -9.437   8.184  72.791  1.00  0.00    -0.279 C  
HETATM   23  O   UNL     1      -8.653   8.866  73.440  1.00  0.00    -0.223 OA 
ENDBRANCH  16  17
ENDBRANCH  15  16
ENDBRANCH  13  15
ENDBRANCH   9  13
BRANCH   8  24
HETATM   24  C   UNL     1      -7.155   7.815  67.372  1.00  0.00    -0.086 C  
BRANCH  24  25
HETATM   25  C   UNL     1      -7.894   9.123  67.536  1.00  0.00    -0.100 A  
HETATM   26  C   UNL     1      -9.069   9.274  68.272  1.00  0.00    -0.128 A  
HETATM   27  C   UNL     1      -7.997  11.505  66.999  1.00  0.00    -0.161 A  
HETATM   28  C   UNL     1      -9.189  11.673  67.722  1.00  0.00    -0.178 A  
HETATM   29  C   UNL     1      -7.357  10.261  66.918  1.00  0.00    -0.097 A  
HETATM   30  C   UNL     1      -9.662  10.536  68.409  1.00  0.00    -0.166 A  
BRANCH  28  31
HETATM   31  C   UNL     1      -9.874  13.001  67.827  1.00  0.00    -0.224 A  
HETATM   32  C   UNL     1     -10.298  14.995  69.223  1.00  0.00    -0.249 A  
HETATM   33  C   UNL     1      -9.524  13.880  68.885  1.00  0.00     0.047 A  
HETATM   34  C   UNL     1     -11.413  15.316  68.468  1.00  0.00    -0.355 A  
HETATM   35  C   UNL     1     -11.726  14.542  67.355  1.00  0.00    -0.425 A  
HETATM   36  C   UNL     1     -10.960  13.407  67.017  1.00  0.00    -0.298 A  
BRANCH  36  37
HETATM   37  C   UNL     1     -11.368  12.736  65.769  1.00  0.00    -0.320 C  
HETATM   38  N   UNL     1     -10.576  12.089  64.980  1.00  0.00    -0.278 NA 
HETATM   39  O   UNL     1     -11.414  11.604  63.928  1.00  0.00    -0.385 OA 
HETATM   40  C   UNL     1     -12.684  12.026  64.222  1.00  0.00    -0.188 C  
HETATM   41  N   UNL     1     -12.647  12.712  65.374  1.00  0.00    -0.642 NA 
HETATM   42  O   UNL     1     -13.678  11.829  63.537  1.00  0.00    -0.119 OA 
ENDBRANCH  36  37
ENDBRANCH  28  31
ENDBRANCH  24  25
ENDBRANCH   8  24
ENDBRANCH   3   4
ENDBRANCH   2   3
TORSDOF 10
ENDMDL
MODEL      182
REMARK 921   NORMALIZED FREE ENERGY PREDICTED BY IDOCK:   -4.11 KCAL/MOL
REMARK 922        TOTAL FREE ENERGY PREDICTED BY IDOCK:   -9.44 KCAL/MOL
REMARK 923 INTER-LIGAND FREE ENERGY PREDICTED BY IDOCK:   -6.99 KCAL/MOL
REMARK 924 INTRA-LIGAND FREE ENERGY PREDICTED BY IDOCK:   -2.44 KCAL/MOL
REMARK 927      BINDING AFFINITY PREDICTED BY RF-SCORE:    0.00 PKD
ROOT
HETATM    1  C   UNL     1      -5.218  19.032  68.038  1.00  0.00    -0.173 C  
HETATM    2  C   UNL     1      -5.147  17.841  68.977  1.00  0.00    -0.174 C  
ENDROOT
BRANCH   2   3
HETATM    3  O   UNL     1      -5.402  16.641  68.242  1.00  0.00    -0.109 OA 
BRANCH   3   4
HETATM    4  C   UNL     1      -6.661  16.520  67.819  1.00  0.00    -0.139 A  
HETATM    5  N   UNL     1      -7.202  17.223  66.858  1.00  0.00    -0.180 NA 
HETATM    6  C   UNL     1      -8.483  16.758  66.755  1.00  0.00    -0.234 A  
HETATM    7  C   UNL     1      -8.753  15.746  67.687  1.00  0.00    -0.170 A  
HETATM    8  N   UNL     1      -7.536  15.588  68.329  1.00  0.00    -0.113 NA 
HETATM    9  C   UNL     1     -10.044  15.164  67.770  1.00  0.00    -0.230 A  
HETATM   10  C   UNL     1     -11.012  15.596  66.838  1.00  0.00    -0.243 A  
HETATM   11  C   UNL     1      -9.469  17.161  65.840  1.00  0.00    -0.077 A  
HETATM   12  C   UNL     1     -10.727  16.564  65.880  1.00  0.00    -0.194 A  
BRANCH   9  13
HETATM   13  C   UNL     1     -10.413  14.072  68.702  1.00  0.00    -0.247 C  
HETATM   14  O   UNL     1     -10.567  14.231  69.900  1.00  0.00     0.036 OA 
BRANCH  13  15
HETATM   15  O   UNL     1     -10.476  12.885  68.041  1.00  0.00    -0.218 OA 
BRANCH  15  16
HETATM   16  C   UNL     1     -11.704  12.154  68.195  1.00  0.00    -0.341 C  
BRANCH  16  17
HETATM   17  C   UNL     1     -11.496  11.013  69.128  1.00  0.00    -0.301 C  
HETATM   18  O   UNL     1     -11.474   9.671  70.915  1.00  0.00    -0.296 OA 
HETATM   19  C   UNL     1     -11.824  10.897  70.397  1.00  0.00    -0.357 C  
HETATM   20  O   UNL     1     -10.854   9.871  68.680  1.00  0.00    -0.222 OA 
HETATM   21  C   UNL     1     -12.577  11.807  71.266  1.00  0.00    -0.401 C  
HETATM   22  C   UNL     1     -10.896   9.066  69.813  1.00  0.00    -0.205 C  
HETATM   23  O   UNL     1     -10.452   7.924  69.845  1.00  0.00    -0.220 OA 
ENDBRANCH  16  17
ENDBRANCH  15  16
ENDBRANCH  13  15
ENDBRANCH   9  13
BRANCH   8  24
HETATM   24  C   UNL     1      -7.109  14.515  69.213  1.00  0.00    -0.140 C  
BRANCH  24  25
HETATM   25  C   UNL     1      -6.938  13.160  68.565  1.00  0.00    -0.103 A  
HETATM   26  C   UNL     1      -6.252  12.941  67.371  1.00  0.00    -0.109 A  
HETATM   27  C   UNL     1      -7.407  10.763  68.662  1.00  0.00    -0.097 A  
HETATM   28  C   UNL     1      -6.733  10.527  67.453  1.00  0.00    -0.071 A  
HETATM   29  C   UNL     1      -7.497  12.048  69.212  1.00  0.00     0.185 A  
HETATM   30  C   UNL     1      -6.103  11.644  66.866  1.00  0.00    -0.148 A  
BRANCH  28  31
HETATM   31  C   UNL     1      -6.618   9.155  66.862  1.00  0.00    -0.068 A  
HETATM   32  C   UNL     1      -5.375   7.019  66.840  1.00  0.00    -0.018 A  
HETATM   33  C   UNL     1      -5.757   8.206  67.474  1.00  0.00    -0.039 A  
HETATM   34  C   UNL     1      -5.899   6.699  65.600  1.00  0.00    -0.030 A  
HETATM   35  C   UNL     1      -6.833   7.550  65.017  1.00  0.00    -0.047 A  
HETATM   36  C   UNL     1      -7.210   8.757  65.642  1.00  0.00    -0.084 A  
BRANCH  36  37
HETATM   37  C   UNL     1      -8.264   9.512  64.939  1.00  0.00    -0.140 C  
HETATM   38  N   UNL     1      -8.432   9.537  63.659  1.00  0.00    -0.182 NA 
HETATM   39  O   UNL     1      -9.573  10.375  63.450  1.00  0.00    -0.299 OA 
HETATM   40  C   UNL     1      -9.990  10.773  64.693  1.00  0.00    -0.324 C  
HETATM   41  N   UNL     1      -9.183  10.219  65.610  1.00  0.00    -0.172 NA 
HETATM   42  O   UNL     1     -10.927  11.525  64.924  1.00  0.00    -0.298 OA 
ENDBRANCH  36  37
ENDBRANCH  28  31
ENDBRANCH  24  25
ENDBRANCH   8  24
ENDBRANCH   3   4
ENDBRANCH   2   3
TORSDOF 10
ENDMDL
MODEL      183
REMARK 921   NORMALIZED FREE ENERGY PREDICTED BY IDOCK:   -4.07 KCAL/MOL
REMARK 922        TOTAL FREE ENERGY PREDICTED BY IDOCK:   -9.38 KCAL/MOL
REMARK 923 INTER-LIGAND FREE ENERGY PREDICTED BY IDOCK:   -7.15 KCAL/MOL
REMARK 924 INTRA-LIGAND FREE ENERGY PREDICTED BY IDOCK:   -2.23 KCAL/MOL
REMARK 927      BINDING AFFINITY PREDICTED BY RF-SCORE:    0.00 PKD
ROOT
HETATM    1  C   UNL     1      -9.130  10.112  64.074  1.00  0.00    -0.289 C  
HETATM    2  C   UNL     1      -7.988   9.579  63.227  1.00  0.00    -0.143 C  
ENDROOT
BRANCH   2   3
HETATM    3  O   UNL     1      -7.291   8.565  63.955  1.00  0.00    -0.097 OA 
BRANCH   3   4
HETATM    4  C   UNL     1      -7.852   7.358  63.877  1.00  0.00    -0.117 A  
HETATM    5  N   UNL     1      -8.252   6.784  62.772  1.00  0.00    -0.040 NA 
HETATM    6  C   UNL     1      -8.740   5.567  63.160  1.00  0.00     0.106 A  
HETATM    7  C   UNL     1      -8.654   5.383  64.547  1.00  0.00    -0.077 A  
HETATM    8  N   UNL     1      -8.032   6.545  64.974  1.00  0.00    -0.117 NA 
HETATM    9  C   UNL     1      -9.150   4.200  65.152  1.00  0.00    -0.142 A  
HETATM   10  C   UNL     1      -9.666   3.201  64.298  1.00  0.00    -0.156 A  
HETATM   11  C   UNL     1      -9.255   4.551  62.339  1.00  0.00    -0.126 A  
HETATM   12  C   UNL     1      -9.704   3.366  62.916  1.00  0.00    -0.102 A  
BRANCH   9  13
HETATM   13  C   UNL     1      -9.077   3.906  66.602  1.00  0.00    -0.151 C  
HETATM   14  O   UNL     1      -9.971   4.162  67.389  1.00  0.00    -0.151 OA 
BRANCH  13  15
HETATM   15  O   UNL     1      -7.860   3.387  66.920  1.00  0.00    -0.079 OA 
BRANCH  15  16
HETATM   16  C   UNL     1      -7.814   2.607  68.126  1.00  0.00    -0.058 C  
BRANCH  16  17
HETATM   17  C   UNL     1      -7.077   3.355  69.181  1.00  0.00    -0.049 C  
HETATM   18  O   UNL     1      -6.052   3.959  71.074  1.00  0.00    -0.014 OA 
HETATM   19  C   UNL     1      -6.752   2.984  70.402  1.00  0.00    -0.033 C  
HETATM   20  O   UNL     1      -6.647   4.647  68.931  1.00  0.00    -0.042 OA 
HETATM   21  C   UNL     1      -6.927   1.693  71.075  1.00  0.00    -0.032 C  
HETATM   22  C   UNL     1      -5.995   4.959  70.119  1.00  0.00    -0.018 C  
HETATM   23  O   UNL     1      -5.428   6.027  70.316  1.00  0.00    -0.012 OA 
ENDBRANCH  16  17
ENDBRANCH  15  16
ENDBRANCH  13  15
ENDBRANCH   9  13
BRANCH   8  24
HETATM   24  C   UNL     1      -7.436   6.832  66.268  1.00  0.00    -0.077 C  
BRANCH  24  25
HETATM   25  C   UNL     1      -8.389   7.324  67.334  1.00  0.00    -0.119 A  
HETATM   26  C   UNL     1      -9.777   7.326  67.206  1.00  0.00    -0.204 A  
HETATM   27  C   UNL     1      -8.656   8.296  69.561  1.00  0.00    -0.134 A  
HETATM   28  C   UNL     1     -10.054   8.320  69.443  1.00  0.00    -0.198 A  
HETATM   29  C   UNL     1      -7.841   7.797  68.535  1.00  0.00    -0.120 A  
HETATM   30  C   UNL     1     -10.586   7.757  68.265  1.00  0.00    -0.169 A  
BRANCH  28  31
HETATM   31  C   UNL     1     -10.935   8.837  70.538  1.00  0.00    -0.272 A  
HETATM   32  C   UNL     1     -12.053   8.349  72.688  1.00  0.00    -0.324 A  
HETATM   33  C   UNL     1     -11.052   8.097  71.743  1.00  0.00    -0.329 A  
HETATM   34  C   UNL     1     -12.930   9.402  72.498  1.00  0.00    -0.345 A  
HETATM   35  C   UNL     1     -12.778  10.222  71.384  1.00  0.00    -0.547 A  
HETATM   36  C   UNL     1     -11.782   9.963  70.419  1.00  0.00    -0.333 A  
BRANCH  36  37
HETATM   37  C   UNL     1     -11.696  10.963  69.338  1.00  0.00    -0.325 C  
HETATM   38  N   UNL     1     -11.874  10.715  68.082  1.00  0.00    -0.439 NA 
HETATM   39  O   UNL     1     -11.713  11.977  67.429  1.00  0.00    -0.470 OA 
HETATM   40  C   UNL     1     -11.452  12.891  68.416  1.00  0.00    -0.312 C  
HETATM   41  N   UNL     1     -11.461  12.255  69.597  1.00  0.00    -0.249 NA 
HETATM   42  O   UNL     1     -11.228  14.081  68.245  1.00  0.00    -0.247 OA 
ENDBRANCH  36  37
ENDBRANCH  28  31
ENDBRANCH  24  25
ENDBRANCH   8  24
ENDBRANCH   3   4
ENDBRANCH   2   3
TORSDOF 10
ENDMDL
MODEL      184
REMARK 921   NORMALIZED FREE ENERGY PREDICTED BY IDOCK:   -4.05 KCAL/MOL
REMARK 922        TOTAL FREE ENERGY PREDICTED BY IDOCK:   -9.33 KCAL/MOL
REMARK 923 INTER-LIGAND FREE ENERGY PREDICTED BY IDOCK:   -7.20 KCAL/MOL
REMARK 924 INTRA-LIGAND FREE ENERGY PREDICTED BY IDOCK:   -2.13 KCAL/MOL
REMARK 927      BINDING AFFINITY PREDICTED BY RF-SCORE:    0.00 PKD
ROOT
HETATM    1  C   UNL     1     -11.542  13.932  65.068  1.00  0.00    -0.350 C  
HETATM    2  C   UNL     1     -11.885  12.826  66.051  1.00  0.00    -0.439 C  
ENDROOT
BRANCH   2   3
HETATM    3  O   UNL     1     -10.715  12.468  66.790  1.00  0.00    -0.232 OA 
BRANCH   3   4
HETATM    4  C   UNL     1     -10.140  11.336  66.381  1.00  0.00    -0.220 A  
HETATM    5  N   UNL     1      -9.249  11.247  65.428  1.00  0.00    -0.207 NA 
HETATM    6  C   UNL     1      -8.930   9.920  65.362  1.00  0.00    -0.184 A  
HETATM    7  C   UNL     1      -9.652   9.158  66.292  1.00  0.00    -0.255 A  
HETATM    8  N   UNL     1     -10.392  10.115  66.965  1.00  0.00    -0.233 NA 
HETATM    9  C   UNL     1      -9.495   7.749  66.350  1.00  0.00    -0.245 A  
HETATM   10  C   UNL     1      -8.542   7.166  65.487  1.00  0.00    -0.093 A  
HETATM   11  C   UNL     1      -7.987   9.307  64.521  1.00  0.00    -0.128 A  
HETATM   12  C   UNL     1      -7.790   7.931  64.601  1.00  0.00    -0.133 A  
BRANCH   9  13
HETATM   13  C   UNL     1     -10.192   6.868  67.316  1.00  0.00    -0.220 C  
HETATM   14  O   UNL     1     -11.404   6.752  67.371  1.00  0.00    -0.274 OA 
BRANCH  13  15
HETATM   15  O   UNL     1      -9.297   6.283  68.156  1.00  0.00    -0.118 OA 
BRANCH  15  16
HETATM   16  C   UNL     1      -9.593   4.927  68.532  1.00  0.00    -0.152 C  
BRANCH  16  17
HETATM   17  C   UNL     1      -9.045   3.991  67.513  1.00  0.00    -0.146 C  
HETATM   18  O   UNL     1      -7.758   2.562  66.374  1.00  0.00    -0.071 OA 
HETATM   19  C   UNL     1      -7.894   3.354  67.490  1.00  0.00    -0.077 C  
HETATM   20  O   UNL     1      -9.786   3.706  66.377  1.00  0.00    -0.174 OA 
HETATM   21  C   UNL     1      -6.831   3.288  68.499  1.00  0.00    -0.045 C  
HETATM   22  C   UNL     1      -8.958   2.797  65.727  1.00  0.00    -0.143 C  
HETATM   23  O   UNL     1      -9.254   2.256  64.668  1.00  0.00    -0.128 OA 
ENDBRANCH  16  17
ENDBRANCH  15  16
ENDBRANCH  13  15
ENDBRANCH   9  13
BRANCH   8  24
HETATM   24  C   UNL     1     -11.134   9.980  68.208  1.00  0.00    -0.190 C  
BRANCH  24  25
HETATM   25  C   UNL     1     -10.348   9.453  69.387  1.00  0.00    -0.222 A  
HETATM   26  C   UNL     1     -10.908   8.743  70.450  1.00  0.00    -0.256 A  
HETATM   27  C   UNL     1      -8.171   9.250  70.479  1.00  0.00    -0.219 A  
HETATM   28  C   UNL     1      -8.719   8.549  71.564  1.00  0.00    -0.246 A  
HETATM   29  C   UNL     1      -8.965   9.682  69.408  1.00  0.00    -0.186 A  
HETATM   30  C   UNL     1     -10.095   8.251  71.479  1.00  0.00    -0.270 A  
BRANCH  28  31
HETATM   31  C   UNL     1      -7.878   8.069  72.708  1.00  0.00    -0.178 A  
HETATM   32  C   UNL     1      -5.899   8.488  74.127  1.00  0.00    -0.125 A  
HETATM   33  C   UNL     1      -6.905   8.939  73.266  1.00  0.00     0.194 A  
HETATM   34  C   UNL     1      -5.873   7.162  74.523  1.00  0.00    -0.077 A  
HETATM   35  C   UNL     1      -6.876   6.303  74.086  1.00  0.00    -0.082 A  
HETATM   36  C   UNL     1      -7.883   6.746  73.205  1.00  0.00    -0.099 A  
BRANCH  36  37
HETATM   37  C   UNL     1      -8.917   5.741  72.893  1.00  0.00    -0.123 C  
HETATM   38  N   UNL     1      -8.860   4.895  71.918  1.00  0.00    -0.127 NA 
HETATM   39  O   UNL     1     -10.060   4.124  72.025  1.00  0.00    -0.175 OA 
HETATM   40  C   UNL     1     -10.734   4.610  73.115  1.00  0.00    -0.239 C  
HETATM   41  N   UNL     1     -10.008   5.601  73.655  1.00  0.00    -0.172 NA 
HETATM   42  O   UNL     1     -11.823   4.221  73.512  1.00  0.00    -0.144 OA 
ENDBRANCH  36  37
ENDBRANCH  28  31
ENDBRANCH  24  25
ENDBRANCH   8  24
ENDBRANCH   3   4
ENDBRANCH   2   3
TORSDOF 10
ENDMDL
MODEL      185
REMARK 921   NORMALIZED FREE ENERGY PREDICTED BY IDOCK:   -4.04 KCAL/MOL
REMARK 922        TOTAL FREE ENERGY PREDICTED BY IDOCK:   -9.31 KCAL/MOL
REMARK 923 INTER-LIGAND FREE ENERGY PREDICTED BY IDOCK:   -8.76 KCAL/MOL
REMARK 924 INTRA-LIGAND FREE ENERGY PREDICTED BY IDOCK:   -0.56 KCAL/MOL
REMARK 927      BINDING AFFINITY PREDICTED BY RF-SCORE:    0.00 PKD
ROOT
HETATM    1  C   UNL     1     -10.573   4.713  65.918  1.00  0.00    -0.265 C  
HETATM    2  C   UNL     1      -9.830   5.422  67.036  1.00  0.00    -0.162 C  
ENDROOT
BRANCH   2   3
HETATM    3  O   UNL     1     -10.156   6.814  67.015  1.00  0.00    -0.167 OA 
BRANCH   3   4
HETATM    4  C   UNL     1      -9.107   7.616  66.831  1.00  0.00    -0.144 A  
HETATM    5  N   UNL     1      -7.864   7.219  66.738  1.00  0.00    -0.111 NA 
HETATM    6  C   UNL     1      -7.140   8.360  66.538  1.00  0.00    -0.072 A  
HETATM    7  C   UNL     1      -7.952   9.503  66.518  1.00  0.00    -0.112 A  
HETATM    8  N   UNL     1      -9.225   8.977  66.666  1.00  0.00    -0.157 NA 
HETATM    9  C   UNL     1      -7.382  10.793  66.367  1.00  0.00    -0.142 A  
HETATM   10  C   UNL     1      -5.986  10.867  66.171  1.00  0.00    -0.141 A  
HETATM   11  C   UNL     1      -5.755   8.470  66.337  1.00  0.00    -0.047 A  
HETATM   12  C   UNL     1      -5.188   9.727  66.140  1.00  0.00    -0.039 A  
BRANCH   9  13
HETATM   13  C   UNL     1      -8.162  12.051  66.305  1.00  0.00     0.204 C  
HETATM   14  O   UNL     1      -9.245  12.148  65.756  1.00  0.00    -0.151 OA 
BRANCH  13  15
HETATM   15  O   UNL     1      -7.465  13.070  66.876  1.00  0.00     0.049 OA 
BRANCH  15  16
HETATM   16  C   UNL     1      -8.246  14.207  67.279  1.00  0.00    -0.181 C  
BRANCH  16  17
HETATM   17  C   UNL     1      -7.476  15.458  67.039  1.00  0.00    -0.131 C  
HETATM   18  O   UNL     1      -5.963  17.102  67.113  1.00  0.00    -0.129 OA 
HETATM   19  C   UNL     1      -6.385  15.898  67.629  1.00  0.00    -0.164 C  
HETATM   20  O   UNL     1      -7.912  16.357  66.080  1.00  0.00    -0.293 OA 
HETATM   21  C   UNL     1      -5.532  15.259  68.637  1.00  0.00    -0.091 C  
HETATM   22  C   UNL     1      -6.926  17.336  66.148  1.00  0.00    -0.216 C  
HETATM   23  O   UNL     1      -6.911  18.326  65.427  1.00  0.00    -0.496 OA 
ENDBRANCH  16  17
ENDBRANCH  15  16
ENDBRANCH  13  15
ENDBRANCH   9  13
BRANCH   8  24
HETATM   24  C   UNL     1     -10.507   9.633  66.461  1.00  0.00    -0.143 C  
BRANCH  24  25
HETATM   25  C   UNL     1     -10.991  10.497  67.604  1.00  0.00    -0.375 A  
HETATM   26  C   UNL     1     -10.748  10.226  68.950  1.00  0.00    -0.256 A  
HETATM   27  C   UNL     1     -12.232  12.487  68.291  1.00  0.00     0.089 A  
HETATM   28  C   UNL     1     -12.010  12.222  69.652  1.00  0.00    -0.347 A  
HETATM   29  C   UNL     1     -11.723  11.650  67.289  1.00  0.00    -0.255 A  
HETATM   30  C   UNL     1     -11.196  11.108  69.942  1.00  0.00    -0.293 A  
BRANCH  28  31
HETATM   31  C   UNL     1     -12.536  13.118  70.732  1.00  0.00    -0.389 A  
HETATM   32  C   UNL     1     -14.073  13.345  72.653  1.00  0.00    -0.238 A  
HETATM   33  C   UNL     1     -13.315  12.559  71.778  1.00  0.00    -0.382 A  
HETATM   34  C   UNL     1     -14.019  14.726  72.563  1.00  0.00    -0.527 A  
HETATM   35  C   UNL     1     -13.180  15.313  71.622  1.00  0.00    -0.532 A  
HETATM   36  C   UNL     1     -12.426  14.528  70.726  1.00  0.00    -0.420 A  
BRANCH  36  37
HETATM   37  C   UNL     1     -11.527  15.292  69.841  1.00  0.00    -0.304 C  
HETATM   38  N   UNL     1     -10.243  15.155  69.790  1.00  0.00    -0.219 NA 
HETATM   39  O   UNL     1      -9.811  16.079  68.788  1.00  0.00    -0.206 OA 
HETATM   40  C   UNL     1     -10.942  16.692  68.316  1.00  0.00    -0.341 C  
HETATM   41  N   UNL     1     -12.001  16.185  68.964  1.00  0.00    -0.200 NA 
HETATM   42  O   UNL     1     -10.975  17.570  67.465  1.00  0.00    -0.265 OA 
ENDBRANCH  36  37
ENDBRANCH  28  31
ENDBRANCH  24  25
ENDBRANCH   8  24
ENDBRANCH   3   4
ENDBRANCH   2   3
TORSDOF 10
ENDMDL
MODEL      186
REMARK 921   NORMALIZED FREE ENERGY PREDICTED BY IDOCK:   -4.02 KCAL/MOL
REMARK 922        TOTAL FREE ENERGY PREDICTED BY IDOCK:   -9.30 KCAL/MOL
REMARK 923 INTER-LIGAND FREE ENERGY PREDICTED BY IDOCK:   -7.73 KCAL/MOL
REMARK 924 INTRA-LIGAND FREE ENERGY PREDICTED BY IDOCK:   -1.57 KCAL/MOL
REMARK 927      BINDING AFFINITY PREDICTED BY RF-SCORE:    0.00 PKD
ROOT
HETATM    1  C   UNL     1     -11.712  11.934  63.393  1.00  0.00    -0.500 C  
HETATM    2  C   UNL     1     -12.904  12.187  64.301  1.00  0.00    -0.188 C  
ENDROOT
BRANCH   2   3
HETATM    3  O   UNL     1     -12.444  12.421  65.634  1.00  0.00    -0.640 OA 
BRANCH   3   4
HETATM    4  C   UNL     1     -11.710  13.526  65.770  1.00  0.00    -0.345 A  
HETATM    5  N   UNL     1     -11.908  14.644  65.121  1.00  0.00    -0.365 NA 
HETATM    6  C   UNL     1     -10.945  15.498  65.581  1.00  0.00    -0.303 A  
HETATM    7  C   UNL     1     -10.115  14.891  66.535  1.00  0.00    -0.271 A  
HETATM    8  N   UNL     1     -10.669  13.628  66.664  1.00  0.00    -0.279 NA 
HETATM    9  C   UNL     1      -9.025  15.600  67.101  1.00  0.00    -0.232 A  
HETATM   10  C   UNL     1      -8.857  16.948  66.717  1.00  0.00    -0.262 A  
HETATM   11  C   UNL     1     -10.751  16.842  65.225  1.00  0.00    -0.183 A  
HETATM   12  C   UNL     1      -9.713  17.563  65.808  1.00  0.00     0.056 A  
BRANCH   9  13
HETATM   13  C   UNL     1      -8.115  15.051  68.134  1.00  0.00    -0.131 C  
HETATM   14  O   UNL     1      -8.501  14.493  69.145  1.00  0.00    -0.100 OA 
BRANCH  13  15
HETATM   15  O   UNL     1      -6.820  15.328  67.821  1.00  0.00    -0.136 OA 
BRANCH  15  16
HETATM   16  C   UNL     1      -5.990  15.736  68.921  1.00  0.00    -0.108 C  
BRANCH  16  17
HETATM   17  C   UNL     1      -5.744  17.202  68.848  1.00  0.00    -0.149 C  
HETATM   18  O   UNL     1      -5.313  19.340  69.340  1.00  0.00    -0.190 OA 
HETATM   19  C   UNL     1      -5.504  18.062  69.815  1.00  0.00    -0.218 C  
HETATM   20  O   UNL     1      -5.770  17.841  67.619  1.00  0.00    -0.135 OA 
HETATM   21  C   UNL     1      -5.310  17.839  71.251  1.00  0.00    -0.020 C  
HETATM   22  C   UNL     1      -5.468  19.150  67.979  1.00  0.00    -0.181 C  
HETATM   23  O   UNL     1      -5.358  20.062  67.168  1.00  0.00    -0.162 OA 
ENDBRANCH  16  17
ENDBRANCH  15  16
ENDBRANCH  13  15
ENDBRANCH   9  13
BRANCH   8  24
HETATM   24  C   UNL     1     -10.415  12.626  67.687  1.00  0.00    -0.219 C  
BRANCH  24  25
HETATM   25  C   UNL     1      -9.871  11.306  67.191  1.00  0.00    -0.213 A  
HETATM   26  C   UNL     1     -10.657  10.189  66.911  1.00  0.00    -0.267 A  
HETATM   27  C   UNL     1      -7.902  10.003  66.557  1.00  0.00    -0.112 A  
HETATM   28  C   UNL     1      -8.676   8.864  66.285  1.00  0.00    -0.162 A  
HETATM   29  C   UNL     1      -8.487  11.201  66.988  1.00  0.00    -0.146 A  
HETATM   30  C   UNL     1     -10.072   9.019  66.409  1.00  0.00    -0.351 A  
BRANCH  28  31
HETATM   31  C   UNL     1      -8.063   7.582  65.810  1.00  0.00    -0.127 A  
HETATM   32  C   UNL     1      -7.596   6.114  63.878  1.00  0.00    -0.089 A  
HETATM   33  C   UNL     1      -7.888   7.371  64.417  1.00  0.00    -0.127 A  
HETATM   34  C   UNL     1      -7.393   5.033  64.718  1.00  0.00    -0.064 A  
HETATM   35  C   UNL     1      -7.445   5.223  66.095  1.00  0.00    -0.083 A  
HETATM   36  C   UNL     1      -7.756   6.484  66.646  1.00  0.00    -0.099 A  
BRANCH  36  37
HETATM   37  C   UNL     1      -7.698   6.546  68.118  1.00  0.00    -0.105 C  
HETATM   38  N   UNL     1      -6.630   6.768  68.811  1.00  0.00    -0.049 NA 
HETATM   39  O   UNL     1      -7.062   6.755  70.174  1.00  0.00    -0.067 OA 
HETATM   40  C   UNL     1      -8.413   6.525  70.147  1.00  0.00    -0.135 C  
HETATM   41  N   UNL     1      -8.799   6.414  68.868  1.00  0.00    -0.125 NA 
HETATM   42  O   UNL     1      -9.138   6.417  71.127  1.00  0.00    -0.149 OA 
ENDBRANCH  36  37
ENDBRANCH  28  31
ENDBRANCH  24  25
ENDBRANCH   8  24
ENDBRANCH   3   4
ENDBRANCH   2   3
TORSDOF 10
ENDMDL
MODEL      187
REMARK 921   NORMALIZED FREE ENERGY PREDICTED BY IDOCK:   -3.98 KCAL/MOL
REMARK 922        TOTAL FREE ENERGY PREDICTED BY IDOCK:   -9.23 KCAL/MOL
REMARK 923 INTER-LIGAND FREE ENERGY PREDICTED BY IDOCK:   -6.69 KCAL/MOL
REMARK 924 INTRA-LIGAND FREE ENERGY PREDICTED BY IDOCK:   -2.54 KCAL/MOL
REMARK 927      BINDING AFFINITY PREDICTED BY RF-SCORE:    0.00 PKD
ROOT
HETATM    1  C   UNL     1     -11.540  11.660  69.161  1.00  0.00    -0.378 C  
HETATM    2  C   UNL     1     -11.605  10.521  70.163  1.00  0.00    -0.326 C  
ENDROOT
BRANCH   2   3
HETATM    3  O   UNL     1     -10.330   9.879  70.236  1.00  0.00    -0.265 OA 
BRANCH   3   4
HETATM    4  C   UNL     1     -10.159   8.907  69.339  1.00  0.00    -0.202 A  
HETATM    5  N   UNL     1     -11.114   8.163  68.844  1.00  0.00     0.179 NA 
HETATM    6  C   UNL     1     -10.492   7.325  67.962  1.00  0.00    -0.197 A  
HETATM    7  C   UNL     1      -9.108   7.544  67.915  1.00  0.00    -0.130 A  
HETATM    8  N   UNL     1      -8.934   8.606  68.787  1.00  0.00    -0.138 NA 
HETATM    9  C   UNL     1      -8.276   6.743  67.091  1.00  0.00    -0.121 A  
HETATM   10  C   UNL     1      -8.906   5.774  66.280  1.00  0.00    -0.140 A  
HETATM   11  C   UNL     1     -11.085   6.355  67.139  1.00  0.00    -0.422 A  
HETATM   12  C   UNL     1     -10.286   5.593  66.291  1.00  0.00    -0.163 A  
BRANCH   9  13
HETATM   13  C   UNL     1      -6.811   6.919  66.955  1.00  0.00    -0.065 C  
HETATM   14  O   UNL     1      -6.260   7.196  65.905  1.00  0.00    -0.036 OA 
BRANCH  13  15
HETATM   15  O   UNL     1      -6.190   6.657  68.136  1.00  0.00    -0.030 OA 
BRANCH  15  16
HETATM   16  C   UNL     1      -5.485   5.406  68.202  1.00  0.00    -0.011 C  
BRANCH  16  17
HETATM   17  C   UNL     1      -6.169   4.493  69.159  1.00  0.00    -0.031 C  
HETATM   18  O   UNL     1      -7.174   3.614  70.952  1.00  0.00    -0.033 OA 
HETATM   19  C   UNL     1      -6.559   4.712  70.396  1.00  0.00    -0.035 C  
HETATM   20  O   UNL     1      -6.461   3.194  68.775  1.00  0.00    -0.029 OA 
HETATM   21  C   UNL     1      -6.531   5.945  71.191  1.00  0.00    -0.045 C  
HETATM   22  C   UNL     1      -7.107   2.708  69.907  1.00  0.00    -0.033 C  
HETATM   23  O   UNL     1      -7.569   1.576  69.985  1.00  0.00    -0.036 OA 
ENDBRANCH  16  17
ENDBRANCH  15  16
ENDBRANCH  13  15
ENDBRANCH   9  13
BRANCH   8  24
HETATM   24  C   UNL     1      -7.766   9.453  68.965  1.00  0.00    -0.075 C  
BRANCH  24  25
HETATM   25  C   UNL     1      -7.888  10.861  68.430  1.00  0.00    -0.123 A  
HETATM   26  C   UNL     1      -8.188  11.175  67.104  1.00  0.00    -0.137 A  
HETATM   27  C   UNL     1      -7.769  13.256  68.904  1.00  0.00     0.065 A  
HETATM   28  C   UNL     1      -8.054  13.590  67.570  1.00  0.00    -0.190 A  
HETATM   29  C   UNL     1      -7.700  11.922  69.327  1.00  0.00     0.265 A  
HETATM   30  C   UNL     1      -8.328  12.510  66.706  1.00  0.00    -0.034 A  
BRANCH  28  31
HETATM   31  C   UNL     1      -8.145  15.013  67.109  1.00  0.00    -0.245 A  
HETATM   32  C   UNL     1      -6.996  17.191  66.910  1.00  0.00    -0.247 A  
HETATM   33  C   UNL     1      -6.965  15.799  67.050  1.00  0.00    -0.128 A  
HETATM   34  C   UNL     1      -8.207  17.842  66.747  1.00  0.00    -0.275 A  
HETATM   35  C   UNL     1      -9.378  17.093  66.688  1.00  0.00    -0.277 A  
HETATM   36  C   UNL     1      -9.356  15.692  66.845  1.00  0.00    -0.252 A  
BRANCH  36  37
HETATM   37  C   UNL     1     -10.665  15.032  66.681  1.00  0.00    -0.312 C  
HETATM   38  N   UNL     1     -11.531  14.854  67.624  1.00  0.00    -0.345 NA 
HETATM   39  O   UNL     1     -12.635  14.198  66.995  1.00  0.00    -0.204 OA 
HETATM   40  C   UNL     1     -12.298  14.058  65.674  1.00  0.00    -0.479 C  
HETATM   41  N   UNL     1     -11.082  14.593  65.487  1.00  0.00    -0.331 NA 
HETATM   42  O   UNL     1     -12.982  13.516  64.817  1.00  0.00    -0.683 OA 
ENDBRANCH  36  37
ENDBRANCH  28  31
ENDBRANCH  24  25
ENDBRANCH   8  24
ENDBRANCH   3   4
ENDBRANCH   2   3
TORSDOF 10
ENDMDL
MODEL      188
REMARK 921   NORMALIZED FREE ENERGY PREDICTED BY IDOCK:   -3.91 KCAL/MOL
REMARK 922        TOTAL FREE ENERGY PREDICTED BY IDOCK:   -9.12 KCAL/MOL
REMARK 923 INTER-LIGAND FREE ENERGY PREDICTED BY IDOCK:   -6.58 KCAL/MOL
REMARK 924 INTRA-LIGAND FREE ENERGY PREDICTED BY IDOCK:   -2.54 KCAL/MOL
REMARK 927      BINDING AFFINITY PREDICTED BY RF-SCORE:    0.00 PKD
ROOT
HETATM    1  C   UNL     1     -12.259  12.426  64.481  1.00  0.00    -0.509 C  
HETATM    2  C   UNL     1     -11.825  12.656  65.918  1.00  0.00    -0.444 C  
ENDROOT
BRANCH   2   3
HETATM    3  O   UNL     1     -10.654  11.882  66.191  1.00  0.00    -0.241 OA 
BRANCH   3   4
HETATM    4  C   UNL     1     -10.670  11.272  67.376  1.00  0.00    -0.242 A  
HETATM    5  N   UNL     1     -11.748  10.960  68.047  1.00  0.00    -0.569 NA 
HETATM    6  C   UNL     1     -11.296  10.343  69.180  1.00  0.00    -0.226 A  
HETATM    7  C   UNL     1      -9.896  10.279  69.222  1.00  0.00    -0.228 A  
HETATM    8  N   UNL     1      -9.526  10.851  68.016  1.00  0.00    -0.159 NA 
HETATM    9  C   UNL     1      -9.231   9.714  70.340  1.00  0.00    -0.258 A  
HETATM   10  C   UNL     1     -10.034   9.164  71.363  1.00  0.00    -0.373 A  
HETATM   11  C   UNL     1     -12.064   9.782  70.213  1.00  0.00    -0.104 A  
HETATM   12  C   UNL     1     -11.424   9.183  71.295  1.00  0.00    -0.405 A  
BRANCH   9  13
HETATM   13  C   UNL     1      -7.761   9.578  70.460  1.00  0.00    -0.157 C  
HETATM   14  O   UNL     1      -7.033  10.462  70.876  1.00  0.00    -0.273 OA 
BRANCH  13  15
HETATM   15  O   UNL     1      -7.354   8.373  69.976  1.00  0.00    -0.057 OA 
BRANCH  15  16
HETATM   16  C   UNL     1      -6.406   7.665  70.791  1.00  0.00    -0.038 C  
BRANCH  16  17
HETATM   17  C   UNL     1      -6.979   7.436  72.146  1.00  0.00    -0.063 C  
HETATM   18  O   UNL     1      -7.420   7.503  74.336  1.00  0.00    -0.117 OA 
HETATM   19  C   UNL     1      -6.633   7.958  73.303  1.00  0.00    -0.083 C  
HETATM   20  O   UNL     1      -8.024   6.541  72.304  1.00  0.00    -0.101 OA 
HETATM   21  C   UNL     1      -5.645   8.997  73.613  1.00  0.00    -0.097 C  
HETATM   22  C   UNL     1      -8.276   6.645  73.668  1.00  0.00    -0.113 C  
HETATM   23  O   UNL     1      -9.167   6.027  74.237  1.00  0.00    -0.127 OA 
ENDBRANCH  16  17
ENDBRANCH  15  16
ENDBRANCH  13  15
ENDBRANCH   9  13
BRANCH   8  24
HETATM   24  C   UNL     1      -8.225  10.836  67.366  1.00  0.00    -0.116 C  
BRANCH  24  25
HETATM   25  C   UNL     1      -7.845   9.539  66.689  1.00  0.00    -0.101 A  
HETATM   26  C   UNL     1      -8.758   8.655  66.117  1.00  0.00    -0.180 A  
HETATM   27  C   UNL     1      -6.051   8.013  66.035  1.00  0.00    -0.041 A  
HETATM   28  C   UNL     1      -6.958   7.103  65.468  1.00  0.00    -0.056 A  
HETATM   29  C   UNL     1      -6.484   9.210  66.621  1.00  0.00    -0.067 A  
HETATM   30  C   UNL     1      -8.312   7.497  65.468  1.00  0.00    -0.137 A  
BRANCH  28  31
HETATM   31  C   UNL     1      -6.507   5.827  64.826  1.00  0.00    -0.041 A  
HETATM   32  C   UNL     1      -5.192   4.787  63.010  1.00  0.00    -0.009 A  
HETATM   33  C   UNL     1      -5.473   5.867  63.854  1.00  0.00    -0.017 A  
HETATM   34  C   UNL     1      -5.884   3.597  63.159  1.00  0.00    -0.014 A  
HETATM   35  C   UNL     1      -6.828   3.482  64.174  1.00  0.00    -0.044 A  
HETATM   36  C   UNL     1      -7.129   4.572  65.017  1.00  0.00    -0.063 A  
BRANCH  36  37
HETATM   37  C   UNL     1      -8.093   4.272  66.093  1.00  0.00    -0.102 C  
HETATM   38  N   UNL     1      -9.378   4.299  65.966  1.00  0.00    -0.151 NA 
HETATM   39  O   UNL     1      -9.885   3.925  67.251  1.00  0.00    -0.182 OA 
HETATM   40  C   UNL     1      -8.791   3.694  68.044  1.00  0.00    -0.116 C  
HETATM   41  N   UNL     1      -7.686   3.896  67.311  1.00  0.00    -0.079 NA 
HETATM   42  O   UNL     1      -8.821   3.380  69.225  1.00  0.00    -0.082 OA 
ENDBRANCH  36  37
ENDBRANCH  28  31
ENDBRANCH  24  25
ENDBRANCH   8  24
ENDBRANCH   3   4
ENDBRANCH   2   3
TORSDOF 10
ENDMDL
MODEL      189
REMARK 921   NORMALIZED FREE ENERGY PREDICTED BY IDOCK:   -3.91 KCAL/MOL
REMARK 922        TOTAL FREE ENERGY PREDICTED BY IDOCK:   -9.11 KCAL/MOL
REMARK 923 INTER-LIGAND FREE ENERGY PREDICTED BY IDOCK:   -8.08 KCAL/MOL
REMARK 924 INTRA-LIGAND FREE ENERGY PREDICTED BY IDOCK:   -1.03 KCAL/MOL
REMARK 927      BINDING AFFINITY PREDICTED BY RF-SCORE:    0.00 PKD
ROOT
HETATM    1  C   UNL     1      -5.780   7.343  70.983  1.00  0.00    -0.035 C  
HETATM    2  C   UNL     1      -5.126   8.633  70.519  1.00  0.00    -0.021 C  
ENDROOT
BRANCH   2   3
HETATM    3  O   UNL     1      -5.579   8.947  69.200  1.00  0.00    -0.035 OA 
BRANCH   3   4
HETATM    4  C   UNL     1      -6.246   7.958  68.604  1.00  0.00    -0.040 A  
HETATM    5  N   UNL     1      -5.698   6.899  68.066  1.00  0.00    -0.019 NA 
HETATM    6  C   UNL     1      -6.745   6.157  67.596  1.00  0.00    -0.058 A  
HETATM    7  C   UNL     1      -7.980   6.777  67.835  1.00  0.00    -0.114 A  
HETATM    8  N   UNL     1      -7.620   7.920  68.530  1.00  0.00    -0.102 NA 
HETATM    9  C   UNL     1      -9.186   6.185  67.382  1.00  0.00    -0.112 A  
HETATM   10  C   UNL     1      -9.094   4.927  66.748  1.00  0.00    -0.118 A  
HETATM   11  C   UNL     1      -6.690   4.904  66.965  1.00  0.00    -0.055 A  
HETATM   12  C   UNL     1      -7.872   4.290  66.557  1.00  0.00    -0.098 A  
BRANCH   9  13
HETATM   13  C   UNL     1     -10.536   6.751  67.614  1.00  0.00    -0.259 C  
HETATM   14  O   UNL     1     -10.996   7.681  66.976  1.00  0.00    -0.277 OA 
BRANCH  13  15
HETATM   15  O   UNL     1     -11.134   6.135  68.669  1.00  0.00    -0.339 OA 
BRANCH  15  16
HETATM   16  C   UNL     1     -11.533   6.999  69.746  1.00  0.00    -0.130 C  
BRANCH  16  17
HETATM   17  C   UNL     1     -11.047   6.447  71.040  1.00  0.00    -0.294 C  
HETATM   18  O   UNL     1     -10.250   6.209  73.115  1.00  0.00    -0.181 OA 
HETATM   19  C   UNL     1     -10.593   7.076  72.103  1.00  0.00    -0.213 C  
HETATM   20  O   UNL     1     -11.018   5.076  71.232  1.00  0.00    -0.014 OA 
HETATM   21  C   UNL     1     -10.510   8.513  72.388  1.00  0.00    -0.367 C  
HETATM   22  C   UNL     1     -10.548   4.987  72.538  1.00  0.00    -0.219 C  
HETATM   23  O   UNL     1     -10.397   3.924  73.128  1.00  0.00    -0.150 OA 
ENDBRANCH  16  17
ENDBRANCH  15  16
ENDBRANCH  13  15
ENDBRANCH   9  13
BRANCH   8  24
HETATM   24  C   UNL     1      -8.470   8.833  69.277  1.00  0.00    -0.122 C  
BRANCH  24  25
HETATM   25  C   UNL     1      -8.694  10.187  68.643  1.00  0.00    -0.128 A  
HETATM   26  C   UNL     1      -7.673  11.077  68.312  1.00  0.00    -0.113 A  
HETATM   27  C   UNL     1     -10.306  11.819  67.798  1.00  0.00    -0.211 A  
HETATM   28  C   UNL     1      -9.292  12.734  67.473  1.00  0.00    -0.189 A  
HETATM   29  C   UNL     1     -10.013  10.568  68.359  1.00  0.00    -0.177 A  
HETATM   30  C   UNL     1      -7.969  12.293  67.684  1.00  0.00    -0.161 A  
BRANCH  28  31
HETATM   31  C   UNL     1      -9.592  14.067  66.860  1.00  0.00    -0.275 A  
HETATM   32  C   UNL     1      -9.759  16.507  67.213  1.00  0.00    -0.247 A  
HETATM   33  C   UNL     1      -9.265  15.249  67.573  1.00  0.00    -0.202 A  
HETATM   34  C   UNL     1     -10.540  16.642  66.078  1.00  0.00    -0.238 A  
HETATM   35  C   UNL     1     -10.791  15.524  65.289  1.00  0.00    -0.425 A  
HETATM   36  C   UNL     1     -10.310  14.250  65.655  1.00  0.00    -0.352 A  
BRANCH  36  37
HETATM   37  C   UNL     1     -10.592  13.180  64.680  1.00  0.00    -0.392 C  
HETATM   38  N   UNL     1     -11.565  13.187  63.830  1.00  0.00    -0.435 NA 
HETATM   39  O   UNL     1     -11.425  11.968  63.095  1.00  0.00    -0.319 OA 
HETATM   40  C   UNL     1     -10.321  11.337  63.604  1.00  0.00    -0.408 C  
HETATM   41  N   UNL     1      -9.802  12.104  64.574  1.00  0.00    -0.178 NA 
HETATM   42  O   UNL     1      -9.895  10.246  63.248  1.00  0.00    -0.261 OA 
ENDBRANCH  36  37
ENDBRANCH  28  31
ENDBRANCH  24  25
ENDBRANCH   8  24
ENDBRANCH   3   4
ENDBRANCH   2   3
TORSDOF 10
ENDMDL
MODEL      190
REMARK 921   NORMALIZED FREE ENERGY PREDICTED BY IDOCK:   -3.88 KCAL/MOL
REMARK 922        TOTAL FREE ENERGY PREDICTED BY IDOCK:   -9.06 KCAL/MOL
REMARK 923 INTER-LIGAND FREE ENERGY PREDICTED BY IDOCK:   -6.45 KCAL/MOL
REMARK 924 INTRA-LIGAND FREE ENERGY PREDICTED BY IDOCK:   -2.61 KCAL/MOL
REMARK 927      BINDING AFFINITY PREDICTED BY RF-SCORE:    0.00 PKD
ROOT
HETATM    1  C   UNL     1      -9.125  10.121  64.052  1.00  0.00    -0.289 C  
HETATM    2  C   UNL     1      -7.967   9.648  63.190  1.00  0.00    -0.140 C  
ENDROOT
BRANCH   2   3
HETATM    3  O   UNL     1      -7.161   8.734  63.938  1.00  0.00    -0.093 OA 
BRANCH   3   4
HETATM    4  C   UNL     1      -7.628   7.485  63.953  1.00  0.00    -0.114 A  
HETATM    5  N   UNL     1      -7.973   6.798  62.895  1.00  0.00    -0.105 NA 
HETATM    6  C   UNL     1      -8.370   5.582  63.374  1.00  0.00    -0.078 A  
HETATM    7  C   UNL     1      -8.282   5.512  64.772  1.00  0.00    -0.133 A  
HETATM    8  N   UNL     1      -7.755   6.748  65.108  1.00  0.00    -0.098 NA 
HETATM    9  C   UNL     1      -8.692   4.345  65.465  1.00  0.00    -0.123 A  
HETATM   10  C   UNL     1      -9.123   3.247  64.690  1.00  0.00    -0.135 A  
HETATM   11  C   UNL     1      -8.799   4.469  62.634  1.00  0.00    -0.125 A  
HETATM   12  C   UNL     1      -9.161   3.300  63.300  1.00  0.00    -0.092 A  
BRANCH   9  13
HETATM   13  C   UNL     1      -8.609   4.170  66.934  1.00  0.00    -0.108 C  
HETATM   14  O   UNL     1      -9.528   4.414  67.696  1.00  0.00    -0.144 OA 
BRANCH  13  15
HETATM   15  O   UNL     1      -7.358   3.777  67.295  1.00  0.00    -0.066 OA 
BRANCH  15  16
HETATM   16  C   UNL     1      -7.263   3.087  68.553  1.00  0.00    -0.049 C  
BRANCH  16  17
HETATM   17  C   UNL     1      -6.601   3.963  69.558  1.00  0.00    -0.034 C  
HETATM   18  O   UNL     1      -5.648   4.776  71.409  1.00  0.00    -0.010 OA 
HETATM   19  C   UNL     1      -6.258   3.703  70.802  1.00  0.00    -0.019 C  
HETATM   20  O   UNL     1      -6.278   5.268  69.223  1.00  0.00    -0.030 OA 
HETATM   21  C   UNL     1      -6.331   2.449  71.559  1.00  0.00    -0.018 C  
HETATM   22  C   UNL     1      -5.666   5.712  70.390  1.00  0.00    -0.023 C  
HETATM   23  O   UNL     1      -5.193   6.834  70.517  1.00  0.00    -0.018 OA 
ENDBRANCH  16  17
ENDBRANCH  15  16
ENDBRANCH  13  15
ENDBRANCH   9  13
BRANCH   8  24
HETATM   24  C   UNL     1      -7.194   7.180  66.379  1.00  0.00    -0.078 C  
BRANCH  24  25
HETATM   25  C   UNL     1      -8.179   7.760  67.367  1.00  0.00    -0.123 A  
HETATM   26  C   UNL     1      -7.820   8.367  68.570  1.00  0.00    -0.120 A  
HETATM   27  C   UNL     1     -10.521   8.186  67.924  1.00  0.00    -0.259 A  
HETATM   28  C   UNL     1     -10.178   8.785  69.146  1.00  0.00    -0.215 A  
HETATM   29  C   UNL     1      -9.543   7.696  67.048  1.00  0.00    -0.228 A  
HETATM   30  C   UNL     1      -8.799   8.920  69.405  1.00  0.00    -0.143 A  
BRANCH  28  31
HETATM   31  C   UNL     1     -11.214   9.326  70.084  1.00  0.00    -0.237 A  
HETATM   32  C   UNL     1     -12.713  11.212  70.632  1.00  0.00    -0.350 A  
HETATM   33  C   UNL     1     -11.946  10.484  69.716  1.00  0.00    -0.309 A  
HETATM   34  C   UNL     1     -12.838  10.765  71.937  1.00  0.00    -0.460 A  
HETATM   35  C   UNL     1     -12.226   9.572  72.307  1.00  0.00    -0.161 A  
HETATM   36  C   UNL     1     -11.437   8.842  71.394  1.00  0.00    -0.381 A  
BRANCH  36  37
HETATM   37  C   UNL     1     -10.919   7.562  71.911  1.00  0.00    -0.235 C  
HETATM   38  N   UNL     1      -9.669   7.268  72.050  1.00  0.00    -0.157 NA 
HETATM   39  O   UNL     1      -9.655   5.946  72.596  1.00  0.00    -0.153 OA 
HETATM   40  C   UNL     1     -10.967   5.577  72.741  1.00  0.00    -0.278 C  
HETATM   41  N   UNL     1     -11.742   6.592  72.330  1.00  0.00    -0.258 NA 
HETATM   42  O   UNL     1     -11.362   4.496  73.155  1.00  0.00    -0.265 OA 
ENDBRANCH  36  37
ENDBRANCH  28  31
ENDBRANCH  24  25
ENDBRANCH   8  24
ENDBRANCH   3   4
ENDBRANCH   2   3
TORSDOF 10
ENDMDL
MODEL      191
REMARK 921   NORMALIZED FREE ENERGY PREDICTED BY IDOCK:   -3.87 KCAL/MOL
REMARK 922        TOTAL FREE ENERGY PREDICTED BY IDOCK:   -9.05 KCAL/MOL
REMARK 923 INTER-LIGAND FREE ENERGY PREDICTED BY IDOCK:   -7.66 KCAL/MOL
REMARK 924 INTRA-LIGAND FREE ENERGY PREDICTED BY IDOCK:   -1.39 KCAL/MOL
REMARK 927      BINDING AFFINITY PREDICTED BY RF-SCORE:    0.00 PKD
ROOT
HETATM    1  C   UNL     1      -7.454   4.700  69.937  1.00  0.00    -0.054 C  
HETATM    2  C   UNL     1      -8.947   4.818  70.186  1.00  0.00    -0.099 C  
ENDROOT
BRANCH   2   3
HETATM    3  O   UNL     1      -9.170   5.448  71.450  1.00  0.00    -0.143 OA 
BRANCH   3   4
HETATM    4  C   UNL     1     -10.295   6.162  71.511  1.00  0.00    -0.209 A  
HETATM    5  N   UNL     1     -11.453   5.708  71.915  1.00  0.00    -0.161 NA 
HETATM    6  C   UNL     1     -12.303   6.774  71.828  1.00  0.00    -0.356 A  
HETATM    7  C   UNL     1     -11.661   7.922  71.343  1.00  0.00    -0.272 A  
HETATM    8  N   UNL     1     -10.350   7.500  71.191  1.00  0.00    -0.201 NA 
HETATM    9  C   UNL     1     -12.385   9.124  71.137  1.00  0.00    -0.330 A  
HETATM   10  C   UNL     1     -13.748   9.131  71.503  1.00  0.00    -0.389 A  
HETATM   11  C   UNL     1     -13.660   6.818  72.186  1.00  0.00     0.046 A  
HETATM   12  C   UNL     1     -14.371   8.005  72.033  1.00  0.00    -0.511 A  
BRANCH   9  13
HETATM   13  C   UNL     1     -11.786  10.391  70.657  1.00  0.00    -0.351 C  
HETATM   14  O   UNL     1     -10.588  10.558  70.509  1.00  0.00    -0.100 OA 
BRANCH  13  15
HETATM   15  O   UNL     1     -12.749  11.336  70.484  1.00  0.00    -0.253 OA 
BRANCH  15  16
HETATM   16  C   UNL     1     -12.949  12.228  71.593  1.00  0.00    -0.311 C  
BRANCH  16  17
HETATM   17  C   UNL     1     -12.608  13.619  71.188  1.00  0.00    -0.371 C  
HETATM   18  O   UNL     1     -12.091  15.794  71.183  1.00  0.00    -0.365 OA 
HETATM   19  C   UNL     1     -12.401  14.684  71.934  1.00  0.00    -0.338 C  
HETATM   20  O   UNL     1     -12.486  13.930  69.844  1.00  0.00    -0.320 OA 
HETATM   21  C   UNL     1     -12.349  14.820  73.393  1.00  0.00    -0.454 C  
HETATM   22  C   UNL     1     -12.136  15.275  69.900  1.00  0.00    -0.343 C  
HETATM   23  O   UNL     1     -11.900  15.951  68.906  1.00  0.00    -0.397 OA 
ENDBRANCH  16  17
ENDBRANCH  15  16
ENDBRANCH  13  15
ENDBRANCH   9  13
BRANCH   8  24
HETATM   24  C   UNL     1      -9.158   8.302  70.970  1.00  0.00    -0.158 C  
BRANCH  24  25
HETATM   25  C   UNL     1      -8.547   8.204  69.590  1.00  0.00    -0.131 A  
HETATM   26  C   UNL     1      -9.280   8.012  68.419  1.00  0.00    -0.135 A  
HETATM   27  C   UNL     1      -6.510   8.215  68.240  1.00  0.00    -0.055 A  
HETATM   28  C   UNL     1      -7.230   8.008  67.053  1.00  0.00    -0.087 A  
HETATM   29  C   UNL     1      -7.155   8.324  69.480  1.00  0.00    -0.053 A  
HETATM   30  C   UNL     1      -8.634   7.980  67.177  1.00  0.00    -0.124 A  
BRANCH  28  31
HETATM   31  C   UNL     1      -6.553   7.905  65.721  1.00  0.00    -0.045 A  
HETATM   32  C   UNL     1      -5.851   9.091  63.669  1.00  0.00    -0.076 A  
HETATM   33  C   UNL     1      -6.217   9.092  65.020  1.00  0.00    -0.065 A  
HETATM   34  C   UNL     1      -5.733   7.891  62.988  1.00  0.00    -0.063 A  
HETATM   35  C   UNL     1      -5.945   6.698  63.671  1.00  0.00    -0.031 A  
HETATM   36  C   UNL     1      -6.330   6.693  65.028  1.00  0.00    -0.042 A  
BRANCH  36  37
HETATM   37  C   UNL     1      -6.442   5.352  65.633  1.00  0.00    -0.040 C  
HETATM   38  N   UNL     1      -5.460   4.683  66.142  1.00  0.00    -0.013 NA 
HETATM   39  O   UNL     1      -6.046   3.467  66.616  1.00  0.00    -0.023 OA 
HETATM   40  C   UNL     1      -7.385   3.550  66.334  1.00  0.00    -0.076 C  
HETATM   41  N   UNL     1      -7.622   4.729  65.740  1.00  0.00    -0.085 NA 
HETATM   42  O   UNL     1      -8.216   2.683  66.564  1.00  0.00    -0.081 OA 
ENDBRANCH  36  37
ENDBRANCH  28  31
ENDBRANCH  24  25
ENDBRANCH   8  24
ENDBRANCH   3   4
ENDBRANCH   2   3
TORSDOF 10
ENDMDL
MODEL      192
REMARK 921   NORMALIZED FREE ENERGY PREDICTED BY IDOCK:   -3.83 KCAL/MOL
REMARK 922        TOTAL FREE ENERGY PREDICTED BY IDOCK:   -8.99 KCAL/MOL
REMARK 923 INTER-LIGAND FREE ENERGY PREDICTED BY IDOCK:   -5.92 KCAL/MOL
REMARK 924 INTRA-LIGAND FREE ENERGY PREDICTED BY IDOCK:   -3.07 KCAL/MOL
REMARK 927      BINDING AFFINITY PREDICTED BY RF-SCORE:    0.00 PKD
ROOT
HETATM    1  C   UNL     1      -9.578   4.037  70.290  1.00  0.00    -0.271 C  
HETATM    2  C   UNL     1      -9.209   3.899  68.824  1.00  0.00    -0.152 C  
ENDROOT
BRANCH   2   3
HETATM    3  O   UNL     1      -8.182   4.841  68.502  1.00  0.00    -0.084 OA 
BRANCH   3   4
HETATM    4  C   UNL     1      -8.179   5.226  67.226  1.00  0.00    -0.104 A  
HETATM    5  N   UNL     1      -8.731   4.569  66.240  1.00  0.00    -0.112 NA 
HETATM    6  C   UNL     1      -8.501   5.332  65.129  1.00  0.00    -0.149 A  
HETATM    7  C   UNL     1      -7.773   6.492  65.429  1.00  0.00    -0.099 A  
HETATM    8  N   UNL     1      -7.620   6.412  66.804  1.00  0.00    -0.097 NA 
HETATM    9  C   UNL     1      -7.393   7.394  64.402  1.00  0.00    -0.085 A  
HETATM   10  C   UNL     1      -7.835   7.109  63.093  1.00  0.00    -0.118 A  
HETATM   11  C   UNL     1      -8.928   5.082  63.816  1.00  0.00     0.034 A  
HETATM   12  C   UNL     1      -8.602   5.983  62.806  1.00  0.00     0.145 A  
BRANCH   9  13
HETATM   13  C   UNL     1      -6.650   8.656  64.628  1.00  0.00    -0.066 C  
HETATM   14  O   UNL     1      -5.482   8.815  64.321  1.00  0.00    -0.057 OA 
BRANCH  13  15
HETATM   15  O   UNL     1      -7.433   9.557  65.280  1.00  0.00    -0.101 OA 
BRANCH  15  16
HETATM   16  C   UNL     1      -7.024  10.930  65.166  1.00  0.00     0.290 C  
BRANCH  16  17
HETATM   17  C   UNL     1      -6.878  11.527  66.521  1.00  0.00    -0.016 C  
HETATM   18  O   UNL     1      -7.233  12.597  68.451  1.00  0.00    -0.097 OA 
HETATM   19  C   UNL     1      -7.737  12.234  67.224  1.00  0.00    -0.161 C  
HETATM   20  O   UNL     1      -5.686  11.376  67.211  1.00  0.00    -0.058 OA 
HETATM   21  C   UNL     1      -9.134  12.579  66.939  1.00  0.00    -0.213 C  
HETATM   22  C   UNL     1      -5.972  12.029  68.406  1.00  0.00    -0.050 C  
HETATM   23  O   UNL     1      -5.178  12.108  69.335  1.00  0.00    -0.063 OA 
ENDBRANCH  16  17
ENDBRANCH  15  16
ENDBRANCH  13  15
ENDBRANCH   9  13
BRANCH   8  24
HETATM   24  C   UNL     1      -7.181   7.444  67.729  1.00  0.00    -0.091 C  
BRANCH  24  25
HETATM   25  C   UNL     1      -8.275   8.300  68.325  1.00  0.00    -0.128 A  
HETATM   26  C   UNL     1      -9.600   8.296  67.890  1.00  0.00    -0.176 A  
HETATM   27  C   UNL     1      -8.889   9.991  69.980  1.00  0.00    -0.117 A  
HETATM   28  C   UNL     1     -10.224  10.011  69.545  1.00  0.00    -0.255 A  
HETATM   29  C   UNL     1      -7.939   9.145  69.392  1.00  0.00    -0.097 A  
HETATM   30  C   UNL     1     -10.559   9.089  68.532  1.00  0.00    -0.196 A  
BRANCH  28  31
HETATM   31  C   UNL     1     -11.252  10.900  70.175  1.00  0.00    -0.317 A  
HETATM   32  C   UNL     1     -12.102  13.206  70.434  1.00  0.00    -0.392 A  
HETATM   33  C   UNL     1     -11.382  12.239  69.724  1.00  0.00    -0.149 A  
HETATM   34  C   UNL     1     -12.783  12.850  71.586  1.00  0.00    -0.299 A  
HETATM   35  C   UNL     1     -12.771  11.523  72.000  1.00  0.00    -0.103 A  
HETATM   36  C   UNL     1     -12.034  10.546  71.299  1.00  0.00    -0.386 A  
BRANCH  36  37
HETATM   37  C   UNL     1     -12.182   9.172  71.814  1.00  0.00    -0.372 C  
HETATM   38  N   UNL     1     -13.280   8.491  71.809  1.00  0.00    -0.350 NA 
HETATM   39  O   UNL     1     -12.936   7.227  72.384  1.00  0.00     0.030 OA 
HETATM   40  C   UNL     1     -11.598   7.289  72.676  1.00  0.00    -0.217 C  
HETATM   41  N   UNL     1     -11.137   8.493  72.304  1.00  0.00    -0.362 NA 
HETATM   42  O   UNL     1     -10.943   6.404  73.208  1.00  0.00    -0.253 OA 
ENDBRANCH  36  37
ENDBRANCH  28  31
ENDBRANCH  24  25
ENDBRANCH   8  24
ENDBRANCH   3   4
ENDBRANCH   2   3
TORSDOF 10
ENDMDL
MODEL      193
REMARK 921   NORMALIZED FREE ENERGY PREDICTED BY IDOCK:   -3.81 KCAL/MOL
REMARK 922        TOTAL FREE ENERGY PREDICTED BY IDOCK:   -8.96 KCAL/MOL
REMARK 923 INTER-LIGAND FREE ENERGY PREDICTED BY IDOCK:   -8.28 KCAL/MOL
REMARK 924 INTRA-LIGAND FREE ENERGY PREDICTED BY IDOCK:   -0.67 KCAL/MOL
REMARK 927      BINDING AFFINITY PREDICTED BY RF-SCORE:    0.00 PKD
ROOT
HETATM    1  C   UNL     1     -11.533  11.223  67.106  1.00  0.00    -0.217 C  
HETATM    2  C   UNL     1     -11.368  11.331  65.600  1.00  0.00     0.093 C  
ENDROOT
BRANCH   2   3
HETATM    3  O   UNL     1     -10.807  12.605  65.274  1.00  0.00    -0.277 OA 
BRANCH   3   4
HETATM    4  C   UNL     1     -10.803  13.472  66.287  1.00  0.00    -0.289 A  
HETATM    5  N   UNL     1     -11.867  14.019  66.814  1.00  0.00    -0.402 NA 
HETATM    6  C   UNL     1     -11.397  14.816  67.820  1.00  0.00    -0.330 A  
HETATM    7  C   UNL     1      -9.999  14.775  67.914  1.00  0.00    -0.213 A  
HETATM    8  N   UNL     1      -9.651  13.860  66.934  1.00  0.00    -0.259 NA 
HETATM    9  C   UNL     1      -9.314  15.569  68.870  1.00  0.00    -0.222 A  
HETATM   10  C   UNL     1     -10.099  16.340  69.754  1.00  0.00    -0.119 A  
HETATM   11  C   UNL     1     -12.146  15.591  68.719  1.00  0.00    -0.166 A  
HETATM   12  C   UNL     1     -11.489  16.340  69.692  1.00  0.00    -0.213 A  
BRANCH   9  13
HETATM   13  C   UNL     1      -7.845  15.570  69.061  1.00  0.00    -0.201 C  
HETATM   14  O   UNL     1      -7.269  14.859  69.865  1.00  0.00    -0.176 OA 
BRANCH  13  15
HETATM   15  O   UNL     1      -7.264  16.515  68.273  1.00  0.00    -0.150 OA 
BRANCH  15  16
HETATM   16  C   UNL     1      -8.118  17.104  67.279  1.00  0.00    -0.186 C  
BRANCH  16  17
HETATM   17  C   UNL     1      -7.452  18.296  66.686  1.00  0.00    -0.226 C  
HETATM   18  O   UNL     1      -6.478  20.283  66.371  1.00  0.00    -0.198 OA 
HETATM   19  C   UNL     1      -7.081  19.422  67.258  1.00  0.00    -0.200 C  
HETATM   20  O   UNL     1      -7.158  18.313  65.333  1.00  0.00    -0.537 OA 
HETATM   21  C   UNL     1      -7.118  19.822  68.669  1.00  0.00    -0.366 C  
HETATM   22  C   UNL     1      -6.531  19.548  65.200  1.00  0.00    -0.277 C  
HETATM   23  O   UNL     1      -6.074  19.960  64.140  1.00  0.00    -0.270 OA 
ENDBRANCH  16  17
ENDBRANCH  15  16
ENDBRANCH  13  15
ENDBRANCH   9  13
BRANCH   8  24
HETATM   24  C   UNL     1      -8.372  13.201  66.720  1.00  0.00     0.080 C  
BRANCH  24  25
HETATM   25  C   UNL     1      -8.246  11.810  67.298  1.00  0.00    -0.163 A  
HETATM   26  C   UNL     1      -8.184  10.645  66.534  1.00  0.00    -0.138 A  
HETATM   27  C   UNL     1      -8.086  10.427  69.307  1.00  0.00    -0.159 A  
HETATM   28  C   UNL     1      -8.038   9.243  68.554  1.00  0.00    -0.106 A  
HETATM   29  C   UNL     1      -8.175  11.683  68.692  1.00  0.00    -0.110 A  
HETATM   30  C   UNL     1      -8.020   9.400  67.153  1.00  0.00    -0.102 A  
BRANCH  28  31
HETATM   31  C   UNL     1      -7.928   7.895  69.200  1.00  0.00    -0.118 A  
HETATM   32  C   UNL     1      -6.829   5.682  69.173  1.00  0.00    -0.062 A  
HETATM   33  C   UNL     1      -6.852   7.041  68.843  1.00  0.00    -0.072 A  
HETATM   34  C   UNL     1      -7.848   5.141  69.938  1.00  0.00    -0.075 A  
HETATM   35  C   UNL     1      -8.864   5.970  70.402  1.00  0.00    -0.148 A  
HETATM   36  C   UNL     1      -8.902   7.338  70.060  1.00  0.00    -0.141 A  
BRANCH  36  37
HETATM   37  C   UNL     1      -9.995   8.102  70.689  1.00  0.00    -0.189 C  
HETATM   38  N   UNL     1      -9.838   9.041  71.563  1.00  0.00    -0.315 NA 
HETATM   39  O   UNL     1     -11.161   9.493  71.864  1.00  0.00    -0.310 OA 
HETATM   40  C   UNL     1     -12.009   8.744  71.090  1.00  0.00    -0.285 C  
HETATM   41  N   UNL     1     -11.275   7.897  70.354  1.00  0.00    -0.261 NA 
HETATM   42  O   UNL     1     -13.230   8.821  71.090  1.00  0.00    -0.205 OA 
ENDBRANCH  36  37
ENDBRANCH  28  31
ENDBRANCH  24  25
ENDBRANCH   8  24
ENDBRANCH   3   4
ENDBRANCH   2   3
TORSDOF 10
ENDMDL
MODEL      194
REMARK 921   NORMALIZED FREE ENERGY PREDICTED BY IDOCK:   -3.79 KCAL/MOL
REMARK 922        TOTAL FREE ENERGY PREDICTED BY IDOCK:   -8.92 KCAL/MOL
REMARK 923 INTER-LIGAND FREE ENERGY PREDICTED BY IDOCK:   -7.23 KCAL/MOL
REMARK 924 INTRA-LIGAND FREE ENERGY PREDICTED BY IDOCK:   -1.70 KCAL/MOL
REMARK 927      BINDING AFFINITY PREDICTED BY RF-SCORE:    0.00 PKD
ROOT
HETATM    1  C   UNL     1     -10.893   5.806  66.623  1.00  0.00    -0.290 C  
HETATM    2  C   UNL     1     -10.678   5.350  68.055  1.00  0.00    -0.006 C  
ENDROOT
BRANCH   2   3
HETATM    3  O   UNL     1     -11.478   6.146  68.933  1.00  0.00    -0.305 OA 
BRANCH   3   4
HETATM    4  C   UNL     1     -11.042   6.169  70.193  1.00  0.00    -0.378 A  
HETATM    5  N   UNL     1     -11.575   5.505  71.186  1.00  0.00     0.296 NA 
HETATM    6  C   UNL     1     -10.805   5.811  72.273  1.00  0.00    -0.248 A  
HETATM    7  C   UNL     1      -9.770   6.701  71.951  1.00  0.00    -0.153 A  
HETATM    8  N   UNL     1      -9.928   6.876  70.587  1.00  0.00    -0.187 NA 
HETATM    9  C   UNL     1      -8.887   7.176  72.955  1.00  0.00    -0.154 A  
HETATM   10  C   UNL     1      -9.052   6.664  74.260  1.00  0.00    -0.212 A  
HETATM   11  C   UNL     1     -10.938   5.319  73.581  1.00  0.00    -0.314 A  
HETATM   12  C   UNL     1     -10.048   5.741  74.565  1.00  0.00    -0.301 A  
BRANCH   9  13
HETATM   13  C   UNL     1      -7.750   8.093  72.705  1.00  0.00    -0.132 C  
HETATM   14  O   UNL     1      -7.859   9.160  72.127  1.00  0.00    -0.311 OA 
BRANCH  13  15
HETATM   15  O   UNL     1      -6.588   7.539  73.142  1.00  0.00    -0.063 OA 
BRANCH  15  16
HETATM   16  C   UNL     1      -5.525   7.484  72.176  1.00  0.00    -0.036 C  
BRANCH  16  17
HETATM   17  C   UNL     1      -5.790   6.393  71.198  1.00  0.00    -0.027 C  
HETATM   18  O   UNL     1      -6.000   5.178  69.334  1.00  0.00    -0.019 OA 
HETATM   19  C   UNL     1      -5.672   6.394  69.888  1.00  0.00    -0.014 C  
HETATM   20  O   UNL     1      -6.248   5.166  71.649  1.00  0.00    -0.027 OA 
HETATM   21  C   UNL     1      -5.155   7.430  68.986  1.00  0.00    -0.015 C  
HETATM   22  C   UNL     1      -6.330   4.447  70.461  1.00  0.00    -0.022 C  
HETATM   23  O   UNL     1      -6.676   3.273  70.408  1.00  0.00    -0.032 OA 
ENDBRANCH  16  17
ENDBRANCH  15  16
ENDBRANCH  13  15
ENDBRANCH   9  13
BRANCH   8  24
HETATM   24  C   UNL     1      -9.007   7.479  69.636  1.00  0.00    -0.141 C  
BRANCH  24  25
HETATM   25  C   UNL     1      -9.437   8.808  69.059  1.00  0.00    -0.160 A  
HETATM   26  C   UNL     1     -10.280   9.710  69.707  1.00  0.00    -0.262 A  
HETATM   27  C   UNL     1      -9.322  10.364  67.177  1.00  0.00    -0.177 A  
HETATM   28  C   UNL     1     -10.182  11.276  67.808  1.00  0.00    -0.203 A  
HETATM   29  C   UNL     1      -8.948   9.162  67.794  1.00  0.00    -0.132 A  
HETATM   30  C   UNL     1     -10.589  10.941  69.116  1.00  0.00    -0.253 A  
BRANCH  28  31
HETATM   31  C   UNL     1     -10.577  12.571  67.165  1.00  0.00    -0.247 A  
HETATM   32  C   UNL     1     -12.244  13.760  65.782  1.00  0.00    -0.495 A  
HETATM   33  C   UNL     1     -11.886  12.712  66.638  1.00  0.00    -0.449 A  
HETATM   34  C   UNL     1     -11.324  14.750  65.482  1.00  0.00    -0.343 A  
HETATM   35  C   UNL     1     -10.064  14.707  66.070  1.00  0.00    -0.330 A  
HETATM   36  C   UNL     1      -9.691  13.645  66.919  1.00  0.00    -0.262 A  
BRANCH  36  37
HETATM   37  C   UNL     1      -8.353  13.779  67.525  1.00  0.00    -0.192 C  
HETATM   38  N   UNL     1      -7.845  12.968  68.393  1.00  0.00    -0.137 NA 
HETATM   39  O   UNL     1      -6.542  13.487  68.670  1.00  0.00    -0.084 OA 
HETATM   40  C   UNL     1      -6.399  14.605  67.889  1.00  0.00    -0.159 C  
HETATM   41  N   UNL     1      -7.521  14.767  67.172  1.00  0.00    -0.126 NA 
HETATM   42  O   UNL     1      -5.423  15.341  67.870  1.00  0.00    -0.126 OA 
ENDBRANCH  36  37
ENDBRANCH  28  31
ENDBRANCH  24  25
ENDBRANCH   8  24
ENDBRANCH   3   4
ENDBRANCH   2   3
TORSDOF 10
ENDMDL
MODEL      195
REMARK 921   NORMALIZED FREE ENERGY PREDICTED BY IDOCK:   -3.78 KCAL/MOL
REMARK 922        TOTAL FREE ENERGY PREDICTED BY IDOCK:   -8.92 KCAL/MOL
REMARK 923 INTER-LIGAND FREE ENERGY PREDICTED BY IDOCK:   -7.32 KCAL/MOL
REMARK 924 INTRA-LIGAND FREE ENERGY PREDICTED BY IDOCK:   -1.60 KCAL/MOL
REMARK 927      BINDING AFFINITY PREDICTED BY RF-SCORE:    0.00 PKD
ROOT
HETATM    1  C   UNL     1     -10.106   7.014  73.585  1.00  0.00    -0.376 C  
HETATM    2  C   UNL     1     -10.634   7.718  72.347  1.00  0.00    -0.278 C  
ENDROOT
BRANCH   2   3
HETATM    3  O   UNL     1      -9.574   8.452  71.729  1.00  0.00    -0.186 OA 
BRANCH   3   4
HETATM    4  C   UNL     1      -8.833   7.731  70.888  1.00  0.00    -0.142 A  
HETATM    5  N   UNL     1      -7.787   7.021  71.225  1.00  0.00    -0.098 NA 
HETATM    6  C   UNL     1      -7.358   6.446  70.062  1.00  0.00    -0.086 A  
HETATM    7  C   UNL     1      -8.150   6.817  68.966  1.00  0.00    -0.117 A  
HETATM    8  N   UNL     1      -9.123   7.615  69.547  1.00  0.00    -0.147 NA 
HETATM    9  C   UNL     1      -7.839   6.359  67.660  1.00  0.00    -0.106 A  
HETATM   10  C   UNL     1      -6.752   5.470  67.526  1.00  0.00    -0.059 A  
HETATM   11  C   UNL     1      -6.286   5.556  69.893  1.00  0.00    -0.029 A  
HETATM   12  C   UNL     1      -5.998   5.062  68.623  1.00  0.00    -0.025 A  
BRANCH   9  13
HETATM   13  C   UNL     1      -8.634   6.676  66.450  1.00  0.00    -0.130 C  
HETATM   14  O   UNL     1      -8.684   7.784  65.947  1.00  0.00    -0.150 OA 
BRANCH  13  15
HETATM   15  O   UNL     1      -9.337   5.584  66.045  1.00  0.00    -0.159 OA 
BRANCH  15  16
HETATM   16  C   UNL     1      -9.204   5.240  64.656  1.00  0.00     0.179 C  
BRANCH  16  17
HETATM   17  C   UNL     1      -8.312   4.057  64.515  1.00  0.00    -0.099 C  
HETATM   18  O   UNL     1      -7.337   2.058  64.735  1.00  0.00    -0.058 OA 
HETATM   19  C   UNL     1      -8.323   2.914  65.167  1.00  0.00    -0.093 C  
HETATM   20  O   UNL     1      -7.277   4.086  63.594  1.00  0.00    -0.049 OA 
HETATM   21  C   UNL     1      -9.268   2.406  66.167  1.00  0.00    -0.026 C  
HETATM   22  C   UNL     1      -6.729   2.817  63.751  1.00  0.00    -0.032 C  
HETATM   23  O   UNL     1      -5.785   2.405  63.088  1.00  0.00    -0.008 OA 
ENDBRANCH  16  17
ENDBRANCH  15  16
ENDBRANCH  13  15
ENDBRANCH   9  13
BRANCH   8  24
HETATM   24  C   UNL     1     -10.373   8.084  68.972  1.00  0.00    -0.218 C  
BRANCH  24  25
HETATM   25  C   UNL     1     -10.400   9.537  68.557  1.00  0.00    -0.234 A  
HETATM   26  C   UNL     1     -11.441  10.418  68.847  1.00  0.00    -0.251 A  
HETATM   27  C   UNL     1      -9.262  11.363  67.397  1.00  0.00    -0.164 A  
HETATM   28  C   UNL     1     -10.308  12.259  67.667  1.00  0.00    -0.214 A  
HETATM   29  C   UNL     1      -9.301  10.035  67.843  1.00  0.00    -0.151 A  
HETATM   30  C   UNL     1     -11.360  11.762  68.463  1.00  0.00    -0.328 A  
BRANCH  28  31
HETATM   31  C   UNL     1     -10.271  13.685  67.208  1.00  0.00    -0.246 A  
HETATM   32  C   UNL     1     -10.179  16.063  67.877  1.00  0.00    -0.258 A  
HETATM   33  C   UNL     1      -9.960  14.707  68.143  1.00  0.00    -0.224 A  
HETATM   34  C   UNL     1     -10.648  16.454  66.634  1.00  0.00    -0.239 A  
HETATM   35  C   UNL     1     -10.858  15.491  65.653  1.00  0.00    -0.354 A  
HETATM   36  C   UNL     1     -10.656  14.121  65.920  1.00  0.00    -0.301 A  
BRANCH  36  37
HETATM   37  C   UNL     1     -10.846  13.231  64.759  1.00  0.00    -0.360 C  
HETATM   38  N   UNL     1     -11.929  13.144  64.060  1.00  0.00    -0.431 NA 
HETATM   39  O   UNL     1     -11.638  12.180  63.044  1.00  0.00    -0.233 OA 
HETATM   40  C   UNL     1     -10.343  11.783  63.250  1.00  0.00    -0.402 C  
HETATM   41  N   UNL     1      -9.856  12.453  64.305  1.00  0.00    -0.165 NA 
HETATM   42  O   UNL     1      -9.742  10.942  62.595  1.00  0.00    -0.276 OA 
ENDBRANCH  36  37
ENDBRANCH  28  31
ENDBRANCH  24  25
ENDBRANCH   8  24
ENDBRANCH   3   4
ENDBRANCH   2   3
TORSDOF 10
ENDMDL
MODEL      196
REMARK 921   NORMALIZED FREE ENERGY PREDICTED BY IDOCK:   -3.78 KCAL/MOL
REMARK 922        TOTAL FREE ENERGY PREDICTED BY IDOCK:   -8.91 KCAL/MOL
REMARK 923 INTER-LIGAND FREE ENERGY PREDICTED BY IDOCK:   -7.71 KCAL/MOL
REMARK 924 INTRA-LIGAND FREE ENERGY PREDICTED BY IDOCK:   -1.20 KCAL/MOL
REMARK 927      BINDING AFFINITY PREDICTED BY RF-SCORE:    0.00 PKD
ROOT
HETATM    1  C   UNL     1      -8.954   3.016  72.853  1.00  0.00    -0.102 C  
HETATM    2  C   UNL     1      -9.664   4.339  72.626  1.00  0.00    -0.143 C  
ENDROOT
BRANCH   2   3
HETATM    3  O   UNL     1      -8.832   5.197  71.841  1.00  0.00    -0.131 OA 
BRANCH   3   4
HETATM    4  C   UNL     1      -8.726   4.830  70.563  1.00  0.00    -0.103 A  
HETATM    5  N   UNL     1      -9.354   3.822  70.016  1.00  0.00    -0.162 NA 
HETATM    6  C   UNL     1      -8.965   3.830  68.706  1.00  0.00    -0.124 A  
HETATM    7  C   UNL     1      -8.059   4.864  68.432  1.00  0.00    -0.085 A  
HETATM    8  N   UNL     1      -7.963   5.519  69.648  1.00  0.00    -0.092 NA 
HETATM    9  C   UNL     1      -7.502   5.013  67.136  1.00  0.00    -0.087 A  
HETATM   10  C   UNL     1      -7.947   4.127  66.132  1.00  0.00    -0.098 A  
HETATM   11  C   UNL     1      -9.389   2.968  67.682  1.00  0.00    -0.242 A  
HETATM   12  C   UNL     1      -8.885   3.133  66.394  1.00  0.00    -0.146 A  
BRANCH   9  13
HETATM   13  C   UNL     1      -6.561   6.090  66.747  1.00  0.00    -0.056 C  
HETATM   14  O   UNL     1      -5.351   5.954  66.726  1.00  0.00    -0.008 OA 
BRANCH  13  15
HETATM   15  O   UNL     1      -7.238   7.244  66.496  1.00  0.00    -0.075 OA 
BRANCH  15  16
HETATM   16  C   UNL     1      -8.113   7.214  65.357  1.00  0.00    -0.137 C  
BRANCH  16  17
HETATM   17  C   UNL     1      -7.847   8.393  64.488  1.00  0.00    -0.136 C  
HETATM   18  O   UNL     1      -7.983  10.344  63.407  1.00  0.00    -0.154 OA 
HETATM   19  C   UNL     1      -8.584   9.462  64.274  1.00  0.00    -0.196 C  
HETATM   20  O   UNL     1      -6.680   8.444  63.743  1.00  0.00    -0.075 OA 
HETATM   21  C   UNL     1      -9.848   9.877  64.892  1.00  0.00    -0.282 C  
HETATM   22  C   UNL     1      -6.802   9.682  63.120  1.00  0.00    -0.108 C  
HETATM   23  O   UNL     1      -5.949  10.147  62.374  1.00  0.00    -0.098 OA 
ENDBRANCH  16  17
ENDBRANCH  15  16
ENDBRANCH  13  15
ENDBRANCH   9  13
BRANCH   8  24
HETATM   24  C   UNL     1      -7.381   6.820  69.935  1.00  0.00    -0.089 C  
BRANCH  24  25
HETATM   25  C   UNL     1      -8.225   8.015  69.552  1.00  0.00    -0.122 A  
HETATM   26  C   UNL     1      -9.492   7.928  68.976  1.00  0.00    -0.151 A  
HETATM   27  C   UNL     1      -8.413  10.450  69.450  1.00  0.00    -0.145 A  
HETATM   28  C   UNL     1      -9.683  10.381  68.856  1.00  0.00    -0.203 A  
HETATM   29  C   UNL     1      -7.705   9.292  69.802  1.00  0.00    -0.096 A  
HETATM   30  C   UNL     1     -10.224   9.089  68.696  1.00  0.00    -0.226 A  
BRANCH  28  31
HETATM   31  C   UNL     1     -10.455  11.612  68.489  1.00  0.00    -0.236 A  
HETATM   32  C   UNL     1     -10.531  13.664  67.114  1.00  0.00    -0.264 A  
HETATM   33  C   UNL     1     -10.055  12.370  67.358  1.00  0.00    -0.205 A  
HETATM   34  C   UNL     1     -11.483  14.218  67.952  1.00  0.00    -0.341 A  
HETATM   35  C   UNL     1     -11.983  13.462  69.007  1.00  0.00    -0.357 A  
HETATM   36  C   UNL     1     -11.496  12.165  69.269  1.00  0.00    -0.363 A  
BRANCH  36  37
HETATM   37  C   UNL     1     -12.177  11.461  70.372  1.00  0.00    -0.362 C  
HETATM   38  N   UNL     1     -12.651  12.026  71.434  1.00  0.00    -0.285 NA 
HETATM   39  O   UNL     1     -13.228  10.962  72.195  1.00  0.00    -0.474 OA 
HETATM   40  C   UNL     1     -13.036   9.818  71.464  1.00  0.00    -0.411 C  
HETATM   41  N   UNL     1     -12.399  10.142  70.329  1.00  0.00    -0.191 NA 
HETATM   42  O   UNL     1     -13.370   8.691  71.803  1.00  0.00    -0.341 OA 
ENDBRANCH  36  37
ENDBRANCH  28  31
ENDBRANCH  24  25
ENDBRANCH   8  24
ENDBRANCH   3   4
ENDBRANCH   2   3
TORSDOF 10
ENDMDL
MODEL      197
REMARK 921   NORMALIZED FREE ENERGY PREDICTED BY IDOCK:   -3.72 KCAL/MOL
REMARK 922        TOTAL FREE ENERGY PREDICTED BY IDOCK:   -8.81 KCAL/MOL
REMARK 923 INTER-LIGAND FREE ENERGY PREDICTED BY IDOCK:   -6.18 KCAL/MOL
REMARK 924 INTRA-LIGAND FREE ENERGY PREDICTED BY IDOCK:   -2.63 KCAL/MOL
REMARK 927      BINDING AFFINITY PREDICTED BY RF-SCORE:    0.00 PKD
ROOT
HETATM    1  C   UNL     1     -13.293  15.275  70.807  1.00  0.00    -0.402 C  
HETATM    2  C   UNL     1     -12.510  14.011  70.498  1.00  0.00    -0.359 C  
ENDROOT
BRANCH   2   3
HETATM    3  O   UNL     1     -12.533  13.771  69.089  1.00  0.00    -0.216 OA 
BRANCH   3   4
HETATM    4  C   UNL     1     -11.510  14.315  68.428  1.00  0.00    -0.301 A  
HETATM    5  N   UNL     1     -11.588  15.369  67.657  1.00  0.00    -0.260 NA 
HETATM    6  C   UNL     1     -10.314  15.577  67.209  1.00  0.00    -0.267 A  
HETATM    7  C   UNL     1      -9.418  14.618  67.704  1.00  0.00    -0.205 A  
HETATM    8  N   UNL     1     -10.220  13.844  68.527  1.00  0.00    -0.239 NA 
HETATM    9  C   UNL     1      -8.053  14.636  67.318  1.00  0.00    -0.230 A  
HETATM   10  C   UNL     1      -7.630  15.688  66.479  1.00  0.00     0.194 A  
HETATM   11  C   UNL     1      -9.857  16.612  66.378  1.00  0.00    -0.308 A  
HETATM   12  C   UNL     1      -8.510  16.667  66.029  1.00  0.00    -0.198 A  
BRANCH   9  13
HETATM   13  C   UNL     1      -7.031  13.684  67.812  1.00  0.00    -0.162 C  
HETATM   14  O   UNL     1      -6.721  13.575  68.985  1.00  0.00    -0.105 OA 
BRANCH  13  15
HETATM   15  O   UNL     1      -6.456  13.023  66.772  1.00  0.00     0.142 OA 
BRANCH  15  16
HETATM   16  C   UNL     1      -6.319  11.602  66.939  1.00  0.00    -0.142 C  
BRANCH  16  17
HETATM   17  C   UNL     1      -7.066  10.895  65.863  1.00  0.00    -0.029 C  
HETATM   18  O   UNL     1      -7.636   9.607  64.127  1.00  0.00    -0.117 OA 
HETATM   19  C   UNL     1      -6.625  10.069  64.938  1.00  0.00    -0.126 C  
HETATM   20  O   UNL     1      -8.431  11.092  65.735  1.00  0.00    -0.169 OA 
HETATM   21  C   UNL     1      -5.285   9.512  64.730  1.00  0.00    -0.050 C  
HETATM   22  C   UNL     1      -8.735  10.251  64.669  1.00  0.00    -0.190 C  
HETATM   23  O   UNL     1      -9.870  10.096  64.236  1.00  0.00    -0.315 OA 
ENDBRANCH  16  17
ENDBRANCH  15  16
ENDBRANCH  13  15
ENDBRANCH   9  13
BRANCH   8  24
HETATM   24  C   UNL     1      -9.820  12.858  69.517  1.00  0.00     1.198 C  
BRANCH  24  25
HETATM   25  C   UNL     1      -9.737  11.431  69.025  1.00  0.00    -0.031 A  
HETATM   26  C   UNL     1      -8.674  10.568  69.294  1.00  0.00    -0.135 A  
HETATM   27  C   UNL     1     -10.787   9.636  67.741  1.00  0.00    -0.278 A  
HETATM   28  C   UNL     1      -9.719   8.759  67.988  1.00  0.00    -0.183 A  
HETATM   29  C   UNL     1     -10.802  10.938  68.258  1.00  0.00    -0.272 A  
HETATM   30  C   UNL     1      -8.702   9.245  68.836  1.00  0.00    -0.131 A  
BRANCH  28  31
HETATM   31  C   UNL     1      -9.699   7.360  67.453  1.00  0.00    -0.196 A  
HETATM   32  C   UNL     1      -9.402   5.917  65.470  1.00  0.00     0.123 A  
HETATM   33  C   UNL     1      -9.198   7.124  66.147  1.00  0.00    -0.126 A  
HETATM   34  C   UNL     1     -10.051   4.871  66.104  1.00  0.00    -0.280 A  
HETATM   35  C   UNL     1     -10.459   5.026  67.425  1.00  0.00    -0.121 A  
HETATM   36  C   UNL     1     -10.271   6.245  68.108  1.00  0.00    -0.200 A  
BRANCH  36  37
HETATM   37  C   UNL     1     -10.685   6.230  69.524  1.00  0.00    -0.303 C  
HETATM   38  N   UNL     1     -11.879   6.477  69.951  1.00  0.00    -0.304 NA 
HETATM   39  O   UNL     1     -11.804   6.326  71.372  1.00  0.00    -0.304 OA 
HETATM   40  C   UNL     1     -10.509   5.977  71.653  1.00  0.00    -0.228 C  
HETATM   41  N   UNL     1      -9.829   5.904  70.499  1.00  0.00    -0.178 NA 
HETATM   42  O   UNL     1     -10.048   5.787  72.770  1.00  0.00    -0.174 OA 
ENDBRANCH  36  37
ENDBRANCH  28  31
ENDBRANCH  24  25
ENDBRANCH   8  24
ENDBRANCH   3   4
ENDBRANCH   2   3
TORSDOF 10
ENDMDL
MODEL      198
REMARK 921   NORMALIZED FREE ENERGY PREDICTED BY IDOCK:   -3.71 KCAL/MOL
REMARK 922        TOTAL FREE ENERGY PREDICTED BY IDOCK:   -8.79 KCAL/MOL
REMARK 923 INTER-LIGAND FREE ENERGY PREDICTED BY IDOCK:   -6.93 KCAL/MOL
REMARK 924 INTRA-LIGAND FREE ENERGY PREDICTED BY IDOCK:   -1.86 KCAL/MOL
REMARK 927      BINDING AFFINITY PREDICTED BY RF-SCORE:    0.00 PKD
ROOT
HETATM    1  C   UNL     1      -5.163   5.444  69.659  1.00  0.00    -0.004 C  
HETATM    2  C   UNL     1      -5.136   6.930  69.345  1.00  0.00    -0.014 C  
ENDROOT
BRANCH   2   3
HETATM    3  O   UNL     1      -5.379   7.125  67.950  1.00  0.00    -0.021 OA 
BRANCH   3   4
HETATM    4  C   UNL     1      -6.390   6.401  67.468  1.00  0.00    -0.037 A  
HETATM    5  N   UNL     1      -6.263   5.360  66.687  1.00  0.00    -0.034 NA 
HETATM    6  C   UNL     1      -7.540   4.929  66.459  1.00  0.00    -0.088 A  
HETATM    7  C   UNL     1      -8.490   5.731  67.107  1.00  0.00    -0.107 A  
HETATM    8  N   UNL     1      -7.706   6.648  67.787  1.00  0.00    -0.106 NA 
HETATM    9  C   UNL     1      -9.877   5.473  66.958  1.00  0.00    -0.176 A  
HETATM   10  C   UNL     1     -10.249   4.346  66.194  1.00  0.00    -0.232 A  
HETATM   11  C   UNL     1      -7.946   3.813  65.710  1.00  0.00    -0.093 A  
HETATM   12  C   UNL     1      -9.303   3.522  65.594  1.00  0.00    -0.158 A  
BRANCH   9  13
HETATM   13  C   UNL     1     -10.950   6.248  67.625  1.00  0.00    -0.342 C  
HETATM   14  O   UNL     1     -11.394   7.296  67.192  1.00  0.00    -0.075 OA 
BRANCH  13  15
HETATM   15  O   UNL     1     -11.298   5.660  68.802  1.00  0.00     0.095 OA 
BRANCH  15  16
HETATM   16  C   UNL     1     -11.511   6.557  69.904  1.00  0.00    -0.403 C  
BRANCH  16  17
HETATM   17  C   UNL     1     -10.558   6.240  71.002  1.00  0.00    -0.238 C  
HETATM   18  O   UNL     1      -9.282   6.322  72.836  1.00  0.00    -0.135 OA 
HETATM   19  C   UNL     1     -10.175   6.979  72.021  1.00  0.00    -0.190 C  
HETATM   20  O   UNL     1      -9.920   5.010  71.022  1.00  0.00    -0.188 OA 
HETATM   21  C   UNL     1     -10.632   8.305  72.451  1.00  0.00    -0.408 C  
HETATM   22  C   UNL     1      -9.171   5.104  72.189  1.00  0.00    -0.136 C  
HETATM   23  O   UNL     1      -8.462   4.197  72.609  1.00  0.00    -0.098 OA 
ENDBRANCH  16  17
ENDBRANCH  15  16
ENDBRANCH  13  15
ENDBRANCH   9  13
BRANCH   8  24
HETATM   24  C   UNL     1      -8.097   7.573  68.839  1.00  0.00    -0.127 C  
BRANCH  24  25
HETATM   25  C   UNL     1      -8.649   8.901  68.373  1.00  0.00    -0.134 A  
HETATM   26  C   UNL     1      -8.144   9.626  67.294  1.00  0.00    -0.110 A  
HETATM   27  C   UNL     1     -10.299  10.672  68.711  1.00  0.00    -0.210 A  
HETATM   28  C   UNL     1      -9.794  11.423  67.638  1.00  0.00    -0.189 A  
HETATM   29  C   UNL     1      -9.747   9.432  69.063  1.00  0.00    -0.166 A  
HETATM   30  C   UNL     1      -8.748  10.827  66.903  1.00  0.00    -0.141 A  
BRANCH  28  31
HETATM   31  C   UNL     1     -10.385  12.741  67.243  1.00  0.00    -0.235 A  
HETATM   32  C   UNL     1     -12.262  13.910  66.139  1.00  0.00    -0.498 A  
HETATM   33  C   UNL     1     -11.728  12.791  66.788  1.00  0.00    -0.459 A  
HETATM   34  C   UNL     1     -11.493  15.052  65.989  1.00  0.00    -0.221 A  
HETATM   35  C   UNL     1     -10.208  15.081  66.522  1.00  0.00    -0.281 A  
HETATM   36  C   UNL     1      -9.658  13.951  67.162  1.00  0.00    -0.247 A  
BRANCH  36  37
HETATM   37  C   UNL     1      -8.318  14.161  67.741  1.00  0.00    -0.174 C  
HETATM   38  N   UNL     1      -7.206  13.799  67.191  1.00  0.00    -0.001 NA 
HETATM   39  O   UNL     1      -6.187  14.224  68.100  1.00  0.00    -0.109 OA 
HETATM   40  C   UNL     1      -6.832  14.836  69.143  1.00  0.00    -0.133 C  
HETATM   41  N   UNL     1      -8.151  14.806  68.902  1.00  0.00    -0.157 NA 
HETATM   42  O   UNL     1      -6.295  15.308  70.135  1.00  0.00    -0.156 OA 
ENDBRANCH  36  37
ENDBRANCH  28  31
ENDBRANCH  24  25
ENDBRANCH   8  24
ENDBRANCH   3   4
ENDBRANCH   2   3
TORSDOF 10
ENDMDL
MODEL      199
REMARK 921   NORMALIZED FREE ENERGY PREDICTED BY IDOCK:   -3.61 KCAL/MOL
REMARK 922        TOTAL FREE ENERGY PREDICTED BY IDOCK:   -8.64 KCAL/MOL
REMARK 923 INTER-LIGAND FREE ENERGY PREDICTED BY IDOCK:   -8.08 KCAL/MOL
REMARK 924 INTRA-LIGAND FREE ENERGY PREDICTED BY IDOCK:   -0.56 KCAL/MOL
REMARK 927      BINDING AFFINITY PREDICTED BY RF-SCORE:    0.00 PKD
ROOT
HETATM    1  C   UNL     1     -10.698   9.949  67.274  1.00  0.00    -0.304 C  
HETATM    2  C   UNL     1     -10.994  11.154  66.398  1.00  0.00    -0.186 C  
ENDROOT
BRANCH   2   3
HETATM    3  O   UNL     1      -9.766  11.691  65.899  1.00  0.00    -0.222 OA 
BRANCH   3   4
HETATM    4  C   UNL     1      -8.894  12.028  66.850  1.00  0.00    -0.197 A  
HETATM    5  N   UNL     1      -7.876  11.300  67.230  1.00  0.00    -0.134 NA 
HETATM    6  C   UNL     1      -7.257  12.033  68.202  1.00  0.00    -0.090 A  
HETATM    7  C   UNL     1      -7.914  13.248  68.445  1.00  0.00    -0.132 A  
HETATM    8  N   UNL     1      -8.944  13.230  67.519  1.00  0.00    -0.196 NA 
HETATM    9  C   UNL     1      -7.450  14.133  69.452  1.00  0.00     0.080 A  
HETATM   10  C   UNL     1      -6.273  13.771  70.142  1.00  0.00    -0.110 A  
HETATM   11  C   UNL     1      -6.086  11.707  68.905  1.00  0.00    -0.053 A  
HETATM   12  C   UNL     1      -5.594  12.590  69.864  1.00  0.00    -0.112 A  
BRANCH   9  13
HETATM   13  C   UNL     1      -8.062  15.447  69.759  1.00  0.00    -0.031 C  
HETATM   14  O   UNL     1      -7.555  16.514  69.459  1.00  0.00    -0.147 OA 
BRANCH  13  15
HETATM   15  O   UNL     1      -9.208  15.283  70.473  1.00  0.00     0.527 OA 
BRANCH  15  16
HETATM   16  C   UNL     1     -10.324  16.083  70.049  1.00  0.00    -0.203 C  
BRANCH  16  17
HETATM   17  C   UNL     1     -11.565  15.615  70.724  1.00  0.00    -0.382 C  
HETATM   18  O   UNL     1     -13.308  14.405  71.425  1.00  0.00    -0.329 OA 
HETATM   19  C   UNL     1     -12.193  14.463  70.621  1.00  0.00    -0.344 C  
HETATM   20  O   UNL     1     -12.231  16.461  71.595  1.00  0.00    -0.324 OA 
HETATM   21  C   UNL     1     -11.824  13.248  69.888  1.00  0.00    -0.380 C  
HETATM   22  C   UNL     1     -13.280  15.653  72.021  1.00  0.00    -0.457 C  
HETATM   23  O   UNL     1     -14.116  16.012  72.841  1.00  0.00    -0.530 OA 
ENDBRANCH  16  17
ENDBRANCH  15  16
ENDBRANCH  13  15
ENDBRANCH   9  13
BRANCH   8  24
HETATM   24  C   UNL     1      -9.811  14.322  67.104  1.00  0.00    -0.252 C  
BRANCH  24  25
HETATM   25  C   UNL     1      -9.119  15.636  66.821  1.00  0.00    -0.281 A  
HETATM   26  C   UNL     1      -9.720  16.886  66.967  1.00  0.00    -0.255 A  
HETATM   27  C   UNL     1      -7.082  16.769  66.087  1.00  0.00     0.060 A  
HETATM   28  C   UNL     1      -7.675  18.035  66.212  1.00  0.00    -0.293 A  
HETATM   29  C   UNL     1      -7.784  15.596  66.397  1.00  0.00     0.306 A  
HETATM   30  C   UNL     1      -8.988  18.056  66.726  1.00  0.00    -0.279 A  
BRANCH  28  31
HETATM   31  C   UNL     1      -6.930  19.297  65.898  1.00  0.00    -0.300 A  
HETATM   32  C   UNL     1      -6.141  20.839  64.137  1.00  0.00    -0.355 A  
HETATM   33  C   UNL     1      -7.013  19.845  64.592  1.00  0.00     0.265 A  
HETATM   34  C   UNL     1      -5.200  21.378  64.997  1.00  0.00    -0.113 A  
HETATM   35  C   UNL     1      -5.161  20.946  66.319  1.00  0.00    -0.219 A  
HETATM   36  C   UNL     1      -6.026  19.932  66.780  1.00  0.00    -0.180 A  
BRANCH  36  37
HETATM   37  C   UNL     1      -5.918  19.637  68.221  1.00  0.00    -0.228 C  
HETATM   38  N   UNL     1      -5.525  18.512  68.722  1.00  0.00    -0.188 NA 
HETATM   39  O   UNL     1      -5.566  18.702  70.139  1.00  0.00    -0.219 OA 
HETATM   40  C   UNL     1      -5.990  19.990  70.342  1.00  0.00    -0.343 C  
HETATM   41  N   UNL     1      -6.189  20.565  69.147  1.00  0.00    -0.310 NA 
HETATM   42  O   UNL     1      -6.176  20.515  71.431  1.00  0.00    -0.639 OA 
ENDBRANCH  36  37
ENDBRANCH  28  31
ENDBRANCH  24  25
ENDBRANCH   8  24
ENDBRANCH   3   4
ENDBRANCH   2   3
TORSDOF 10
ENDMDL
MODEL      200
REMARK 921   NORMALIZED FREE ENERGY PREDICTED BY IDOCK:   -3.60 KCAL/MOL
REMARK 922        TOTAL FREE ENERGY PREDICTED BY IDOCK:   -8.63 KCAL/MOL
REMARK 923 INTER-LIGAND FREE ENERGY PREDICTED BY IDOCK:   -7.26 KCAL/MOL
REMARK 924 INTRA-LIGAND FREE ENERGY PREDICTED BY IDOCK:   -1.37 KCAL/MOL
REMARK 927      BINDING AFFINITY PREDICTED BY RF-SCORE:    0.00 PKD
ROOT
HETATM    1  C   UNL     1     -11.168  11.350  63.724  1.00  0.00    -0.375 C  
HETATM    2  C   UNL     1     -11.051  12.853  63.539  1.00  0.00    -0.240 C  
ENDROOT
BRANCH   2   3
HETATM    3  O   UNL     1     -12.069  13.506  64.302  1.00  0.00    -0.412 OA 
BRANCH   3   4
HETATM    4  C   UNL     1     -11.650  14.595  64.947  1.00  0.00    -0.405 A  
HETATM    5  N   UNL     1     -11.521  15.782  64.414  1.00  0.00    -0.354 NA 
HETATM    6  C   UNL     1     -11.087  16.584  65.432  1.00  0.00    -0.019 A  
HETATM    7  C   UNL     1     -10.928  15.874  66.631  1.00  0.00    -0.136 A  
HETATM    8  N   UNL     1     -11.345  14.598  66.290  1.00  0.00    -0.345 NA 
HETATM    9  C   UNL     1     -10.442  16.521  67.796  1.00  0.00    -0.308 A  
HETATM   10  C   UNL     1     -10.193  17.908  67.712  1.00  0.00    -0.372 A  
HETATM   11  C   UNL     1     -10.834  17.964  65.386  1.00  0.00     0.202 A  
HETATM   12  C   UNL     1     -10.400  18.621  66.535  1.00  0.00    -0.462 A  
BRANCH   9  13
HETATM   13  C   UNL     1     -10.269  15.861  69.111  1.00  0.00    -0.234 C  
HETATM   14  O   UNL     1     -11.022  16.029  70.054  1.00  0.00    -0.312 OA 
BRANCH  13  15
HETATM   15  O   UNL     1      -9.131  15.117  69.123  1.00  0.00    -0.206 OA 
BRANCH  15  16
HETATM   16  C   UNL     1      -8.059  15.636  69.929  1.00  0.00     0.230 C  
BRANCH  16  17
HETATM   17  C   UNL     1      -7.007  16.218  69.052  1.00  0.00    -0.188 C  
HETATM   18  O   UNL     1      -5.176  17.235  68.271  1.00  0.00    -0.128 OA 
HETATM   19  C   UNL     1      -5.906  16.861  69.376  1.00  0.00    -0.192 C  
HETATM   20  O   UNL     1      -7.137  16.130  67.675  1.00  0.00    -0.124 OA 
HETATM   21  C   UNL     1      -5.318  17.124  70.694  1.00  0.00    -0.223 C  
HETATM   22  C   UNL     1      -5.966  16.746  67.246  1.00  0.00    -0.167 C  
HETATM   23  O   UNL     1      -5.660  16.859  66.065  1.00  0.00    -0.202 OA 
ENDBRANCH  16  17
ENDBRANCH  15  16
ENDBRANCH  13  15
ENDBRANCH   9  13
BRANCH   8  24
HETATM   24  C   UNL     1     -11.657  13.481  67.166  1.00  0.00    -0.357 C  
BRANCH  24  25
HETATM   25  C   UNL     1     -10.553  12.466  67.353  1.00  0.00    -0.237 A  
HETATM   26  C   UNL     1      -9.279  12.580  66.798  1.00  0.00    -0.217 A  
HETATM   27  C   UNL     1      -9.862  10.340  68.343  1.00  0.00    -0.168 A  
HETATM   28  C   UNL     1      -8.580  10.431  67.780  1.00  0.00    -0.122 A  
HETATM   29  C   UNL     1     -10.823  11.341  68.145  1.00  0.00    -0.263 A  
HETATM   30  C   UNL     1      -8.301  11.613  67.062  1.00  0.00    -0.169 A  
BRANCH  28  31
HETATM   31  C   UNL     1      -7.540   9.376  67.997  1.00  0.00    -0.083 A  
HETATM   32  C   UNL     1      -5.948   8.346  69.583  1.00  0.00    -0.032 A  
HETATM   33  C   UNL     1      -7.099   9.097  69.317  1.00  0.00    -0.058 A  
HETATM   34  C   UNL     1      -5.237   7.780  68.538  1.00  0.00    -0.027 A  
HETATM   35  C   UNL     1      -5.701   7.937  67.236  1.00  0.00    -0.037 A  
HETATM   36  C   UNL     1      -6.850   8.707  66.959  1.00  0.00    -0.067 A  
BRANCH  36  37
HETATM   37  C   UNL     1      -7.260   8.716  65.543  1.00  0.00    -0.084 C  
HETATM   38  N   UNL     1      -6.544   8.281  64.559  1.00  0.00    -0.065 NA 
HETATM   39  O   UNL     1      -7.353   8.476  63.396  1.00  0.00    -0.097 OA 
HETATM   40  C   UNL     1      -8.530   9.024  63.833  1.00  0.00    -0.160 C  
HETATM   41  N   UNL     1      -8.468   9.153  65.167  1.00  0.00    -0.156 NA 
HETATM   42  O   UNL     1      -9.468   9.360  63.123  1.00  0.00     0.112 OA 
ENDBRANCH  36  37
ENDBRANCH  28  31
ENDBRANCH  24  25
ENDBRANCH   8  24
ENDBRANCH   3   4
ENDBRANCH   2   3
TORSDOF 10
ENDMDL
MODEL      201
REMARK 921   NORMALIZED FREE ENERGY PREDICTED BY IDOCK:   -3.59 KCAL/MOL
REMARK 922        TOTAL FREE ENERGY PREDICTED BY IDOCK:   -8.62 KCAL/MOL
REMARK 923 INTER-LIGAND FREE ENERGY PREDICTED BY IDOCK:   -7.62 KCAL/MOL
REMARK 924 INTRA-LIGAND FREE ENERGY PREDICTED BY IDOCK:   -1.00 KCAL/MOL
REMARK 927      BINDING AFFINITY PREDICTED BY RF-SCORE:    0.00 PKD
ROOT
HETATM    1  C   UNL     1      -7.521  16.381  66.462  1.00  0.00    -0.223 C  
HETATM    2  C   UNL     1      -8.425  15.186  66.711  1.00  0.00    -0.237 C  
ENDROOT
BRANCH   2   3
HETATM    3  O   UNL     1      -8.108  14.607  67.979  1.00  0.00    -0.121 OA 
BRANCH   3   4
HETATM    4  C   UNL     1      -9.161  14.450  68.782  1.00  0.00    -0.144 A  
HETATM    5  N   UNL     1      -9.591  15.338  69.641  1.00  0.00    -0.222 NA 
HETATM    6  C   UNL     1     -10.687  14.766  70.225  1.00  0.00     0.029 A  
HETATM    7  C   UNL     1     -10.939  13.480  69.726  1.00  0.00     0.207 A  
HETATM    8  N   UNL     1      -9.957  13.327  68.761  1.00  0.00    -0.112 NA 
HETATM    9  C   UNL     1     -12.009  12.703  70.239  1.00  0.00    -0.363 A  
HETATM   10  C   UNL     1     -12.838  13.301  71.212  1.00  0.00    -0.398 A  
HETATM   11  C   UNL     1     -11.534  15.332  71.191  1.00  0.00    -0.414 A  
HETATM   12  C   UNL     1     -12.616  14.596  71.669  1.00  0.00    -0.403 A  
BRANCH   9  13
HETATM   13  C   UNL     1     -12.368  11.349  69.755  1.00  0.00    -0.184 C  
HETATM   14  O   UNL     1     -12.485  11.063  68.576  1.00  0.00    -0.440 OA 
BRANCH  13  15
HETATM   15  O   UNL     1     -12.613  10.519  70.804  1.00  0.00    -0.331 OA 
BRANCH  15  16
HETATM   16  C   UNL     1     -11.453   9.924  71.409  1.00  0.00    -0.321 C  
BRANCH  16  17
HETATM   17  C   UNL     1     -11.709   8.482  71.677  1.00  0.00    -0.306 C  
HETATM   18  O   UNL     1     -12.655   6.523  72.190  1.00  0.00    -0.269 OA 
HETATM   19  C   UNL     1     -12.815   7.884  72.064  1.00  0.00    -0.263 C  
HETATM   20  O   UNL     1     -10.678   7.567  71.539  1.00  0.00    -0.218 OA 
HETATM   21  C   UNL     1     -14.163   8.426  72.261  1.00  0.00    -0.436 C  
HETATM   22  C   UNL     1     -11.325   6.373  71.838  1.00  0.00    -0.293 C  
HETATM   23  O   UNL     1     -10.771   5.281  71.805  1.00  0.00    -0.223 OA 
ENDBRANCH  16  17
ENDBRANCH  15  16
ENDBRANCH  13  15
ENDBRANCH   9  13
BRANCH   8  24
HETATM   24  C   UNL     1      -9.856  12.314  67.723  1.00  0.00    -0.201 C  
BRANCH  24  25
HETATM   25  C   UNL     1      -9.100  11.061  68.100  1.00  0.00    -0.155 A  
HETATM   26  C   UNL     1      -8.387  10.272  67.197  1.00  0.00    -0.122 A  
HETATM   27  C   UNL     1      -8.453   9.507  69.873  1.00  0.00    -0.198 A  
HETATM   28  C   UNL     1      -7.744   8.693  68.976  1.00  0.00    -0.095 A  
HETATM   29  C   UNL     1      -9.106  10.672  69.447  1.00  0.00    -0.064 A  
HETATM   30  C   UNL     1      -7.676   9.151  67.644  1.00  0.00    -0.089 A  
BRANCH  28  31
HETATM   31  C   UNL     1      -7.029   7.454  69.422  1.00  0.00    -0.061 A  
HETATM   32  C   UNL     1      -5.162   6.514  70.739  1.00  0.00    -0.018 A  
HETATM   33  C   UNL     1      -6.066   7.544  70.460  1.00  0.00    -0.031 A  
HETATM   34  C   UNL     1      -5.237   5.322  70.038  1.00  0.00    -0.004 A  
HETATM   35  C   UNL     1      -6.240   5.153  69.089  1.00  0.00    -0.033 A  
HETATM   36  C   UNL     1      -7.144   6.194  68.791  1.00  0.00    -0.082 A  
BRANCH  36  37
HETATM   37  C   UNL     1      -8.196   5.838  67.820  1.00  0.00    -0.101 C  
HETATM   38  N   UNL     1      -9.467   5.896  68.048  1.00  0.00    -0.107 NA 
HETATM   39  O   UNL     1     -10.082   5.481  66.825  1.00  0.00    -0.165 OA 
HETATM   40  C   UNL     1      -9.061   5.216  65.951  1.00  0.00    -0.153 C  
HETATM   41  N   UNL     1      -7.897   5.457  66.572  1.00  0.00    -0.100 NA 
HETATM   42  O   UNL     1      -9.190   4.808  64.805  1.00  0.00    -0.154 OA 
ENDBRANCH  36  37
ENDBRANCH  28  31
ENDBRANCH  24  25
ENDBRANCH   8  24
ENDBRANCH   3   4
ENDBRANCH   2   3
TORSDOF 10
ENDMDL
MODEL      202
REMARK 921   NORMALIZED FREE ENERGY PREDICTED BY IDOCK:   -3.53 KCAL/MOL
REMARK 922        TOTAL FREE ENERGY PREDICTED BY IDOCK:   -8.51 KCAL/MOL
REMARK 923 INTER-LIGAND FREE ENERGY PREDICTED BY IDOCK:   -6.84 KCAL/MOL
REMARK 924 INTRA-LIGAND FREE ENERGY PREDICTED BY IDOCK:   -1.67 KCAL/MOL
REMARK 927      BINDING AFFINITY PREDICTED BY RF-SCORE:    0.00 PKD
ROOT
HETATM    1  C   UNL     1     -10.712   2.273  73.336  1.00  0.00    -0.264 C  
HETATM    2  C   UNL     1     -10.551   3.782  73.386  1.00  0.00    -0.193 C  
ENDROOT
BRANCH   2   3
HETATM    3  O   UNL     1     -10.512   4.300  72.054  1.00  0.00    -0.137 OA 
BRANCH   3   4
HETATM    4  C   UNL     1      -9.289   4.626  71.634  1.00  0.00    -0.143 A  
HETATM    5  N   UNL     1      -8.462   3.816  71.024  1.00  0.00    -0.070 NA 
HETATM    6  C   UNL     1      -7.351   4.569  70.768  1.00  0.00    -0.052 A  
HETATM    7  C   UNL     1      -7.483   5.882  71.242  1.00  0.00    -0.089 A  
HETATM    8  N   UNL     1      -8.768   5.895  71.758  1.00  0.00    -0.138 NA 
HETATM    9  C   UNL     1      -6.417   6.809  71.112  1.00  0.00    -0.045 A  
HETATM   10  C   UNL     1      -5.259   6.375  70.431  1.00  0.00    -0.014 A  
HETATM   11  C   UNL     1      -6.187   4.173  70.091  1.00  0.00    -0.026 A  
HETATM   12  C   UNL     1      -5.151   5.087  69.916  1.00  0.00     0.000 A  
BRANCH   9  13
HETATM   13  C   UNL     1      -6.476   8.221  71.557  1.00  0.00    -0.049 C  
HETATM   14  O   UNL     1      -6.616   8.557  72.719  1.00  0.00    -0.094 OA 
BRANCH  13  15
HETATM   15  O   UNL     1      -6.426   9.059  70.486  1.00  0.00    -0.041 OA 
BRANCH  15  16
HETATM   16  C   UNL     1      -6.049  10.415  70.776  1.00  0.00    -0.062 C  
BRANCH  16  17
HETATM   17  C   UNL     1      -5.874  11.171  69.506  1.00  0.00    -0.061 C  
HETATM   18  O   UNL     1      -5.602  12.781  67.980  1.00  0.00    -0.076 OA 
HETATM   19  C   UNL     1      -5.768  12.468  69.309  1.00  0.00    -0.080 C  
HETATM   20  O   UNL     1      -5.824  10.486  68.303  1.00  0.00    -0.043 OA 
HETATM   21  C   UNL     1      -5.691  13.567  70.277  1.00  0.00    -0.150 C  
HETATM   22  C   UNL     1      -5.625  11.525  67.400  1.00  0.00    -0.072 C  
HETATM   23  O   UNL     1      -5.491  11.352  66.194  1.00  0.00    -0.195 OA 
ENDBRANCH  16  17
ENDBRANCH  15  16
ENDBRANCH  13  15
ENDBRANCH   9  13
BRANCH   8  24
HETATM   24  C   UNL     1      -9.576   7.037  72.155  1.00  0.00    -0.146 C  
BRANCH  24  25
HETATM   25  C   UNL     1      -9.875   8.040  71.064  1.00  0.00    -0.200 A  
HETATM   26  C   UNL     1      -9.798   9.423  71.225  1.00  0.00    -0.245 A  
HETATM   27  C   UNL     1     -10.565   8.411  68.749  1.00  0.00    -0.154 A  
HETATM   28  C   UNL     1     -10.508   9.806  68.898  1.00  0.00    -0.233 A  
HETATM   29  C   UNL     1     -10.244   7.547  69.804  1.00  0.00    -0.211 A  
HETATM   30  C   UNL     1     -10.048  10.277  70.145  1.00  0.00    -0.099 A  
BRANCH  28  31
HETATM   31  C   UNL     1     -10.834  10.739  67.772  1.00  0.00    -0.320 A  
HETATM   32  C   UNL     1     -10.508  11.280  65.383  1.00  0.00    -0.326 A  
HETATM   33  C   UNL     1     -10.502  10.367  66.444  1.00  0.00    -0.246 A  
HETATM   34  C   UNL     1     -10.920  12.584  65.598  1.00  0.00    -0.323 A  
HETATM   35  C   UNL     1     -11.360  12.958  66.863  1.00  0.00    -0.358 A  
HETATM   36  C   UNL     1     -11.341  12.048  67.941  1.00  0.00    -0.369 A  
BRANCH  36  37
HETATM   37  C   UNL     1     -11.909  12.569  69.198  1.00  0.00    -0.296 C  
HETATM   38  N   UNL     1     -12.622  11.884  70.030  1.00  0.00     0.009 NA 
HETATM   39  O   UNL     1     -12.926  12.792  71.093  1.00  0.00    -0.271 OA 
HETATM   40  C   UNL     1     -12.322  13.979  70.770  1.00  0.00    -0.373 C  
HETATM   41  N   UNL     1     -11.681  13.825  69.602  1.00  0.00    -0.302 NA 
HETATM   42  O   UNL     1     -12.379  15.010  71.426  1.00  0.00    -0.290 OA 
ENDBRANCH  36  37
ENDBRANCH  28  31
ENDBRANCH  24  25
ENDBRANCH   8  24
ENDBRANCH   3   4
ENDBRANCH   2   3
TORSDOF 10
ENDMDL
MODEL      203
REMARK 921   NORMALIZED FREE ENERGY PREDICTED BY IDOCK:   -3.52 KCAL/MOL
REMARK 922        TOTAL FREE ENERGY PREDICTED BY IDOCK:   -8.50 KCAL/MOL
REMARK 923 INTER-LIGAND FREE ENERGY PREDICTED BY IDOCK:   -7.28 KCAL/MOL
REMARK 924 INTRA-LIGAND FREE ENERGY PREDICTED BY IDOCK:   -1.22 KCAL/MOL
REMARK 927      BINDING AFFINITY PREDICTED BY RF-SCORE:    0.00 PKD
ROOT
HETATM    1  C   UNL     1      -5.756   8.562  70.169  1.00  0.00    -0.024 C  
HETATM    2  C   UNL     1      -5.163   9.820  69.561  1.00  0.00    -0.035 C  
ENDROOT
BRANCH   2   3
HETATM    3  O   UNL     1      -5.857  10.136  68.351  1.00  0.00    -0.042 OA 
BRANCH   3   4
HETATM    4  C   UNL     1      -6.484   9.098  67.798  1.00  0.00    -0.056 A  
HETATM    5  N   UNL     1      -5.903   8.142  67.120  1.00  0.00    -0.041 NA 
HETATM    6  C   UNL     1      -6.914   7.295  66.762  1.00  0.00    -0.074 A  
HETATM    7  C   UNL     1      -8.162   7.742  67.217  1.00  0.00    -0.119 A  
HETATM    8  N   UNL     1      -7.839   8.889  67.922  1.00  0.00    -0.101 NA 
HETATM    9  C   UNL     1      -9.345   7.023  66.908  1.00  0.00    -0.185 A  
HETATM   10  C   UNL     1      -9.202   5.817  66.189  1.00  0.00    -0.169 A  
HETATM   11  C   UNL     1      -6.808   6.088  66.052  1.00  0.00    -0.061 A  
HETATM   12  C   UNL     1      -7.956   5.348  65.782  1.00  0.00    -0.106 A  
BRANCH   9  13
HETATM   13  C   UNL     1     -10.701   7.403  67.368  1.00  0.00    -0.278 C  
HETATM   14  O   UNL     1     -11.247   8.450  67.069  1.00  0.00     0.289 OA 
BRANCH  13  15
HETATM   15  O   UNL     1     -11.197   6.459  68.214  1.00  0.00    -0.309 OA 
BRANCH  15  16
HETATM   16  C   UNL     1     -11.314   6.860  69.590  1.00  0.00    -0.203 C  
BRANCH  16  17
HETATM   17  C   UNL     1     -10.473   5.977  70.444  1.00  0.00    -0.246 C  
HETATM   18  O   UNL     1      -9.523   4.924  72.172  1.00  0.00    -0.140 OA 
HETATM   19  C   UNL     1     -10.428   5.874  71.755  1.00  0.00    -0.227 C  
HETATM   20  O   UNL     1      -9.563   5.116  69.852  1.00  0.00    -0.146 OA 
HETATM   21  C   UNL     1     -11.250   6.520  72.783  1.00  0.00    -0.259 C  
HETATM   22  C   UNL     1      -9.028   4.471  70.962  1.00  0.00    -0.121 C  
HETATM   23  O   UNL     1      -8.185   3.586  70.884  1.00  0.00    -0.063 OA 
ENDBRANCH  16  17
ENDBRANCH  15  16
ENDBRANCH  13  15
ENDBRANCH   9  13
BRANCH   8  24
HETATM   24  C   UNL     1      -8.668   9.654  68.841  1.00  0.00    -0.132 C  
BRANCH  24  25
HETATM   25  C   UNL     1      -8.990  11.067  68.412  1.00  0.00    -0.158 A  
HETATM   26  C   UNL     1      -8.152  12.162  68.622  1.00  0.00    -0.048 A  
HETATM   27  C   UNL     1     -10.591  12.576  67.347  1.00  0.00    -0.242 A  
HETATM   28  C   UNL     1      -9.768  13.691  67.564  1.00  0.00    -0.227 A  
HETATM   29  C   UNL     1     -10.206  11.290  67.751  1.00  0.00    -0.203 A  
HETATM   30  C   UNL     1      -8.512  13.430  68.149  1.00  0.00    -0.172 A  
BRANCH  28  31
HETATM   31  C   UNL     1     -10.162  15.068  67.123  1.00  0.00    -0.249 A  
HETATM   32  C   UNL     1      -9.832  16.877  65.472  1.00  0.00     0.073 A  
HETATM   33  C   UNL     1      -9.757  15.530  65.844  1.00  0.00    -0.392 A  
HETATM   34  C   UNL     1     -10.387  17.802  66.339  1.00  0.00    -0.351 A  
HETATM   35  C   UNL     1     -10.898  17.369  67.559  1.00  0.00    -0.203 A  
HETATM   36  C   UNL     1     -10.810  16.017  67.948  1.00  0.00    -0.333 A  
BRANCH  36  37
HETATM   37  C   UNL     1     -11.464  15.699  69.231  1.00  0.00    -0.362 C  
HETATM   38  N   UNL     1     -12.569  15.041  69.359  1.00  0.00    -0.020 NA 
HETATM   39  O   UNL     1     -12.795  14.967  70.769  1.00  0.00    -0.342 OA 
HETATM   40  C   UNL     1     -11.742  15.612  71.363  1.00  0.00    -0.428 C  
HETATM   41  N   UNL     1     -10.915  16.048  70.401  1.00  0.00    -0.346 NA 
HETATM   42  O   UNL     1     -11.596  15.782  72.565  1.00  0.00    -0.431 OA 
ENDBRANCH  36  37
ENDBRANCH  28  31
ENDBRANCH  24  25
ENDBRANCH   8  24
ENDBRANCH   3   4
ENDBRANCH   2   3
TORSDOF 10
ENDMDL
MODEL      204
REMARK 921   NORMALIZED FREE ENERGY PREDICTED BY IDOCK:   -3.51 KCAL/MOL
REMARK 922        TOTAL FREE ENERGY PREDICTED BY IDOCK:   -8.48 KCAL/MOL
REMARK 923 INTER-LIGAND FREE ENERGY PREDICTED BY IDOCK:   -6.01 KCAL/MOL
REMARK 924 INTRA-LIGAND FREE ENERGY PREDICTED BY IDOCK:   -2.47 KCAL/MOL
REMARK 927      BINDING AFFINITY PREDICTED BY RF-SCORE:    0.00 PKD
ROOT
HETATM    1  C   UNL     1      -8.190  15.646  67.660  1.00  0.00    -0.165 C  
HETATM    2  C   UNL     1      -7.681  14.238  67.913  1.00  0.00    -0.152 C  
ENDROOT
BRANCH   2   3
HETATM    3  O   UNL     1      -8.482  13.305  67.182  1.00  0.00    -0.201 OA 
BRANCH   3   4
HETATM    4  C   UNL     1      -9.324  12.601  67.940  1.00  0.00    -0.204 A  
HETATM    5  N   UNL     1     -10.602  12.845  68.070  1.00  0.00    -0.221 NA 
HETATM    6  C   UNL     1     -11.065  11.876  68.916  1.00  0.00    -0.247 A  
HETATM    7  C   UNL     1     -10.044  11.012  69.336  1.00  0.00    -0.030 A  
HETATM    8  N   UNL     1      -8.938  11.485  68.648  1.00  0.00    -0.150 NA 
HETATM    9  C   UNL     1     -10.314   9.965  70.254  1.00  0.00    -0.339 A  
HETATM   10  C   UNL     1     -11.653   9.794  70.667  1.00  0.00    -0.389 A  
HETATM   11  C   UNL     1     -12.386  11.674  69.344  1.00  0.00    -0.131 A  
HETATM   12  C   UNL     1     -12.673  10.621  70.209  1.00  0.00    -0.277 A  
BRANCH   9  13
HETATM   13  C   UNL     1      -9.307   8.988  70.730  1.00  0.00    -0.249 C  
HETATM   14  O   UNL     1      -8.253   9.305  71.252  1.00  0.00    -0.324 OA 
BRANCH  13  15
HETATM   15  O   UNL     1      -9.700   7.719  70.434  1.00  0.00    -0.178 OA 
BRANCH  15  16
HETATM   16  C   UNL     1     -10.090   6.913  71.558  1.00  0.00    -0.184 C  
BRANCH  16  17
HETATM   17  C   UNL     1      -9.115   5.803  71.744  1.00  0.00    -0.142 C  
HETATM   18  O   UNL     1      -7.943   4.081  72.553  1.00  0.00    -0.079 OA 
HETATM   19  C   UNL     1      -8.948   4.995  72.769  1.00  0.00    -0.120 C  
HETATM   20  O   UNL     1      -8.199   5.523  70.743  1.00  0.00    -0.112 OA 
HETATM   21  C   UNL     1      -9.724   4.867  74.007  1.00  0.00    -0.155 C  
HETATM   22  C   UNL     1      -7.523   4.434  71.283  1.00  0.00    -0.060 C  
HETATM   23  O   UNL     1      -6.626   3.841  70.696  1.00  0.00    -0.030 OA 
ENDBRANCH  16  17
ENDBRANCH  15  16
ENDBRANCH  13  15
ENDBRANCH   9  13
BRANCH   8  24
HETATM   24  C   UNL     1      -7.643  10.850  68.465  1.00  0.00    -0.111 C  
BRANCH  24  25
HETATM   25  C   UNL     1      -7.621   9.662  67.529  1.00  0.00    -0.095 A  
HETATM   26  C   UNL     1      -6.894   8.495  67.759  1.00  0.00    -0.067 A  
HETATM   27  C   UNL     1      -8.403   8.688  65.428  1.00  0.00    -0.165 A  
HETATM   28  C   UNL     1      -7.665   7.512  65.636  1.00  0.00    -0.100 A  
HETATM   29  C   UNL     1      -8.392   9.735  66.360  1.00  0.00    -0.120 A  
HETATM   30  C   UNL     1      -6.970   7.424  66.860  1.00  0.00    -0.082 A  
BRANCH  28  31
HETATM   31  C   UNL     1      -7.681   6.381  64.654  1.00  0.00    -0.107 A  
HETATM   32  C   UNL     1      -7.076   5.613  62.384  1.00  0.00    -0.041 A  
HETATM   33  C   UNL     1      -6.903   6.477  63.471  1.00  0.00    -0.049 A  
HETATM   34  C   UNL     1      -7.983   4.571  62.470  1.00  0.00    -0.068 A  
HETATM   35  C   UNL     1      -8.684   4.375  63.655  1.00  0.00    -0.129 A  
HETATM   36  C   UNL     1      -8.527   5.252  64.748  1.00  0.00    -0.149 A  
BRANCH  36  37
HETATM   37  C   UNL     1      -9.278   4.870  65.959  1.00  0.00    -0.151 C  
HETATM   38  N   UNL     1     -10.464   5.285  66.259  1.00  0.00    -0.265 NA 
HETATM   39  O   UNL     1     -10.781   4.640  67.496  1.00  0.00     0.184 OA 
HETATM   40  C   UNL     1      -9.699   3.861  67.812  1.00  0.00    -0.086 C  
HETATM   41  N   UNL     1      -8.780   3.997  66.844  1.00  0.00    -0.112 NA 
HETATM   42  O   UNL     1      -9.584   3.175  68.819  1.00  0.00    -0.157 OA 
ENDBRANCH  36  37
ENDBRANCH  28  31
ENDBRANCH  24  25
ENDBRANCH   8  24
ENDBRANCH   3   4
ENDBRANCH   2   3
TORSDOF 10
ENDMDL
MODEL      205
REMARK 921   NORMALIZED FREE ENERGY PREDICTED BY IDOCK:   -3.50 KCAL/MOL
REMARK 922        TOTAL FREE ENERGY PREDICTED BY IDOCK:   -8.47 KCAL/MOL
REMARK 923 INTER-LIGAND FREE ENERGY PREDICTED BY IDOCK:   -6.63 KCAL/MOL
REMARK 924 INTRA-LIGAND FREE ENERGY PREDICTED BY IDOCK:   -1.84 KCAL/MOL
REMARK 927      BINDING AFFINITY PREDICTED BY RF-SCORE:    0.00 PKD
ROOT
HETATM    1  C   UNL     1      -5.952   7.586  74.137  1.00  0.00    -0.072 C  
HETATM    2  C   UNL     1      -7.043   8.598  73.832  1.00  0.00     0.017 C  
ENDROOT
BRANCH   2   3
HETATM    3  O   UNL     1      -7.026   8.908  72.436  1.00  0.00    -0.299 OA 
BRANCH   3   4
HETATM    4  C   UNL     1      -7.722   8.057  71.682  1.00  0.00    -0.091 A  
HETATM    5  N   UNL     1      -8.679   7.278  72.115  1.00  0.00    -0.120 NA 
HETATM    6  C   UNL     1      -9.114   6.601  71.010  1.00  0.00    -0.156 A  
HETATM    7  C   UNL     1      -8.399   6.958  69.858  1.00  0.00    -0.139 A  
HETATM    8  N   UNL     1      -7.536   7.937  70.323  1.00  0.00    -0.076 NA 
HETATM    9  C   UNL     1      -8.671   6.333  68.614  1.00  0.00    -0.120 A  
HETATM   10  C   UNL     1      -9.726   5.396  68.577  1.00  0.00    -0.183 A  
HETATM   11  C   UNL     1     -10.160   5.668  70.935  1.00  0.00    -0.263 A  
HETATM   12  C   UNL     1     -10.468   5.080  69.711  1.00  0.00    -0.182 A  
BRANCH   9  13
HETATM   13  C   UNL     1      -7.989   6.665  67.342  1.00  0.00    -0.114 C  
HETATM   14  O   UNL     1      -6.796   6.899  67.257  1.00  0.00    -0.067 OA 
BRANCH  13  15
HETATM   15  O   UNL     1      -8.890   6.740  66.325  1.00  0.00    -0.140 OA 
BRANCH  15  16
HETATM   16  C   UNL     1      -8.378   6.430  65.019  1.00  0.00    -0.087 C  
BRANCH  16  17
HETATM   17  C   UNL     1      -8.379   4.956  64.815  1.00  0.00    -0.136 C  
HETATM   18  O   UNL     1      -8.979   2.815  64.587  1.00  0.00    -0.112 OA 
HETATM   19  C   UNL     1      -9.383   4.106  64.836  1.00  0.00    -0.164 C  
HETATM   20  O   UNL     1      -7.184   4.296  64.579  1.00  0.00    -0.066 OA 
HETATM   21  C   UNL     1     -10.824   4.349  64.972  1.00  0.00    -0.097 C  
HETATM   22  C   UNL     1      -7.617   2.985  64.416  1.00  0.00    -0.076 C  
HETATM   23  O   UNL     1      -6.864   2.055  64.154  1.00  0.00    -0.030 OA 
ENDBRANCH  16  17
ENDBRANCH  15  16
ENDBRANCH  13  15
ENDBRANCH   9  13
BRANCH   8  24
HETATM   24  C   UNL     1      -6.726   8.871  69.558  1.00  0.00    -0.047 C  
BRANCH  24  25
HETATM   25  C   UNL     1      -7.404  10.168  69.179  1.00  0.00    -0.089 A  
HETATM   26  C   UNL     1      -6.729  11.308  68.743  1.00  0.00    -0.070 A  
HETATM   27  C   UNL     1      -9.503  11.399  68.952  1.00  0.00    -0.064 A  
HETATM   28  C   UNL     1      -8.839  12.561  68.527  1.00  0.00    -0.046 A  
HETATM   29  C   UNL     1      -8.802  10.225  69.259  1.00  0.00    -0.186 A  
HETATM   30  C   UNL     1      -7.442  12.453  68.368  1.00  0.00    -0.123 A  
BRANCH  28  31
HETATM   31  C   UNL     1      -9.579  13.817  68.182  1.00  0.00    -0.216 A  
HETATM   32  C   UNL     1     -10.198  16.103  68.887  1.00  0.00    -0.245 A  
HETATM   33  C   UNL     1      -9.357  14.987  68.954  1.00  0.00    -0.208 A  
HETATM   34  C   UNL     1     -11.251  16.121  67.988  1.00  0.00    -0.291 A  
HETATM   35  C   UNL     1     -11.434  15.038  67.134  1.00  0.00    -0.304 A  
HETATM   36  C   UNL     1     -10.600  13.902  67.208  1.00  0.00    -0.276 A  
BRANCH  36  37
HETATM   37  C   UNL     1     -10.870  12.872  66.188  1.00  0.00    -0.279 C  
HETATM   38  N   UNL     1     -12.013  12.304  65.990  1.00  0.00    -0.609 NA 
HETATM   39  O   UNL     1     -11.797  11.401  64.902  1.00  0.00     0.067 OA 
HETATM   40  C   UNL     1     -10.481  11.542  64.542  1.00  0.00    -0.314 C  
HETATM   41  N   UNL     1      -9.921  12.467  65.335  1.00  0.00    -0.251 NA 
HETATM   42  O   UNL     1      -9.912  10.911  63.662  1.00  0.00    -0.302 OA 
ENDBRANCH  36  37
ENDBRANCH  28  31
ENDBRANCH  24  25
ENDBRANCH   8  24
ENDBRANCH   3   4
ENDBRANCH   2   3
TORSDOF 10
ENDMDL
MODEL      206
REMARK 921   NORMALIZED FREE ENERGY PREDICTED BY IDOCK:   -3.49 KCAL/MOL
REMARK 922        TOTAL FREE ENERGY PREDICTED BY IDOCK:   -8.45 KCAL/MOL
REMARK 923 INTER-LIGAND FREE ENERGY PREDICTED BY IDOCK:   -7.17 KCAL/MOL
REMARK 924 INTRA-LIGAND FREE ENERGY PREDICTED BY IDOCK:   -1.28 KCAL/MOL
REMARK 927      BINDING AFFINITY PREDICTED BY RF-SCORE:    0.00 PKD
ROOT
HETATM    1  C   UNL     1      -9.268  10.320  62.460  1.00  0.00    -0.321 C  
HETATM    2  C   UNL     1      -7.935  10.061  63.140  1.00  0.00    -0.148 C  
ENDROOT
BRANCH   2   3
HETATM    3  O   UNL     1      -7.348   8.875  62.598  1.00  0.00    -0.100 OA 
BRANCH   3   4
HETATM    4  C   UNL     1      -7.682   7.759  63.246  1.00  0.00    -0.135 A  
HETATM    5  N   UNL     1      -8.122   6.664  62.681  1.00  0.00    -0.095 NA 
HETATM    6  C   UNL     1      -8.318   5.786  63.710  1.00  0.00    -0.019 A  
HETATM    7  C   UNL     1      -8.003   6.353  64.953  1.00  0.00    -0.124 A  
HETATM    8  N   UNL     1      -7.552   7.617  64.609  1.00  0.00    -0.103 NA 
HETATM    9  C   UNL     1      -8.183   5.615  66.151  1.00  0.00    -0.110 A  
HETATM   10  C   UNL     1      -8.621   4.279  66.030  1.00  0.00    -0.113 A  
HETATM   11  C   UNL     1      -8.748   4.453  63.626  1.00  0.00    -0.129 A  
HETATM   12  C   UNL     1      -8.884   3.702  64.791  1.00  0.00    -0.120 A  
BRANCH   9  13
HETATM   13  C   UNL     1      -7.851   6.120  67.504  1.00  0.00    -0.102 C  
HETATM   14  O   UNL     1      -6.712   6.303  67.895  1.00  0.00    -0.059 OA 
BRANCH  13  15
HETATM   15  O   UNL     1      -8.982   6.273  68.244  1.00  0.00    -0.117 OA 
BRANCH  15  16
HETATM   16  C   UNL     1      -8.790   6.316  69.668  1.00  0.00    -0.136 C  
BRANCH  16  17
HETATM   17  C   UNL     1      -9.923   7.042  70.306  1.00  0.00    -0.179 C  
HETATM   18  O   UNL     1     -11.199   8.563  71.332  1.00  0.00    -0.241 OA 
HETATM   19  C   UNL     1      -9.948   8.234  70.863  1.00  0.00    -0.190 C  
HETATM   20  O   UNL     1     -11.167   6.438  70.382  1.00  0.00    -0.314 OA 
HETATM   21  C   UNL     1      -8.903   9.260  70.948  1.00  0.00    -0.252 C  
HETATM   22  C   UNL     1     -11.921   7.432  70.997  1.00  0.00    -0.306 C  
HETATM   23  O   UNL     1     -13.118   7.319  71.233  1.00  0.00    -0.369 OA 
ENDBRANCH  16  17
ENDBRANCH  15  16
ENDBRANCH  13  15
ENDBRANCH   9  13
BRANCH   8  24
HETATM   24  C   UNL     1      -6.842   8.583  65.433  1.00  0.00    -0.070 C  
BRANCH  24  25
HETATM   25  C   UNL     1      -7.709   9.477  66.289  1.00  0.00    -0.101 A  
HETATM   26  C   UNL     1      -7.223  10.520  67.077  1.00  0.00    -0.098 A  
HETATM   27  C   UNL     1      -9.961  10.018  67.071  1.00  0.00    -0.257 A  
HETATM   28  C   UNL     1      -9.488  11.061  67.882  1.00  0.00    -0.170 A  
HETATM   29  C   UNL     1      -9.092   9.251  66.282  1.00  0.00    -0.213 A  
HETATM   30  C   UNL     1      -8.105  11.329  67.804  1.00  0.00    -0.119 A  
BRANCH  28  31
HETATM   31  C   UNL     1     -10.408  11.898  68.718  1.00  0.00    -0.184 A  
HETATM   32  C   UNL     1     -12.505  11.978  70.022  1.00  0.00    -0.067 A  
HETATM   33  C   UNL     1     -11.443  11.266  69.454  1.00  0.00    -0.370 A  
HETATM   34  C   UNL     1     -12.531  13.360  69.939  1.00  0.00    -0.155 A  
HETATM   35  C   UNL     1     -11.476  14.024  69.322  1.00  0.00    -0.344 A  
HETATM   36  C   UNL     1     -10.411  13.312  68.732  1.00  0.00    -0.187 A  
BRANCH  36  37
HETATM   37  C   UNL     1      -9.332  14.156  68.186  1.00  0.00    -0.206 C  
HETATM   38  N   UNL     1      -8.147  14.265  68.690  1.00  0.00    -0.145 NA 
HETATM   39  O   UNL     1      -7.455  15.165  67.820  1.00  0.00    -0.131 OA 
HETATM   40  C   UNL     1      -8.343  15.505  66.833  1.00  0.00    -0.255 C  
HETATM   41  N   UNL     1      -9.498  14.861  67.060  1.00  0.00    -0.220 NA 
HETATM   42  O   UNL     1      -8.125  16.284  65.915  1.00  0.00    -0.093 OA 
ENDBRANCH  36  37
ENDBRANCH  28  31
ENDBRANCH  24  25
ENDBRANCH   8  24
ENDBRANCH   3   4
ENDBRANCH   2   3
TORSDOF 10
ENDMDL
MODEL      207
REMARK 921   NORMALIZED FREE ENERGY PREDICTED BY IDOCK:   -3.44 KCAL/MOL
REMARK 922        TOTAL FREE ENERGY PREDICTED BY IDOCK:   -8.38 KCAL/MOL
REMARK 923 INTER-LIGAND FREE ENERGY PREDICTED BY IDOCK:   -8.39 KCAL/MOL
REMARK 924 INTRA-LIGAND FREE ENERGY PREDICTED BY IDOCK:    0.01 KCAL/MOL
REMARK 927      BINDING AFFINITY PREDICTED BY RF-SCORE:    0.00 PKD
ROOT
HETATM    1  C   UNL     1     -10.354  17.376  65.814  1.00  0.00    -0.226 C  
HETATM    2  C   UNL     1     -10.903  16.303  64.891  1.00  0.00    -0.296 C  
ENDROOT
BRANCH   2   3
HETATM    3  O   UNL     1     -10.549  15.014  65.396  1.00  0.00    -0.322 OA 
BRANCH   3   4
HETATM    4  C   UNL     1     -10.931  14.800  66.656  1.00  0.00    -0.326 A  
HETATM    5  N   UNL     1     -11.092  15.731  67.561  1.00  0.00    -0.296 NA 
HETATM    6  C   UNL     1     -11.500  15.067  68.684  1.00  0.00    -0.311 A  
HETATM    7  C   UNL     1     -11.583  13.683  68.478  1.00  0.00    -0.335 A  
HETATM    8  N   UNL     1     -11.250  13.552  67.139  1.00  0.00    -0.296 NA 
HETATM    9  C   UNL     1     -11.946  12.814  69.538  1.00  0.00    -0.338 A  
HETATM   10  C   UNL     1     -12.282  13.404  70.775  1.00  0.00    -0.409 A  
HETATM   11  C   UNL     1     -11.845  15.621  69.927  1.00  0.00    -0.374 A  
HETATM   12  C   UNL     1     -12.249  14.783  70.963  1.00  0.00    -0.393 A  
BRANCH   9  13
HETATM   13  C   UNL     1     -12.087  11.345  69.406  1.00  0.00    -0.291 C  
HETATM   14  O   UNL     1     -13.161  10.770  69.372  1.00  0.00     0.049 OA 
BRANCH  13  15
HETATM   15  O   UNL     1     -10.864  10.749  69.405  1.00  0.00    -0.216 OA 
BRANCH  15  16
HETATM   16  C   UNL     1     -10.692   9.682  70.353  1.00  0.00    -0.298 C  
BRANCH  16  17
HETATM   17  C   UNL     1      -9.245   9.370  70.502  1.00  0.00    -0.259 C  
HETATM   18  O   UNL     1      -7.260   8.676  71.259  1.00  0.00    -0.072 OA 
HETATM   19  C   UNL     1      -8.607   8.808  71.507  1.00  0.00    -0.186 C  
HETATM   20  O   UNL     1      -8.365   9.702  69.485  1.00  0.00    -0.124 OA 
HETATM   21  C   UNL     1      -9.125   8.229  72.750  1.00  0.00    -0.332 C  
HETATM   22  C   UNL     1      -7.161   9.224  69.992  1.00  0.00    -0.070 C  
HETATM   23  O   UNL     1      -6.101   9.289  69.382  1.00  0.00    -0.037 OA 
ENDBRANCH  16  17
ENDBRANCH  15  16
ENDBRANCH  13  15
ENDBRANCH   9  13
BRANCH   8  24
HETATM   24  C   UNL     1     -11.409  12.394  66.274  1.00  0.00    -0.340 C  
BRANCH  24  25
HETATM   25  C   UNL     1     -10.299  11.369  66.338  1.00  0.00    -0.284 A  
HETATM   26  C   UNL     1      -9.062  11.589  66.942  1.00  0.00    -0.181 A  
HETATM   27  C   UNL     1      -9.546   9.119  65.754  1.00  0.00    -0.323 A  
HETATM   28  C   UNL     1      -8.289   9.328  66.344  1.00  0.00    -0.120 A  
HETATM   29  C   UNL     1     -10.534  10.113  65.762  1.00  0.00    -0.128 A  
HETATM   30  C   UNL     1      -8.108  10.565  66.995  1.00  0.00    -0.118 A  
BRANCH  28  31
HETATM   31  C   UNL     1      -7.230   8.268  66.355  1.00  0.00    -0.075 A  
HETATM   32  C   UNL     1      -5.150   7.422  65.323  1.00  0.00    -0.028 A  
HETATM   33  C   UNL     1      -6.047   8.461  65.596  1.00  0.00    -0.045 A  
HETATM   34  C   UNL     1      -5.365   6.166  65.863  1.00  0.00    -0.013 A  
HETATM   35  C   UNL     1      -6.455   5.965  66.705  1.00  0.00    -0.047 A  
HETATM   36  C   UNL     1      -7.372   7.002  66.971  1.00  0.00    -0.086 A  
BRANCH  36  37
HETATM   37  C   UNL     1      -8.429   6.659  67.940  1.00  0.00    -0.119 C  
HETATM   38  N   UNL     1      -8.230   6.363  69.182  1.00  0.00    -0.111 NA 
HETATM   39  O   UNL     1      -9.534   6.126  69.721  1.00  0.00    -0.148 OA 
HETATM   40  C   UNL     1     -10.417   6.326  68.692  1.00  0.00    -0.231 C  
HETATM   41  N   UNL     1      -9.723   6.672  67.598  1.00  0.00    -0.122 NA 
HETATM   42  O   UNL     1     -11.631   6.188  68.757  1.00  0.00    -0.110 OA 
ENDBRANCH  36  37
ENDBRANCH  28  31
ENDBRANCH  24  25
ENDBRANCH   8  24
ENDBRANCH   3   4
ENDBRANCH   2   3
TORSDOF 10
ENDMDL
MODEL      208
REMARK 921   NORMALIZED FREE ENERGY PREDICTED BY IDOCK:   -3.43 KCAL/MOL
REMARK 922        TOTAL FREE ENERGY PREDICTED BY IDOCK:   -8.36 KCAL/MOL
REMARK 923 INTER-LIGAND FREE ENERGY PREDICTED BY IDOCK:   -6.21 KCAL/MOL
REMARK 924 INTRA-LIGAND FREE ENERGY PREDICTED BY IDOCK:   -2.15 KCAL/MOL
REMARK 927      BINDING AFFINITY PREDICTED BY RF-SCORE:    0.00 PKD
ROOT
HETATM    1  C   UNL     1      -5.163  18.886  68.081  1.00  0.00    -0.177 C  
HETATM    2  C   UNL     1      -5.218  17.627  68.929  1.00  0.00    -0.159 C  
ENDROOT
BRANCH   2   3
HETATM    3  O   UNL     1      -5.510  16.505  68.093  1.00  0.00    -0.106 OA 
BRANCH   3   4
HETATM    4  C   UNL     1      -6.786  16.427  67.712  1.00  0.00    -0.136 A  
HETATM    5  N   UNL     1      -7.297  17.025  66.668  1.00  0.00    -0.232 NA 
HETATM    6  C   UNL     1      -8.612  16.656  66.654  1.00  0.00    -0.258 A  
HETATM    7  C   UNL     1      -8.934  15.814  67.728  1.00  0.00    -0.176 A  
HETATM    8  N   UNL     1      -7.716  15.652  68.367  1.00  0.00    -0.123 NA 
HETATM    9  C   UNL     1     -10.264  15.357  67.916  1.00  0.00    -0.239 A  
HETATM   10  C   UNL     1     -11.221  15.728  66.947  1.00  0.00    -0.050 A  
HETATM   11  C   UNL     1      -9.588  17.002  65.706  1.00  0.00    -0.043 A  
HETATM   12  C   UNL     1     -10.887  16.522  65.854  1.00  0.00    -0.096 A  
BRANCH   9  13
HETATM   13  C   UNL     1     -10.690  14.444  69.002  1.00  0.00    -0.250 C  
HETATM   14  O   UNL     1     -10.880  14.804  70.151  1.00  0.00    -0.183 OA 
BRANCH  13  15
HETATM   15  O   UNL     1     -10.763  13.165  68.546  1.00  0.00    -0.247 OA 
BRANCH  15  16
HETATM   16  C   UNL     1     -12.027  12.508  68.740  1.00  0.00    -0.238 C  
BRANCH  16  17
HETATM   17  C   UNL     1     -11.877  11.414  69.738  1.00  0.00    -0.364 C  
HETATM   18  O   UNL     1     -12.000  10.141  71.571  1.00  0.00    -0.374 OA 
HETATM   19  C   UNL     1     -12.342  11.329  70.966  1.00  0.00    -0.366 C  
HETATM   20  O   UNL     1     -11.140  10.287  69.412  1.00  0.00    -0.228 OA 
HETATM   21  C   UNL     1     -13.227  12.234  71.706  1.00  0.00    -0.428 C  
HETATM   22  C   UNL     1     -11.275   9.523  70.567  1.00  0.00    -0.287 C  
HETATM   23  O   UNL     1     -10.789   8.407  70.696  1.00  0.00    -0.222 OA 
ENDBRANCH  16  17
ENDBRANCH  15  16
ENDBRANCH  13  15
ENDBRANCH   9  13
BRANCH   8  24
HETATM   24  C   UNL     1      -7.350  14.686  69.390  1.00  0.00    -0.135 C  
BRANCH  24  25
HETATM   25  C   UNL     1      -7.016  13.298  68.893  1.00  0.00    -0.096 A  
HETATM   26  C   UNL     1      -7.962  12.304  68.644  1.00  0.00    -0.050 A  
HETATM   27  C   UNL     1      -5.274  11.720  68.222  1.00  0.00    -0.043 A  
HETATM   28  C   UNL     1      -6.211  10.703  67.981  1.00  0.00    -0.053 A  
HETATM   29  C   UNL     1      -5.668  12.993  68.656  1.00  0.00    -0.069 A  
HETATM   30  C   UNL     1      -7.566  11.060  68.139  1.00  0.00    -0.095 A  
BRANCH  28  31
HETATM   31  C   UNL     1      -5.803   9.344  67.502  1.00  0.00    -0.045 A  
HETATM   32  C   UNL     1      -5.323   7.904  65.551  1.00  0.00    -0.029 A  
HETATM   33  C   UNL     1      -5.439   9.167  66.142  1.00  0.00    -0.041 A  
HETATM   34  C   UNL     1      -5.494   6.765  66.320  1.00  0.00    -0.018 A  
HETATM   35  C   UNL     1      -5.742   6.896  67.683  1.00  0.00    -0.020 A  
HETATM   36  C   UNL     1      -5.876   8.166  68.281  1.00  0.00    -0.037 A  
BRANCH  36  37
HETATM   37  C   UNL     1      -6.060   8.143  69.744  1.00  0.00    -0.029 C  
HETATM   38  N   UNL     1      -5.143   7.844  70.604  1.00  0.00    -0.023 NA 
HETATM   39  O   UNL     1      -5.774   7.975  71.881  1.00  0.00    -0.035 OA 
HETATM   40  C   UNL     1      -7.064   8.367  71.634  1.00  0.00    -0.089 C  
HETATM   41  N   UNL     1      -7.226   8.485  70.308  1.00  0.00    -0.046 NA 
HETATM   42  O   UNL     1      -7.926   8.556  72.482  1.00  0.00    -0.278 OA 
ENDBRANCH  36  37
ENDBRANCH  28  31
ENDBRANCH  24  25
ENDBRANCH   8  24
ENDBRANCH   3   4
ENDBRANCH   2   3
TORSDOF 10
ENDMDL
MODEL      209
REMARK 921   NORMALIZED FREE ENERGY PREDICTED BY IDOCK:   -3.39 KCAL/MOL
REMARK 922        TOTAL FREE ENERGY PREDICTED BY IDOCK:   -8.30 KCAL/MOL
REMARK 923 INTER-LIGAND FREE ENERGY PREDICTED BY IDOCK:   -8.27 KCAL/MOL
REMARK 924 INTRA-LIGAND FREE ENERGY PREDICTED BY IDOCK:   -0.03 KCAL/MOL
REMARK 927      BINDING AFFINITY PREDICTED BY RF-SCORE:    0.00 PKD
ROOT
HETATM    1  C   UNL     1     -11.786  12.692  67.020  1.00  0.00    -0.438 C  
HETATM    2  C   UNL     1     -11.718  12.666  68.536  1.00  0.00    -0.330 C  
ENDROOT
BRANCH   2   3
HETATM    3  O   UNL     1     -10.967  11.525  68.959  1.00  0.00    -0.214 OA 
BRANCH   3   4
HETATM    4  C   UNL     1     -10.166  11.023  68.018  1.00  0.00    -0.179 A  
HETATM    5  N   UNL     1     -10.563  10.323  66.988  1.00  0.00    -0.251 NA 
HETATM    6  C   UNL     1      -9.422  10.036  66.291  1.00  0.00    -0.191 A  
HETATM    7  C   UNL     1      -8.280  10.562  66.912  1.00  0.00    -0.123 A  
HETATM    8  N   UNL     1      -8.805  11.233  68.004  1.00  0.00    -0.143 NA 
HETATM    9  C   UNL     1      -6.990  10.334  66.367  1.00  0.00    -0.111 A  
HETATM   10  C   UNL     1      -6.917   9.622  65.151  1.00  0.00    -0.106 A  
HETATM   11  C   UNL     1      -9.312   9.336  65.080  1.00  0.00    -0.196 A  
HETATM   12  C   UNL     1      -8.056   9.146  64.509  1.00  0.00    -0.139 A  
BRANCH   9  13
HETATM   13  C   UNL     1      -5.733  10.872  66.937  1.00  0.00    -0.067 C  
HETATM   14  O   UNL     1      -5.150  11.843  66.487  1.00  0.00    -0.305 OA 
BRANCH  13  15
HETATM   15  O   UNL     1      -5.304  10.091  67.964  1.00  0.00    -0.039 OA 
BRANCH  15  16
HETATM   16  C   UNL     1      -5.541   8.681  67.812  1.00  0.00    -0.035 C  
BRANCH  16  17
HETATM   17  C   UNL     1      -5.928   8.092  69.123  1.00  0.00    -0.038 C  
HETATM   18  O   UNL     1      -6.394   7.771  71.285  1.00  0.00    -0.035 OA 
HETATM   19  C   UNL     1      -5.963   8.647  70.315  1.00  0.00    -0.030 C  
HETATM   20  O   UNL     1      -6.306   6.761  69.190  1.00  0.00    -0.032 OA 
HETATM   21  C   UNL     1      -5.725  10.037  70.718  1.00  0.00    -0.084 C  
HETATM   22  C   UNL     1      -6.611   6.626  70.540  1.00  0.00    -0.052 C  
HETATM   23  O   UNL     1      -7.026   5.585  71.035  1.00  0.00    -0.057 OA 
ENDBRANCH  16  17
ENDBRANCH  15  16
ENDBRANCH  13  15
ENDBRANCH   9  13
BRANCH   8  24
HETATM   24  C   UNL     1      -8.151  12.191  68.881  1.00  0.00     0.132 C  
BRANCH  24  25
HETATM   25  C   UNL     1      -8.207  13.634  68.433  1.00  0.00    -0.146 A  
HETATM   26  C   UNL     1      -7.463  14.158  67.376  1.00  0.00    -0.155 A  
HETATM   27  C   UNL     1      -9.160  15.858  68.782  1.00  0.00    -0.219 A  
HETATM   28  C   UNL     1      -8.407  16.405  67.731  1.00  0.00    -0.172 A  
HETATM   29  C   UNL     1      -9.072  14.500  69.117  1.00  0.00     0.025 A  
HETATM   30  C   UNL     1      -7.613  15.498  67.000  1.00  0.00    -0.228 A  
BRANCH  28  31
HETATM   31  C   UNL     1      -8.504  17.852  67.354  1.00  0.00    -0.236 A  
HETATM   32  C   UNL     1      -7.863  20.173  67.907  1.00  0.00    -0.277 A  
HETATM   33  C   UNL     1      -7.650  18.792  67.985  1.00  0.00    -0.283 A  
HETATM   34  C   UNL     1      -8.896  20.669  67.131  1.00  0.00    -0.335 A  
HETATM   35  C   UNL     1      -9.687  19.783  66.407  1.00  0.00    -0.530 A  
HETATM   36  C   UNL     1      -9.489  18.389  66.494  1.00  0.00    -0.317 A  
BRANCH  36  37
HETATM   37  C   UNL     1     -10.355  17.586  65.610  1.00  0.00    -0.134 C  
HETATM   38  N   UNL     1     -11.270  18.064  64.832  1.00  0.00    -0.332 NA 
HETATM   39  O   UNL     1     -11.823  16.925  64.167  1.00  0.00    -0.729 OA 
HETATM   40  C   UNL     1     -11.137  15.835  64.635  1.00  0.00    -0.361 C  
HETATM   41  N   UNL     1     -10.218  16.258  65.516  1.00  0.00    -0.529 NA 
HETATM   42  O   UNL     1     -11.345  14.672  64.318  1.00  0.00    -0.248 OA 
ENDBRANCH  36  37
ENDBRANCH  28  31
ENDBRANCH  24  25
ENDBRANCH   8  24
ENDBRANCH   3   4
ENDBRANCH   2   3
TORSDOF 10
ENDMDL
MODEL      210
REMARK 921   NORMALIZED FREE ENERGY PREDICTED BY IDOCK:   -3.36 KCAL/MOL
REMARK 922        TOTAL FREE ENERGY PREDICTED BY IDOCK:   -8.24 KCAL/MOL
REMARK 923 INTER-LIGAND FREE ENERGY PREDICTED BY IDOCK:   -7.01 KCAL/MOL
REMARK 924 INTRA-LIGAND FREE ENERGY PREDICTED BY IDOCK:   -1.23 KCAL/MOL
REMARK 927      BINDING AFFINITY PREDICTED BY RF-SCORE:    0.00 PKD
ROOT
HETATM    1  C   UNL     1      -5.165  10.453  66.385  1.00  0.00    -0.047 C  
HETATM    2  C   UNL     1      -6.242   9.582  65.763  1.00  0.00    -0.064 C  
ENDROOT
BRANCH   2   3
HETATM    3  O   UNL     1      -5.778   8.232  65.690  1.00  0.00    -0.039 OA 
BRANCH   3   4
HETATM    4  C   UNL     1      -6.297   7.428  66.619  1.00  0.00    -0.045 A  
HETATM    5  N   UNL     1      -5.632   6.902  67.615  1.00  0.00    -0.019 NA 
HETATM    6  C   UNL     1      -6.554   6.173  68.312  1.00  0.00    -0.058 A  
HETATM    7  C   UNL     1      -7.827   6.236  67.728  1.00  0.00    -0.106 A  
HETATM    8  N   UNL     1      -7.632   7.094  66.658  1.00  0.00    -0.091 NA 
HETATM    9  C   UNL     1      -8.913   5.509  68.279  1.00  0.00    -0.109 A  
HETATM   10  C   UNL     1      -8.673   4.784  69.466  1.00  0.00    -0.111 A  
HETATM   11  C   UNL     1      -6.352   5.445  69.495  1.00  0.00    -0.030 A  
HETATM   12  C   UNL     1      -7.421   4.764  70.073  1.00  0.00    -0.055 A  
BRANCH   9  13
HETATM   13  C   UNL     1     -10.296   5.538  67.748  1.00  0.00    -0.189 C  
HETATM   14  O   UNL     1     -10.727   4.732  66.943  1.00  0.00    -0.096 OA 
BRANCH  13  15
HETATM   15  O   UNL     1     -10.968   6.619  68.230  1.00  0.00    -0.262 OA 
BRANCH  15  16
HETATM   16  C   UNL     1     -11.613   6.432  69.500  1.00  0.00    -0.233 C  
BRANCH  16  17
HETATM   17  C   UNL     1     -11.117   7.446  70.471  1.00  0.00    -0.261 C  
HETATM   18  O   UNL     1     -10.965   9.012  72.058  1.00  0.00    -0.358 OA 
HETATM   19  C   UNL     1     -11.789   8.203  71.311  1.00  0.00    -0.287 C  
HETATM   20  O   UNL     1      -9.759   7.706  70.554  1.00  0.00    -0.181 OA 
HETATM   21  C   UNL     1     -13.222   8.223  71.627  1.00  0.00    -0.349 C  
HETATM   22  C   UNL     1      -9.720   8.656  71.569  1.00  0.00    -0.263 C  
HETATM   23  O   UNL     1      -8.680   9.148  71.991  1.00  0.00    -0.320 OA 
ENDBRANCH  16  17
ENDBRANCH  15  16
ENDBRANCH  13  15
ENDBRANCH   9  13
BRANCH   8  24
HETATM   24  C   UNL     1      -8.629   7.754  65.830  1.00  0.00    -0.153 C  
BRANCH  24  25
HETATM   25  C   UNL     1      -9.112   9.097  66.330  1.00  0.00    -0.222 A  
HETATM   26  C   UNL     1      -9.945   9.950  65.607  1.00  0.00    -0.353 A  
HETATM   27  C   UNL     1      -9.086  10.749  68.131  1.00  0.00    -0.151 A  
HETATM   28  C   UNL     1      -9.911  11.627  67.411  1.00  0.00    -0.200 A  
HETATM   29  C   UNL     1      -8.705   9.506  67.607  1.00  0.00    -0.122 A  
HETATM   30  C   UNL     1     -10.382  11.157  66.168  1.00  0.00    -0.302 A  
BRANCH  28  31
HETATM   31  C   UNL     1     -10.338  12.952  67.966  1.00  0.00    -0.230 A  
HETATM   32  C   UNL     1     -12.211  14.515  68.359  1.00  0.00    -0.154 A  
HETATM   33  C   UNL     1     -11.721  13.225  68.124  1.00  0.00    -0.397 A  
HETATM   34  C   UNL     1     -11.328  15.569  68.522  1.00  0.00    -0.356 A  
HETATM   35  C   UNL     1      -9.960  15.321  68.486  1.00  0.00    -0.222 A  
HETATM   36  C   UNL     1      -9.459  14.027  68.232  1.00  0.00    -0.216 A  
BRANCH  36  37
HETATM   37  C   UNL     1      -7.991  13.909  68.302  1.00  0.00    -0.148 C  
HETATM   38  N   UNL     1      -7.194  13.943  67.286  1.00  0.00    -0.073 NA 
HETATM   39  O   UNL     1      -5.881  13.811  67.838  1.00  0.00    -0.127 OA 
HETATM   40  C   UNL     1      -6.043  13.718  69.196  1.00  0.00    -0.095 C  
HETATM   41  N   UNL     1      -7.353  13.797  69.474  1.00  0.00     0.169 NA 
HETATM   42  O   UNL     1      -5.145  13.566  70.013  1.00  0.00    -0.083 OA 
ENDBRANCH  36  37
ENDBRANCH  28  31
ENDBRANCH  24  25
ENDBRANCH   8  24
ENDBRANCH   3   4
ENDBRANCH   2   3
TORSDOF 10
ENDMDL
MODEL      211
REMARK 921   NORMALIZED FREE ENERGY PREDICTED BY IDOCK:   -3.33 KCAL/MOL
REMARK 922        TOTAL FREE ENERGY PREDICTED BY IDOCK:   -8.20 KCAL/MOL
REMARK 923 INTER-LIGAND FREE ENERGY PREDICTED BY IDOCK:   -6.34 KCAL/MOL
REMARK 924 INTRA-LIGAND FREE ENERGY PREDICTED BY IDOCK:   -1.86 KCAL/MOL
REMARK 927      BINDING AFFINITY PREDICTED BY RF-SCORE:    0.00 PKD
ROOT
HETATM    1  C   UNL     1     -11.976  13.861  68.058  1.00  0.00    -0.390 C  
HETATM    2  C   UNL     1     -12.008  12.470  68.667  1.00  0.00    -0.224 C  
ENDROOT
BRANCH   2   3
HETATM    3  O   UNL     1     -10.677  12.062  68.990  1.00  0.00    -0.206 OA 
BRANCH   3   4
HETATM    4  C   UNL     1     -10.099  11.305  68.057  1.00  0.00    -0.177 A  
HETATM    5  N   UNL     1      -9.238  11.730  67.169  1.00  0.00    -0.175 NA 
HETATM    6  C   UNL     1      -8.903  10.624  66.439  1.00  0.00    -0.154 A  
HETATM    7  C   UNL     1      -9.585   9.479  66.875  1.00  0.00    -0.165 A  
HETATM    8  N   UNL     1     -10.317   9.949  67.953  1.00  0.00    -0.197 NA 
HETATM    9  C   UNL     1      -9.408   8.236  66.215  1.00  0.00    -0.267 A  
HETATM   10  C   UNL     1      -8.475   8.191  65.157  1.00  0.00    -0.134 A  
HETATM   11  C   UNL     1      -7.979  10.542  65.386  1.00  0.00    -0.129 A  
HETATM   12  C   UNL     1      -7.761   9.317  64.760  1.00  0.00    -0.111 A  
BRANCH   9  13
HETATM   13  C   UNL     1     -10.063   6.971  66.622  1.00  0.00    -0.148 C  
HETATM   14  O   UNL     1     -11.269   6.840  66.733  1.00  0.00    -0.312 OA 
BRANCH  13  15
HETATM   15  O   UNL     1      -9.129   6.026  66.915  1.00  0.00    -0.120 OA 
BRANCH  15  16
HETATM   16  C   UNL     1      -9.443   4.690  66.491  1.00  0.00    -0.166 C  
BRANCH  16  17
HETATM   17  C   UNL     1      -8.928   4.465  65.113  1.00  0.00    -0.143 C  
HETATM   18  O   UNL     1      -8.720   3.924  62.954  1.00  0.00    -0.090 OA 
HETATM   19  C   UNL     1      -9.533   3.952  64.063  1.00  0.00    -0.157 C  
HETATM   20  O   UNL     1      -7.619   4.802  64.808  1.00  0.00    -0.074 OA 
HETATM   21  C   UNL     1     -10.927   3.530  63.889  1.00  0.00    -0.060 C  
HETATM   22  C   UNL     1      -7.555   4.476  63.458  1.00  0.00    -0.059 C  
HETATM   23  O   UNL     1      -6.556   4.649  62.770  1.00  0.00    -0.025 OA 
ENDBRANCH  16  17
ENDBRANCH  15  16
ENDBRANCH  13  15
ENDBRANCH   9  13
BRANCH   8  24
HETATM   24  C   UNL     1     -11.018   9.188  68.975  1.00  0.00    -0.008 C  
BRANCH  24  25
HETATM   25  C   UNL     1     -10.142   8.471  69.976  1.00  0.00    -0.195 A  
HETATM   26  C   UNL     1      -9.958   7.090  70.012  1.00  0.00    -0.188 A  
HETATM   27  C   UNL     1      -8.650   8.657  71.904  1.00  0.00    -0.231 A  
HETATM   28  C   UNL     1      -8.466   7.266  71.964  1.00  0.00    -0.116 A  
HETATM   29  C   UNL     1      -9.459   9.247  70.924  1.00  0.00    -0.330 A  
HETATM   30  C   UNL     1      -9.089   6.514  70.947  1.00  0.00    -0.154 A  
BRANCH  28  31
HETATM   31  C   UNL     1      -7.591   6.625  72.997  1.00  0.00    -0.092 A  
HETATM   32  C   UNL     1      -5.330   6.486  73.984  1.00  0.00    -0.045 A  
HETATM   33  C   UNL     1      -6.309   7.173  73.258  1.00  0.00    -0.064 A  
HETATM   34  C   UNL     1      -5.623   5.253  74.542  1.00  0.00    -0.038 A  
HETATM   35  C   UNL     1      -6.905   4.732  74.402  1.00  0.00    -0.071 A  
HETATM   36  C   UNL     1      -7.892   5.411  73.658  1.00  0.00    -0.102 A  
BRANCH  36  37
HETATM   37  C   UNL     1      -9.221   4.772  73.666  1.00  0.00    -0.121 C  
HETATM   38  N   UNL     1     -10.318   5.343  74.040  1.00  0.00    -0.250 NA 
HETATM   39  O   UNL     1     -11.333   4.352  73.857  1.00  0.00    -0.188 OA 
HETATM   40  C   UNL     1     -10.703   3.242  73.359  1.00  0.00    -0.202 C  
HETATM   41  N   UNL     1      -9.397   3.519  73.228  1.00  0.00    -0.100 NA 
HETATM   42  O   UNL     1     -11.239   2.174  73.099  1.00  0.00    -0.155 OA 
ENDBRANCH  36  37
ENDBRANCH  28  31
ENDBRANCH  24  25
ENDBRANCH   8  24
ENDBRANCH   3   4
ENDBRANCH   2   3
TORSDOF 10
ENDMDL
MODEL      212
REMARK 921   NORMALIZED FREE ENERGY PREDICTED BY IDOCK:   -3.33 KCAL/MOL
REMARK 922        TOTAL FREE ENERGY PREDICTED BY IDOCK:   -8.20 KCAL/MOL
REMARK 923 INTER-LIGAND FREE ENERGY PREDICTED BY IDOCK:   -7.15 KCAL/MOL
REMARK 924 INTRA-LIGAND FREE ENERGY PREDICTED BY IDOCK:   -1.05 KCAL/MOL
REMARK 927      BINDING AFFINITY PREDICTED BY RF-SCORE:    0.00 PKD
ROOT
HETATM    1  C   UNL     1     -12.496   8.472  72.538  1.00  0.00    -0.358 C  
HETATM    2  C   UNL     1     -11.979   7.457  71.534  1.00  0.00    -0.307 C  
ENDROOT
BRANCH   2   3
HETATM    3  O   UNL     1     -10.938   8.050  70.753  1.00  0.00    -0.239 OA 
BRANCH   3   4
HETATM    4  C   UNL     1      -9.962   7.205  70.419  1.00  0.00    -0.187 A  
HETATM    5  N   UNL     1      -9.468   6.279  71.199  1.00  0.00    -0.170 NA 
HETATM    6  C   UNL     1      -8.515   5.651  70.447  1.00  0.00    -0.127 A  
HETATM    7  C   UNL     1      -8.403   6.209  69.166  1.00  0.00    -0.116 A  
HETATM    8  N   UNL     1      -9.387   7.184  69.168  1.00  0.00    -0.142 NA 
HETATM    9  C   UNL     1      -7.436   5.725  68.248  1.00  0.00    -0.081 A  
HETATM   10  C   UNL     1      -6.650   4.625  68.654  1.00  0.00    -0.045 A  
HETATM   11  C   UNL     1      -7.720   4.555  70.816  1.00  0.00    -0.053 A  
HETATM   12  C   UNL     1      -6.799   4.039  69.907  1.00  0.00    -0.041 A  
BRANCH   9  13
HETATM   13  C   UNL     1      -7.264   6.232  66.867  1.00  0.00    -0.074 C  
HETATM   14  O   UNL     1      -7.001   5.519  65.914  1.00  0.00    -0.063 OA 
BRANCH  13  15
HETATM   15  O   UNL     1      -7.369   7.588  66.842  1.00  0.00    -0.088 OA 
BRANCH  15  16
HETATM   16  C   UNL     1      -6.432   8.268  65.991  1.00  0.00    -0.049 C  
BRANCH  16  17
HETATM   17  C   UNL     1      -7.145   8.849  64.821  1.00  0.00    -0.088 C  
HETATM   18  O   UNL     1      -7.935   9.269  62.773  1.00  0.00    -0.124 OA 
HETATM   19  C   UNL     1      -7.122   8.484  63.557  1.00  0.00    -0.090 C  
HETATM   20  O   UNL     1      -7.963   9.953  64.998  1.00  0.00    -0.125 OA 
HETATM   21  C   UNL     1      -6.467   7.339  62.916  1.00  0.00    -0.053 C  
HETATM   22  C   UNL     1      -8.448  10.150  63.709  1.00  0.00    -0.181 C  
HETATM   23  O   UNL     1      -9.249  11.029  63.418  1.00  0.00    -0.229 OA 
ENDBRANCH  16  17
ENDBRANCH  15  16
ENDBRANCH  13  15
ENDBRANCH   9  13
BRANCH   8  24
HETATM   24  C   UNL     1      -9.933   7.925  68.042  1.00  0.00    -0.177 C  
BRANCH  24  25
HETATM   25  C   UNL     1     -10.232   9.384  68.300  1.00  0.00    -0.229 A  
HETATM   26  C   UNL     1     -11.509   9.895  68.527  1.00  0.00     0.057 A  
HETATM   27  C   UNL     1      -9.351  11.652  68.528  1.00  0.00    -0.169 A  
HETATM   28  C   UNL     1     -10.631  12.187  68.743  1.00  0.00    -0.230 A  
HETATM   29  C   UNL     1      -9.154  10.280  68.324  1.00  0.00    -0.139 A  
HETATM   30  C   UNL     1     -11.689  11.256  68.804  1.00  0.00    -0.405 A  
BRANCH  28  31
HETATM   31  C   UNL     1     -10.852  13.650  68.977  1.00  0.00    -0.237 A  
HETATM   32  C   UNL     1     -11.235  15.435  70.642  1.00  0.00    -0.370 A  
HETATM   33  C   UNL     1     -10.769  14.161  70.298  1.00  0.00     0.532 A  
HETATM   34  C   UNL     1     -11.732  16.276  69.661  1.00  0.00    -0.081 A  
HETATM   35  C   UNL     1     -11.726  15.853  68.336  1.00  0.00    -0.246 A  
HETATM   36  C   UNL     1     -11.275  14.564  67.984  1.00  0.00    -0.308 A  
BRANCH  36  37
HETATM   37  C   UNL     1     -11.258  14.290  66.535  1.00  0.00    -0.332 C  
HETATM   38  N   UNL     1     -10.660  15.016  65.649  1.00  0.00    -0.322 NA 
HETATM   39  O   UNL     1     -10.902  14.355  64.403  1.00  0.00    -0.310 OA 
HETATM   40  C   UNL     1     -11.647  13.243  64.696  1.00  0.00    -0.350 C  
HETATM   41  N   UNL     1     -11.848  13.203  66.022  1.00  0.00    -0.386 NA 
HETATM   42  O   UNL     1     -12.076  12.437  63.882  1.00  0.00    -0.418 OA 
ENDBRANCH  36  37
ENDBRANCH  28  31
ENDBRANCH  24  25
ENDBRANCH   8  24
ENDBRANCH   3   4
ENDBRANCH   2   3
TORSDOF 10
ENDMDL
MODEL      213
REMARK 921   NORMALIZED FREE ENERGY PREDICTED BY IDOCK:   -3.31 KCAL/MOL
REMARK 922        TOTAL FREE ENERGY PREDICTED BY IDOCK:   -8.16 KCAL/MOL
REMARK 923 INTER-LIGAND FREE ENERGY PREDICTED BY IDOCK:   -8.10 KCAL/MOL
REMARK 924 INTRA-LIGAND FREE ENERGY PREDICTED BY IDOCK:   -0.06 KCAL/MOL
REMARK 927      BINDING AFFINITY PREDICTED BY RF-SCORE:    0.00 PKD
ROOT
HETATM    1  C   UNL     1     -10.760   7.777  67.172  1.00  0.00    -0.337 C  
HETATM    2  C   UNL     1     -10.769   9.245  66.785  1.00  0.00    -0.050 C  
ENDROOT
BRANCH   2   3
HETATM    3  O   UNL     1      -9.424   9.701  66.621  1.00  0.00    -0.155 OA 
BRANCH   3   4
HETATM    4  C   UNL     1      -8.508   8.903  67.171  1.00  0.00    -0.106 A  
HETATM    5  N   UNL     1      -7.823   7.991  66.530  1.00  0.00    -0.096 NA 
HETATM    6  C   UNL     1      -7.003   7.436  67.472  1.00  0.00    -0.079 A  
HETATM    7  C   UNL     1      -7.191   8.008  68.738  1.00  0.00    -0.083 A  
HETATM    8  N   UNL     1      -8.141   8.986  68.495  1.00  0.00    -0.107 NA 
HETATM    9  C   UNL     1      -6.463   7.536  69.860  1.00  0.00    -0.034 A  
HETATM   10  C   UNL     1      -5.505   6.524  69.634  1.00  0.00    -0.014 A  
HETATM   11  C   UNL     1      -6.038   6.433  67.282  1.00  0.00    -0.025 A  
HETATM   12  C   UNL     1      -5.284   5.993  68.367  1.00  0.00    -0.004 A  
BRANCH   9  13
HETATM   13  C   UNL     1      -6.574   8.097  71.227  1.00  0.00    -0.045 C  
HETATM   14  O   UNL     1      -5.686   8.731  71.770  1.00  0.00    -0.044 OA 
BRANCH  13  15
HETATM   15  O   UNL     1      -7.759   7.741  71.792  1.00  0.00    -0.081 OA 
BRANCH  15  16
HETATM   16  C   UNL     1      -7.710   6.604  72.670  1.00  0.00    -0.101 C  
BRANCH  16  17
HETATM   17  C   UNL     1      -9.089   6.101  72.919  1.00  0.00    -0.131 C  
HETATM   18  O   UNL     1     -11.302   5.929  73.186  1.00  0.00    -0.223 OA 
HETATM   19  C   UNL     1     -10.232   6.754  72.927  1.00  0.00    -0.201 C  
HETATM   20  O   UNL     1      -9.287   4.762  73.211  1.00  0.00    -0.120 OA 
HETATM   21  C   UNL     1     -10.522   8.154  72.601  1.00  0.00    -0.401 C  
HETATM   22  C   UNL     1     -10.671   4.706  73.336  1.00  0.00    -0.253 C  
HETATM   23  O   UNL     1     -11.285   3.672  73.569  1.00  0.00    -0.234 OA 
ENDBRANCH  16  17
ENDBRANCH  15  16
ENDBRANCH  13  15
ENDBRANCH   9  13
BRANCH   8  24
HETATM   24  C   UNL     1      -8.555  10.083  69.355  1.00  0.00    -0.175 C  
BRANCH  24  25
HETATM   25  C   UNL     1      -8.648  11.438  68.691  1.00  0.00    -0.126 A  
HETATM   26  C   UNL     1      -7.552  12.150  68.203  1.00  0.00    -0.125 A  
HETATM   27  C   UNL     1     -10.087  13.276  67.967  1.00  0.00    -0.235 A  
HETATM   28  C   UNL     1      -8.994  14.013  67.485  1.00  0.00    -0.195 A  
HETATM   29  C   UNL     1      -9.919  12.010  68.546  1.00  0.00    -0.188 A  
HETATM   30  C   UNL     1      -7.737  13.380  67.560  1.00  0.00    -0.182 A  
BRANCH  28  31
HETATM   31  C   UNL     1      -9.163  15.360  66.850  1.00  0.00    -0.254 A  
HETATM   32  C   UNL     1      -8.534  17.750  66.890  1.00  0.00    -0.260 A  
HETATM   33  C   UNL     1      -8.279  16.411  67.209  1.00  0.00    -0.193 A  
HETATM   34  C   UNL     1      -9.646  18.079  66.134  1.00  0.00    -0.184 A  
HETATM   35  C   UNL     1     -10.477  17.065  65.669  1.00  0.00    -0.229 A  
HETATM   36  C   UNL     1     -10.235  15.715  66.000  1.00  0.00    -0.354 A  
BRANCH  36  37
HETATM   37  C   UNL     1     -11.156  14.751  65.370  1.00  0.00    -0.357 C  
HETATM   38  N   UNL     1     -12.423  14.669  65.608  1.00  0.00    -0.188 NA 
HETATM   39  O   UNL     1     -12.893  13.616  64.762  1.00  0.00    -0.680 OA 
HETATM   40  C   UNL     1     -11.802  13.166  64.066  1.00  0.00    -0.453 C  
HETATM   41  N   UNL     1     -10.734  13.887  64.438  1.00  0.00    -0.352 NA 
HETATM   42  O   UNL     1     -11.800  12.246  63.259  1.00  0.00    -0.448 OA 
ENDBRANCH  36  37
ENDBRANCH  28  31
ENDBRANCH  24  25
ENDBRANCH   8  24
ENDBRANCH   3   4
ENDBRANCH   2   3
TORSDOF 10
ENDMDL
MODEL      214
REMARK 921   NORMALIZED FREE ENERGY PREDICTED BY IDOCK:   -3.22 KCAL/MOL
REMARK 922        TOTAL FREE ENERGY PREDICTED BY IDOCK:   -8.02 KCAL/MOL
REMARK 923 INTER-LIGAND FREE ENERGY PREDICTED BY IDOCK:   -6.08 KCAL/MOL
REMARK 924 INTRA-LIGAND FREE ENERGY PREDICTED BY IDOCK:   -1.95 KCAL/MOL
REMARK 927      BINDING AFFINITY PREDICTED BY RF-SCORE:    0.00 PKD
ROOT
HETATM    1  C   UNL     1      -5.715  18.623  67.821  1.00  0.00    -0.174 C  
HETATM    2  C   UNL     1      -6.090  17.353  68.563  1.00  0.00    -0.167 C  
ENDROOT
BRANCH   2   3
HETATM    3  O   UNL     1      -6.138  16.261  67.642  1.00  0.00    -0.124 OA 
BRANCH   3   4
HETATM    4  C   UNL     1      -7.370  15.932  67.252  1.00  0.00    -0.216 A  
HETATM    5  N   UNL     1      -7.988  16.430  66.212  1.00  0.00    -0.296 NA 
HETATM    6  C   UNL     1      -9.201  15.802  66.186  1.00  0.00    -0.350 A  
HETATM    7  C   UNL     1      -9.350  14.897  67.246  1.00  0.00    -0.204 A  
HETATM    8  N   UNL     1      -8.126  14.975  67.890  1.00  0.00    -0.129 NA 
HETATM    9  C   UNL     1     -10.560  14.178  67.420  1.00  0.00    -0.279 A  
HETATM   10  C   UNL     1     -11.569  14.361  66.449  1.00  0.00    -0.383 A  
HETATM   11  C   UNL     1     -10.224  15.957  65.236  1.00  0.00    -0.284 A  
HETATM   12  C   UNL     1     -11.399  15.221  65.369  1.00  0.00    -0.253 A  
BRANCH   9  13
HETATM   13  C   UNL     1     -10.797  13.182  68.491  1.00  0.00    -0.262 C  
HETATM   14  O   UNL     1     -11.293  13.456  69.569  1.00  0.00    -0.247 OA 
BRANCH  13  15
HETATM   15  O   UNL     1     -10.319  11.963  68.121  1.00  0.00    -0.187 OA 
BRANCH  15  16
HETATM   16  C   UNL     1     -11.260  10.879  68.197  1.00  0.00    -0.301 C  
BRANCH  16  17
HETATM   17  C   UNL     1     -10.617   9.622  67.726  1.00  0.00    -0.264 C  
HETATM   18  O   UNL     1      -9.741   7.570  67.597  1.00  0.00    -0.139 OA 
HETATM   19  C   UNL     1     -10.322   8.528  68.395  1.00  0.00    -0.202 C  
HETATM   20  O   UNL     1     -10.223   9.509  66.402  1.00  0.00    -0.264 OA 
HETATM   21  C   UNL     1     -10.615   8.163  69.785  1.00  0.00    -0.231 C  
HETATM   22  C   UNL     1      -9.719   8.213  66.372  1.00  0.00    -0.205 C  
HETATM   23  O   UNL     1      -9.280   7.685  65.358  1.00  0.00     0.148 OA 
ENDBRANCH  16  17
ENDBRANCH  15  16
ENDBRANCH  13  15
ENDBRANCH   9  13
BRANCH   8  24
HETATM   24  C   UNL     1      -7.576  14.089  68.903  1.00  0.00    -0.080 C  
BRANCH  24  25
HETATM   25  C   UNL     1      -7.109  12.739  68.410  1.00  0.00    -0.102 A  
HETATM   26  C   UNL     1      -6.089  12.553  67.477  1.00  0.00    -0.154 A  
HETATM   27  C   UNL     1      -7.378  10.311  68.506  1.00  0.00    -0.082 A  
HETATM   28  C   UNL     1      -6.365  10.106  67.556  1.00  0.00    -0.059 A  
HETATM   29  C   UNL     1      -7.734  11.598  68.933  1.00  0.00    -0.065 A  
HETATM   30  C   UNL     1      -5.689  11.262  67.112  1.00  0.00    -0.077 A  
BRANCH  28  31
HETATM   31  C   UNL     1      -5.965   8.735  67.103  1.00  0.00    -0.053 A  
HETATM   32  C   UNL     1      -5.538   7.244  65.179  1.00  0.00    -0.033 A  
HETATM   33  C   UNL     1      -5.641   8.523  65.738  1.00  0.00    -0.042 A  
HETATM   34  C   UNL     1      -5.681   6.126  65.984  1.00  0.00    -0.020 A  
HETATM   35  C   UNL     1      -5.889   6.294  67.349  1.00  0.00    -0.016 A  
HETATM   36  C   UNL     1      -6.011   7.579  67.916  1.00  0.00    -0.039 A  
BRANCH  36  37
HETATM   37  C   UNL     1      -6.151   7.596  69.384  1.00  0.00    -0.031 C  
HETATM   38  N   UNL     1      -7.083   6.994  70.048  1.00  0.00    -0.069 NA 
HETATM   39  O   UNL     1      -6.801   7.276  71.422  1.00  0.00    -0.051 OA 
HETATM   40  C   UNL     1      -5.667   8.047  71.431  1.00  0.00    -0.034 C  
HETATM   41  N   UNL     1      -5.264   8.224  70.165  1.00  0.00    -0.023 NA 
HETATM   42  O   UNL     1      -5.130   8.511  72.427  1.00  0.00    -0.035 OA 
ENDBRANCH  36  37
ENDBRANCH  28  31
ENDBRANCH  24  25
ENDBRANCH   8  24
ENDBRANCH   3   4
ENDBRANCH   2   3
TORSDOF 10
ENDMDL
MODEL      215
REMARK 921   NORMALIZED FREE ENERGY PREDICTED BY IDOCK:   -3.15 KCAL/MOL
REMARK 922        TOTAL FREE ENERGY PREDICTED BY IDOCK:   -7.91 KCAL/MOL
REMARK 923 INTER-LIGAND FREE ENERGY PREDICTED BY IDOCK:   -7.39 KCAL/MOL
REMARK 924 INTRA-LIGAND FREE ENERGY PREDICTED BY IDOCK:   -0.52 KCAL/MOL
REMARK 927      BINDING AFFINITY PREDICTED BY RF-SCORE:    0.00 PKD
ROOT
HETATM    1  C   UNL     1     -14.336   7.628  71.579  1.00  0.00    -0.589 C  
HETATM    2  C   UNL     1     -13.009   6.990  71.208  1.00  0.00    -0.297 C  
ENDROOT
BRANCH   2   3
HETATM    3  O   UNL     1     -12.056   8.013  70.911  1.00  0.00    -0.263 OA 
BRANCH   3   4
HETATM    4  C   UNL     1     -10.786   7.618  71.010  1.00  0.00    -0.242 A  
HETATM    5  N   UNL     1     -10.217   7.183  72.104  1.00  0.00    -0.185 NA 
HETATM    6  C   UNL     1      -8.935   6.880  71.742  1.00  0.00    -0.138 A  
HETATM    7  C   UNL     1      -8.694   7.145  70.386  1.00  0.00    -0.150 A  
HETATM    8  N   UNL     1      -9.929   7.580  69.934  1.00  0.00    -0.187 NA 
HETATM    9  C   UNL     1      -7.407   6.938  69.826  1.00  0.00    -0.085 A  
HETATM   10  C   UNL     1      -6.413   6.395  70.668  1.00  0.00    -0.044 A  
HETATM   11  C   UNL     1      -7.923   6.336  72.549  1.00  0.00    -0.103 A  
HETATM   12  C   UNL     1      -6.669   6.085  72.000  1.00  0.00    -0.064 A  
BRANCH   9  13
HETATM   13  C   UNL     1      -7.068   7.163  68.401  1.00  0.00    -0.085 C  
HETATM   14  O   UNL     1      -6.428   8.120  68.003  1.00  0.00    -0.054 OA 
BRANCH  13  15
HETATM   15  O   UNL     1      -7.629   6.200  67.622  1.00  0.00    -0.093 OA 
BRANCH  15  16
HETATM   16  C   UNL     1      -6.800   5.057  67.353  1.00  0.00    -0.056 C  
BRANCH  16  17
HETATM   17  C   UNL     1      -7.564   4.056  66.560  1.00  0.00    -0.088 C  
HETATM   18  O   UNL     1      -8.972   2.447  65.909  1.00  0.00    -0.129 OA 
HETATM   19  C   UNL     1      -8.486   3.203  66.951  1.00  0.00    -0.103 C  
HETATM   20  O   UNL     1      -7.317   3.925  65.203  1.00  0.00    -0.066 OA 
HETATM   21  C   UNL     1      -9.119   3.031  68.262  1.00  0.00    -0.215 C  
HETATM   22  C   UNL     1      -8.234   2.941  64.848  1.00  0.00    -0.087 C  
HETATM   23  O   UNL     1      -8.374   2.535  63.701  1.00  0.00    -0.084 OA 
ENDBRANCH  16  17
ENDBRANCH  15  16
ENDBRANCH  13  15
ENDBRANCH   9  13
BRANCH   8  24
HETATM   24  C   UNL     1     -10.383   7.756  68.564  1.00  0.00    -0.197 C  
BRANCH  24  25
HETATM   25  C   UNL     1     -10.452   9.185  68.074  1.00  0.00    -0.276 A  
HETATM   26  C   UNL     1     -11.488  10.069  68.375  1.00  0.00    -0.011 A  
HETATM   27  C   UNL     1      -9.403  10.959  66.759  1.00  0.00    -0.185 A  
HETATM   28  C   UNL     1     -10.445  11.857  67.038  1.00  0.00    -0.253 A  
HETATM   29  C   UNL     1      -9.400   9.656  67.276  1.00  0.00    -0.163 A  
HETATM   30  C   UNL     1     -11.446  11.391  67.916  1.00  0.00    -0.361 A  
BRANCH  28  31
HETATM   31  C   UNL     1     -10.453  13.256  66.504  1.00  0.00    -0.282 A  
HETATM   32  C   UNL     1     -11.560  14.888  65.015  1.00  0.00    -0.357 A  
HETATM   33  C   UNL     1     -11.583  13.717  65.781  1.00  0.00    -0.342 A  
HETATM   34  C   UNL     1     -10.427  15.683  65.003  1.00  0.00    -0.364 A  
HETATM   35  C   UNL     1      -9.336  15.323  65.788  1.00  0.00    -0.233 A  
HETATM   36  C   UNL     1      -9.346  14.136  66.550  1.00  0.00    -0.285 A  
BRANCH  36  37
HETATM   37  C   UNL     1      -8.150  13.930  67.389  1.00  0.00    -0.178 C  
HETATM   38  N   UNL     1      -7.407  14.873  67.866  1.00  0.00    -0.131 NA 
HETATM   39  O   UNL     1      -6.394  14.202  68.620  1.00  0.00    -0.080 OA 
HETATM   40  C   UNL     1      -6.661  12.862  68.515  1.00  0.00    -0.091 C  
HETATM   41  N   UNL     1      -7.761  12.706  67.764  1.00  0.00    -0.131 NA 
HETATM   42  O   UNL     1      -5.994  11.961  69.006  1.00  0.00    -0.059 OA 
ENDBRANCH  36  37
ENDBRANCH  28  31
ENDBRANCH  24  25
ENDBRANCH   8  24
ENDBRANCH   3   4
ENDBRANCH   2   3
TORSDOF 10
ENDMDL
MODEL      216
REMARK 921   NORMALIZED FREE ENERGY PREDICTED BY IDOCK:   -3.10 KCAL/MOL
REMARK 922        TOTAL FREE ENERGY PREDICTED BY IDOCK:   -7.84 KCAL/MOL
REMARK 923 INTER-LIGAND FREE ENERGY PREDICTED BY IDOCK:   -6.39 KCAL/MOL
REMARK 924 INTRA-LIGAND FREE ENERGY PREDICTED BY IDOCK:   -1.45 KCAL/MOL
REMARK 927      BINDING AFFINITY PREDICTED BY RF-SCORE:    0.00 PKD
ROOT
HETATM    1  C   UNL     1     -12.868  12.016  63.483  1.00  0.00    -0.472 C  
HETATM    2  C   UNL     1     -11.367  11.830  63.622  1.00  0.00    -0.436 C  
ENDROOT
BRANCH   2   3
HETATM    3  O   UNL     1     -11.082  11.172  64.859  1.00  0.00    -0.187 OA 
BRANCH   3   4
HETATM    4  C   UNL     1     -10.318  11.883  65.689  1.00  0.00    -0.247 A  
HETATM    5  N   UNL     1     -10.721  12.915  66.384  1.00  0.00    -0.268 NA 
HETATM    6  C   UNL     1      -9.626  13.313  67.097  1.00  0.00    -0.240 A  
HETATM    7  C   UNL     1      -8.505  12.514  66.831  1.00  0.00    -0.130 A  
HETATM    8  N   UNL     1      -9.003  11.571  65.948  1.00  0.00    -0.185 NA 
HETATM    9  C   UNL     1      -7.255  12.795  67.441  1.00  0.00    -0.134 A  
HETATM   10  C   UNL     1      -7.209  13.858  68.368  1.00  0.00    -0.110 A  
HETATM   11  C   UNL     1      -9.545  14.360  68.029  1.00  0.00    -0.216 A  
HETATM   12  C   UNL     1      -8.336  14.617  68.670  1.00  0.00    -0.165 A  
BRANCH   9  13
HETATM   13  C   UNL     1      -6.026  11.991  67.242  1.00  0.00    -0.146 C  
HETATM   14  O   UNL     1      -5.580  11.701  66.146  1.00  0.00    -0.252 OA 
BRANCH  13  15
HETATM   15  O   UNL     1      -5.531  11.576  68.439  1.00  0.00    -0.046 OA 
BRANCH  15  16
HETATM   16  C   UNL     1      -5.902  10.245  68.836  1.00  0.00    -0.041 C  
BRANCH  16  17
HETATM   17  C   UNL     1      -5.759  10.101  70.310  1.00  0.00    -0.060 C  
HETATM   18  O   UNL     1      -5.405  10.477  72.485  1.00  0.00    -0.311 OA 
HETATM   19  C   UNL     1      -5.407  10.994  71.211  1.00  0.00    -0.035 C  
HETATM   20  O   UNL     1      -5.997   8.873  70.905  1.00  0.00    -0.034 OA 
HETATM   21  C   UNL     1      -5.137  12.428  71.064  1.00  0.00    -0.149 C  
HETATM   22  C   UNL     1      -5.794   9.170  72.248  1.00  0.00    -0.033 C  
HETATM   23  O   UNL     1      -5.934   8.350  73.147  1.00  0.00    -0.071 OA 
ENDBRANCH  16  17
ENDBRANCH  15  16
ENDBRANCH  13  15
ENDBRANCH   9  13
BRANCH   8  24
HETATM   24  C   UNL     1      -8.394  10.324  65.514  1.00  0.00    -0.164 C  
BRANCH  24  25
HETATM   25  C   UNL     1      -8.635   9.129  66.408  1.00  0.00    -0.135 A  
HETATM   26  C   UNL     1      -9.871   8.802  66.965  1.00  0.00    -0.279 A  
HETATM   27  C   UNL     1      -7.684   7.177  67.530  1.00  0.00    -0.111 A  
HETATM   28  C   UNL     1      -8.916   6.842  68.112  1.00  0.00    -0.123 A  
HETATM   29  C   UNL     1      -7.548   8.289  66.687  1.00  0.00    -0.090 A  
HETATM   30  C   UNL     1     -10.014   7.649  67.746  1.00  0.00    -0.219 A  
BRANCH  28  31
HETATM   31  C   UNL     1      -9.076   5.648  69.002  1.00  0.00    -0.124 A  
HETATM   32  C   UNL     1      -9.579   4.829  71.279  1.00  0.00    -0.232 A  
HETATM   33  C   UNL     1      -9.652   5.815  70.289  1.00  0.00    -0.206 A  
HETATM   34  C   UNL     1      -8.992   3.607  70.994  1.00  0.00    -0.159 A  
HETATM   35  C   UNL     1      -8.516   3.365  69.710  1.00  0.00    -0.090 A  
HETATM   36  C   UNL     1      -8.571   4.360  68.712  1.00  0.00    -0.102 A  
BRANCH  36  37
HETATM   37  C   UNL     1      -8.099   3.928  67.383  1.00  0.00    -0.091 C  
HETATM   38  N   UNL     1      -8.738   4.106  66.274  1.00  0.00    -0.113 NA 
HETATM   39  O   UNL     1      -7.893   3.547  65.264  1.00  0.00    -0.084 OA 
HETATM   40  C   UNL     1      -6.778   3.080  65.911  1.00  0.00    -0.044 C  
HETATM   41  N   UNL     1      -6.909   3.337  67.221  1.00  0.00    -0.045 NA 
HETATM   42  O   UNL     1      -5.835   2.507  65.384  1.00  0.00    -0.017 OA 
ENDBRANCH  36  37
ENDBRANCH  28  31
ENDBRANCH  24  25
ENDBRANCH   8  24
ENDBRANCH   3   4
ENDBRANCH   2   3
TORSDOF 10
ENDMDL
MODEL      217
REMARK 921   NORMALIZED FREE ENERGY PREDICTED BY IDOCK:   -3.09 KCAL/MOL
REMARK 922        TOTAL FREE ENERGY PREDICTED BY IDOCK:   -7.81 KCAL/MOL
REMARK 923 INTER-LIGAND FREE ENERGY PREDICTED BY IDOCK:   -6.40 KCAL/MOL
REMARK 924 INTRA-LIGAND FREE ENERGY PREDICTED BY IDOCK:   -1.41 KCAL/MOL
REMARK 927      BINDING AFFINITY PREDICTED BY RF-SCORE:    0.00 PKD
ROOT
HETATM    1  C   UNL     1     -10.446   5.743  74.227  1.00  0.00    -0.237 C  
HETATM    2  C   UNL     1     -11.148   6.456  73.085  1.00  0.00    -0.163 C  
ENDROOT
BRANCH   2   3
HETATM    3  O   UNL     1     -10.220   7.318  72.422  1.00  0.00    -0.186 OA 
BRANCH   3   4
HETATM    4  C   UNL     1      -9.481   6.710  71.492  1.00  0.00    -0.156 A  
HETATM    5  N   UNL     1      -9.701   5.509  71.025  1.00  0.00    -0.169 NA 
HETATM    6  C   UNL     1      -8.722   5.305  70.093  1.00  0.00    -0.121 A  
HETATM    7  C   UNL     1      -7.860   6.405  69.986  1.00  0.00    -0.111 A  
HETATM    8  N   UNL     1      -8.409   7.314  70.875  1.00  0.00    -0.115 NA 
HETATM    9  C   UNL     1      -6.750   6.371  69.103  1.00  0.00    -0.053 A  
HETATM   10  C   UNL     1      -6.595   5.221  68.299  1.00  0.00    -0.049 A  
HETATM   11  C   UNL     1      -8.541   4.179  69.274  1.00  0.00    -0.109 A  
HETATM   12  C   UNL     1      -7.482   4.152  68.370  1.00  0.00    -0.059 A  
BRANCH   9  13
HETATM   13  C   UNL     1      -5.804   7.494  68.903  1.00  0.00    -0.023 C  
HETATM   14  O   UNL     1      -5.130   7.976  69.797  1.00  0.00    -0.022 OA 
BRANCH  13  15
HETATM   15  O   UNL     1      -5.859   7.938  67.619  1.00  0.00    -0.038 OA 
BRANCH  15  16
HETATM   16  C   UNL     1      -7.179   8.109  67.078  1.00  0.00    -0.083 C  
BRANCH  16  17
HETATM   17  C   UNL     1      -7.132   8.011  65.594  1.00  0.00    -0.063 C  
HETATM   18  O   UNL     1      -7.582   8.172  63.410  1.00  0.00    -0.116 OA 
HETATM   19  C   UNL     1      -7.991   8.444  64.696  1.00  0.00    -0.147 C  
HETATM   20  O   UNL     1      -6.068   7.367  64.984  1.00  0.00    -0.037 OA 
HETATM   21  C   UNL     1      -9.211   9.240  64.862  1.00  0.00    -0.206 C  
HETATM   22  C   UNL     1      -6.382   7.523  63.638  1.00  0.00    -0.053 C  
HETATM   23  O   UNL     1      -5.669   7.115  62.729  1.00  0.00    -0.039 OA 
ENDBRANCH  16  17
ENDBRANCH  15  16
ENDBRANCH  13  15
ENDBRANCH   9  13
BRANCH   8  24
HETATM   24  C   UNL     1      -8.118   8.731  71.020  1.00  0.00    -0.156 C  
BRANCH  24  25
HETATM   25  C   UNL     1      -8.756   9.639  69.993  1.00  0.00    -0.256 A  
HETATM   26  C   UNL     1     -10.132   9.761  69.800  1.00  0.00    -0.268 A  
HETATM   27  C   UNL     1      -8.422  11.264  68.198  1.00  0.00    -0.145 A  
HETATM   28  C   UNL     1      -9.803  11.388  67.979  1.00  0.00    -0.191 A  
HETATM   29  C   UNL     1      -7.910  10.419  69.192  1.00  0.00    -0.134 A  
HETATM   30  C   UNL     1     -10.637  10.664  68.856  1.00  0.00    -0.241 A  
BRANCH  28  31
HETATM   31  C   UNL     1     -10.363  12.299  66.930  1.00  0.00    -0.236 A  
HETATM   32  C   UNL     1     -11.785  12.499  64.919  1.00  0.00    -0.409 A  
HETATM   33  C   UNL     1     -11.406  11.832  66.089  1.00  0.00    -0.342 A  
HETATM   34  C   UNL     1     -11.185  13.701  64.585  1.00  0.00    -0.383 A  
HETATM   35  C   UNL     1     -10.236  14.248  65.442  1.00  0.00    -0.395 A  
HETATM   36  C   UNL     1      -9.837  13.574  66.615  1.00  0.00    -0.279 A  
BRANCH  36  37
HETATM   37  C   UNL     1      -8.882  14.315  67.459  1.00  0.00    -0.199 C  
HETATM   38  N   UNL     1      -7.957  15.102  67.018  1.00  0.00    -0.213 NA 
HETATM   39  O   UNL     1      -7.305  15.601  68.190  1.00  0.00    -0.111 OA 
HETATM   40  C   UNL     1      -7.950  15.037  69.259  1.00  0.00    -0.190 C  
HETATM   41  N   UNL     1      -8.937  14.255  68.795  1.00  0.00    -0.144 NA 
HETATM   42  O   UNL     1      -7.660  15.202  70.435  1.00  0.00     0.246 OA 
ENDBRANCH  36  37
ENDBRANCH  28  31
ENDBRANCH  24  25
ENDBRANCH   8  24
ENDBRANCH   3   4
ENDBRANCH   2   3
TORSDOF 10
ENDMDL
MODEL      218
REMARK 921   NORMALIZED FREE ENERGY PREDICTED BY IDOCK:   -3.07 KCAL/MOL
REMARK 922        TOTAL FREE ENERGY PREDICTED BY IDOCK:   -7.79 KCAL/MOL
REMARK 923 INTER-LIGAND FREE ENERGY PREDICTED BY IDOCK:   -7.28 KCAL/MOL
REMARK 924 INTRA-LIGAND FREE ENERGY PREDICTED BY IDOCK:   -0.51 KCAL/MOL
REMARK 927      BINDING AFFINITY PREDICTED BY RF-SCORE:    0.00 PKD
ROOT
HETATM    1  C   UNL     1     -13.593   6.848  71.731  1.00  0.00    -0.244 C  
HETATM    2  C   UNL     1     -12.595   7.925  71.343  1.00  0.00    -0.300 C  
ENDROOT
BRANCH   2   3
HETATM    3  O   UNL     1     -11.327   7.632  71.934  1.00  0.00    -0.250 OA 
BRANCH   3   4
HETATM    4  C   UNL     1     -10.501   6.949  71.140  1.00  0.00    -0.212 A  
HETATM    5  N   UNL     1     -10.778   5.803  70.576  1.00  0.00    -0.286 NA 
HETATM    6  C   UNL     1      -9.665   5.487  69.848  1.00  0.00    -0.174 A  
HETATM    7  C   UNL     1      -8.661   6.458  69.972  1.00  0.00    -0.142 A  
HETATM    8  N   UNL     1      -9.256   7.413  70.781  1.00  0.00    -0.159 NA 
HETATM    9  C   UNL     1      -7.409   6.291  69.327  1.00  0.00    -0.092 A  
HETATM   10  C   UNL     1      -7.247   5.151  68.510  1.00  0.00    -0.062 A  
HETATM   11  C   UNL     1      -9.471   4.367  69.024  1.00  0.00    -0.237 A  
HETATM   12  C   UNL     1      -8.263   4.215  68.348  1.00  0.00    -0.088 A  
BRANCH   9  13
HETATM   13  C   UNL     1      -6.302   7.275  69.378  1.00  0.00    -0.035 C  
HETATM   14  O   UNL     1      -6.228   8.245  68.644  1.00  0.00    -0.043 OA 
BRANCH  13  15
HETATM   15  O   UNL     1      -5.371   6.896  70.294  1.00  0.00    -0.018 OA 
BRANCH  15  16
HETATM   16  C   UNL     1      -5.582   7.382  71.630  1.00  0.00    -0.036 C  
BRANCH  16  17
HETATM   17  C   UNL     1      -5.996   6.259  72.515  1.00  0.00    -0.038 C  
HETATM   18  O   UNL     1      -6.934   5.015  74.117  1.00  0.00    -0.074 OA 
HETATM   19  C   UNL     1      -6.780   6.268  73.571  1.00  0.00    -0.075 C  
HETATM   20  O   UNL     1      -5.516   4.983  72.271  1.00  0.00    -0.008 OA 
HETATM   21  C   UNL     1      -7.568   7.360  74.155  1.00  0.00    -0.148 C  
HETATM   22  C   UNL     1      -6.150   4.252  73.270  1.00  0.00    -0.013 C  
HETATM   23  O   UNL     1      -6.023   3.040  73.401  1.00  0.00    -0.007 OA 
ENDBRANCH  16  17
ENDBRANCH  15  16
ENDBRANCH  13  15
ENDBRANCH   9  13
BRANCH   8  24
HETATM   24  C   UNL     1      -8.816   8.772  71.054  1.00  0.00    -0.211 C  
BRANCH  24  25
HETATM   25  C   UNL     1      -9.220   9.809  70.031  1.00  0.00    -0.266 A  
HETATM   26  C   UNL     1      -8.319  10.549  69.266  1.00  0.00    -0.144 A  
HETATM   27  C   UNL     1     -11.044  10.999  68.921  1.00  0.00    -0.295 A  
HETATM   28  C   UNL     1     -10.151  11.764  68.154  1.00  0.00    -0.196 A  
HETATM   29  C   UNL     1     -10.589  10.034  69.830  1.00  0.00    -0.324 A  
HETATM   30  C   UNL     1      -8.783  11.458  68.307  1.00  0.00    -0.160 A  
BRANCH  28  31
HETATM   31  C   UNL     1     -10.626  12.787  67.168  1.00  0.00    -0.249 A  
HETATM   32  C   UNL     1     -12.279  13.354  65.421  1.00  0.00    -0.492 A  
HETATM   33  C   UNL     1     -11.889  12.616  66.544  1.00  0.00    -0.463 A  
HETATM   34  C   UNL     1     -11.450  14.346  64.925  1.00  0.00    -0.386 A  
HETATM   35  C   UNL     1     -10.252  14.620  65.578  1.00  0.00    -0.395 A  
HETATM   36  C   UNL     1      -9.845  13.869  66.700  1.00  0.00    -0.288 A  
BRANCH  36  37
HETATM   37  C   UNL     1      -8.592  14.328  67.328  1.00  0.00    -0.215 C  
HETATM   38  N   UNL     1      -8.314  14.236  68.586  1.00  0.00    -0.151 NA 
HETATM   39  O   UNL     1      -7.001  14.786  68.718  1.00  0.00    -0.093 OA 
HETATM   40  C   UNL     1      -6.611  15.157  67.458  1.00  0.00    -0.138 C  
HETATM   41  N   UNL     1      -7.597  14.854  66.602  1.00  0.00     0.258 NA 
HETATM   42  O   UNL     1      -5.551  15.696  67.169  1.00  0.00    -0.332 OA 
ENDBRANCH  36  37
ENDBRANCH  28  31
ENDBRANCH  24  25
ENDBRANCH   8  24
ENDBRANCH   3   4
ENDBRANCH   2   3
TORSDOF 10
ENDMDL
MODEL      219
REMARK 921   NORMALIZED FREE ENERGY PREDICTED BY IDOCK:   -3.02 KCAL/MOL
REMARK 922        TOTAL FREE ENERGY PREDICTED BY IDOCK:   -7.70 KCAL/MOL
REMARK 923 INTER-LIGAND FREE ENERGY PREDICTED BY IDOCK:   -8.67 KCAL/MOL
REMARK 924 INTRA-LIGAND FREE ENERGY PREDICTED BY IDOCK:    0.97 KCAL/MOL
REMARK 927      BINDING AFFINITY PREDICTED BY RF-SCORE:    0.00 PKD
ROOT
HETATM    1  C   UNL     1     -12.504   6.791  70.153  1.00  0.00     0.341 C  
HETATM    2  C   UNL     1     -12.611   7.035  71.648  1.00  0.00    -0.380 C  
ENDROOT
BRANCH   2   3
HETATM    3  O   UNL     1     -11.756   6.122  72.340  1.00  0.00    -0.304 OA 
BRANCH   3   4
HETATM    4  C   UNL     1     -10.548   5.986  71.792  1.00  0.00    -0.229 A  
HETATM    5  N   UNL     1     -10.146   4.948  71.106  1.00  0.00    -0.209 NA 
HETATM    6  C   UNL     1      -8.867   5.245  70.728  1.00  0.00    -0.135 A  
HETATM    7  C   UNL     1      -8.455   6.498  71.202  1.00  0.00    -0.126 A  
HETATM    8  N   UNL     1      -9.586   6.969  71.849  1.00  0.00    -0.151 NA 
HETATM    9  C   UNL     1      -7.140   6.970  70.953  1.00  0.00    -0.070 A  
HETATM   10  C   UNL     1      -6.300   6.160  70.159  1.00  0.00    -0.032 A  
HETATM   11  C   UNL     1      -8.006   4.467  69.937  1.00  0.00    -0.060 A  
HETATM   12  C   UNL     1      -6.728   4.940  69.646  1.00  0.00    -0.051 A  
BRANCH   9  13
HETATM   13  C   UNL     1      -6.627   8.290  71.390  1.00  0.00    -0.051 C  
HETATM   14  O   UNL     1      -6.748   8.720  72.523  1.00  0.00    -0.236 OA 
BRANCH  13  15
HETATM   15  O   UNL     1      -6.082   8.958  70.338  1.00  0.00    -0.033 OA 
BRANCH  15  16
HETATM   16  C   UNL     1      -6.272   8.349  69.050  1.00  0.00    -0.043 C  
BRANCH  16  17
HETATM   17  C   UNL     1      -6.660   9.386  68.055  1.00  0.00    -0.063 C  
HETATM   18  O   UNL     1      -6.859  11.283  66.889  1.00  0.00    -0.115 OA 
HETATM   19  C   UNL     1      -6.288  10.645  67.967  1.00  0.00    -0.058 C  
HETATM   20  O   UNL     1      -7.557   9.068  67.049  1.00  0.00    -0.090 OA 
HETATM   21  C   UNL     1      -5.306  11.398  68.755  1.00  0.00    -0.043 C  
HETATM   22  C   UNL     1      -7.619  10.264  66.342  1.00  0.00    -0.117 C  
HETATM   23  O   UNL     1      -8.293  10.415  65.331  1.00  0.00    -0.157 OA 
ENDBRANCH  16  17
ENDBRANCH  15  16
ENDBRANCH  13  15
ENDBRANCH   9  13
BRANCH   8  24
HETATM   24  C   UNL     1      -9.868   8.315  72.319  1.00  0.00    -0.294 C  
BRANCH  24  25
HETATM   25  C   UNL     1     -10.259   9.313  71.252  1.00  0.00    -0.383 A  
HETATM   26  C   UNL     1      -9.380   9.829  70.300  1.00  0.00    -0.236 A  
HETATM   27  C   UNL     1     -12.029  10.683  70.270  1.00  0.00    -0.425 A  
HETATM   28  C   UNL     1     -11.155  11.225  69.315  1.00  0.00    -0.314 A  
HETATM   29  C   UNL     1     -11.594   9.739  71.210  1.00  0.00    -0.465 A  
HETATM   30  C   UNL     1      -9.840  10.716  69.318  1.00  0.00    -0.201 A  
BRANCH  28  31
HETATM   31  C   UNL     1     -11.611  12.224  68.296  1.00  0.00    -0.385 A  
HETATM   32  C   UNL     1     -11.728  12.816  65.900  1.00  0.00    -0.464 A  
HETATM   33  C   UNL     1     -11.595  11.870  66.922  1.00  0.00    -0.358 A  
HETATM   34  C   UNL     1     -11.959  14.144  66.215  1.00  0.00    -0.448 A  
HETATM   35  C   UNL     1     -12.093  14.513  67.550  1.00  0.00    -0.284 A  
HETATM   36  C   UNL     1     -11.943  13.568  68.586  1.00  0.00    -0.378 A  
BRANCH  36  37
HETATM   37  C   UNL     1     -12.190  14.093  69.941  1.00  0.00    -0.359 C  
HETATM   38  N   UNL     1     -13.209  13.798  70.679  1.00  0.00    -0.036 NA 
HETATM   39  O   UNL     1     -13.009  14.521  71.896  1.00  0.00    -0.312 OA 
HETATM   40  C   UNL     1     -11.826  15.198  71.752  1.00  0.00    -0.405 C  
HETATM   41  N   UNL     1     -11.319  14.912  70.543  1.00  0.00    -0.254 NA 
HETATM   42  O   UNL     1     -11.330  15.952  72.577  1.00  0.00    -0.262 OA 
ENDBRANCH  36  37
ENDBRANCH  28  31
ENDBRANCH  24  25
ENDBRANCH   8  24
ENDBRANCH   3   4
ENDBRANCH   2   3
TORSDOF 10
ENDMDL
MODEL      220
REMARK 921   NORMALIZED FREE ENERGY PREDICTED BY IDOCK:   -3.00 KCAL/MOL
REMARK 922        TOTAL FREE ENERGY PREDICTED BY IDOCK:   -7.68 KCAL/MOL
REMARK 923 INTER-LIGAND FREE ENERGY PREDICTED BY IDOCK:   -6.01 KCAL/MOL
REMARK 924 INTRA-LIGAND FREE ENERGY PREDICTED BY IDOCK:   -1.67 KCAL/MOL
REMARK 927      BINDING AFFINITY PREDICTED BY RF-SCORE:    0.00 PKD
ROOT
HETATM    1  C   UNL     1     -11.882  14.956  68.504  1.00  0.00    -0.325 C  
HETATM    2  C   UNL     1     -12.026  13.593  67.850  1.00  0.00    -0.347 C  
ENDROOT
BRANCH   2   3
HETATM    3  O   UNL     1     -11.089  13.481  66.775  1.00  0.00    -0.292 OA 
BRANCH   3   4
HETATM    4  C   UNL     1      -9.813  13.528  67.159  1.00  0.00    -0.245 A  
HETATM    5  N   UNL     1      -9.004  14.536  66.960  1.00  0.00    -0.229 NA 
HETATM    6  C   UNL     1      -7.819  14.158  67.527  1.00  0.00    -0.192 A  
HETATM    7  C   UNL     1      -7.888  12.873  68.084  1.00  0.00    -0.147 A  
HETATM    8  N   UNL     1      -9.208  12.513  67.866  1.00  0.00    -0.193 NA 
HETATM    9  C   UNL     1      -6.745  12.281  68.682  1.00  0.00    -0.083 A  
HETATM   10  C   UNL     1      -5.571  13.062  68.750  1.00  0.00    -0.072 A  
HETATM   11  C   UNL     1      -6.636  14.908  67.617  1.00  0.00    -0.189 A  
HETATM   12  C   UNL     1      -5.520  14.356  68.242  1.00  0.00    -0.114 A  
BRANCH   9  13
HETATM   13  C   UNL     1      -6.731  10.944  69.319  1.00  0.00    -0.086 C  
HETATM   14  O   UNL     1      -6.844  10.767  70.519  1.00  0.00    -0.285 OA 
BRANCH  13  15
HETATM   15  O   UNL     1      -6.503   9.977  68.389  1.00  0.00    -0.053 OA 
BRANCH  15  16
HETATM   16  C   UNL     1      -5.252  10.072  67.689  1.00  0.00    -0.034 C  
BRANCH  16  17
HETATM   17  C   UNL     1      -5.448   9.718  66.257  1.00  0.00    -0.044 C  
HETATM   18  O   UNL     1      -5.674   8.621  64.323  1.00  0.00    -0.063 OA 
HETATM   19  C   UNL     1      -5.436   8.538  65.675  1.00  0.00    -0.035 C  
HETATM   20  O   UNL     1      -5.666  10.722  65.327  1.00  0.00    -0.140 OA 
HETATM   21  C   UNL     1      -5.320   7.197  66.259  1.00  0.00    -0.023 C  
HETATM   22  C   UNL     1      -5.829   9.986  64.158  1.00  0.00    -0.128 C  
HETATM   23  O   UNL     1      -6.076  10.496  63.071  1.00  0.00    -0.148 OA 
ENDBRANCH  16  17
ENDBRANCH  15  16
ENDBRANCH  13  15
ENDBRANCH   9  13
BRANCH   8  24
HETATM   24  C   UNL     1      -9.954  11.406  68.443  1.00  0.00    -0.204 C  
BRANCH  24  25
HETATM   25  C   UNL     1      -9.671  10.045  67.849  1.00  0.00    -0.168 A  
HETATM   26  C   UNL     1      -9.649   8.859  68.582  1.00  0.00    -0.158 A  
HETATM   27  C   UNL     1      -9.128   8.749  65.850  1.00  0.00    -0.271 A  
HETATM   28  C   UNL     1      -9.086   7.547  66.574  1.00  0.00    -0.201 A  
HETATM   29  C   UNL     1      -9.426   9.969  66.471  1.00  0.00    -0.222 A  
HETATM   30  C   UNL     1      -9.424   7.634  67.940  1.00  0.00    -0.156 A  
BRANCH  28  31
HETATM   31  C   UNL     1      -8.783   6.234  65.918  1.00  0.00    -0.154 A  
HETATM   32  C   UNL     1      -8.523   5.006  63.790  1.00  0.00    -0.128 A  
HETATM   33  C   UNL     1      -8.531   6.198  64.522  1.00  0.00     0.051 A  
HETATM   34  C   UNL     1      -8.692   3.795  64.440  1.00  0.00    -0.110 A  
HETATM   35  C   UNL     1      -8.831   3.781  65.825  1.00  0.00    -0.124 A  
HETATM   36  C   UNL     1      -8.857   4.980  66.567  1.00  0.00    -0.112 A  
BRANCH  36  37
HETATM   37  C   UNL     1      -8.932   4.799  68.029  1.00  0.00    -0.112 C  
HETATM   38  N   UNL     1     -10.025   4.695  68.709  1.00  0.00    -0.126 NA 
HETATM   39  O   UNL     1      -9.604   4.517  70.065  1.00  0.00    -0.158 OA 
HETATM   40  C   UNL     1      -8.233   4.525  70.045  1.00  0.00    -0.066 C  
HETATM   41  N   UNL     1      -7.828   4.683  68.777  1.00  0.00    -0.075 NA 
HETATM   42  O   UNL     1      -7.506   4.427  71.024  1.00  0.00    -0.049 OA 
ENDBRANCH  36  37
ENDBRANCH  28  31
ENDBRANCH  24  25
ENDBRANCH   8  24
ENDBRANCH   3   4
ENDBRANCH   2   3
TORSDOF 10
ENDMDL
MODEL      221
REMARK 921   NORMALIZED FREE ENERGY PREDICTED BY IDOCK:   -2.98 KCAL/MOL
REMARK 922        TOTAL FREE ENERGY PREDICTED BY IDOCK:   -7.64 KCAL/MOL
REMARK 923 INTER-LIGAND FREE ENERGY PREDICTED BY IDOCK:   -7.86 KCAL/MOL
REMARK 924 INTRA-LIGAND FREE ENERGY PREDICTED BY IDOCK:    0.22 KCAL/MOL
REMARK 927      BINDING AFFINITY PREDICTED BY RF-SCORE:    0.00 PKD
ROOT
HETATM    1  C   UNL     1      -5.495   4.987  70.314  1.00  0.00    -0.008 C  
HETATM    2  C   UNL     1      -5.149   6.463  70.241  1.00  0.00    -0.014 C  
ENDROOT
BRANCH   2   3
HETATM    3  O   UNL     1      -5.363   6.937  68.909  1.00  0.00    -0.015 OA 
BRANCH   3   4
HETATM    4  C   UNL     1      -6.309   6.274  68.242  1.00  0.00    -0.047 A  
HETATM    5  N   UNL     1      -6.091   5.291  67.408  1.00  0.00    -0.029 NA 
HETATM    6  C   UNL     1      -7.331   4.907  66.979  1.00  0.00    -0.082 A  
HETATM    7  C   UNL     1      -8.349   5.682  67.553  1.00  0.00    -0.100 A  
HETATM    8  N   UNL     1      -7.653   6.527  68.400  1.00  0.00    -0.101 NA 
HETATM    9  C   UNL     1      -9.707   5.469  67.199  1.00  0.00    -0.155 A  
HETATM   10  C   UNL     1      -9.987   4.410  66.309  1.00  0.00    -0.255 A  
HETATM   11  C   UNL     1      -7.646   3.860  66.099  1.00  0.00    -0.089 A  
HETATM   12  C   UNL     1      -8.979   3.610  65.780  1.00  0.00    -0.137 A  
BRANCH   9  13
HETATM   13  C   UNL     1     -10.850   6.217  67.774  1.00  0.00    -0.325 C  
HETATM   14  O   UNL     1     -11.211   7.309  67.373  1.00  0.00    -0.145 OA 
BRANCH  13  15
HETATM   15  O   UNL     1     -11.370   5.546  68.837  1.00  0.00     0.230 OA 
BRANCH  15  16
HETATM   16  C   UNL     1     -11.696   6.353  69.980  1.00  0.00    -0.275 C  
BRANCH  16  17
HETATM   17  C   UNL     1     -10.721   6.093  71.075  1.00  0.00    -0.260 C  
HETATM   18  O   UNL     1      -9.549   6.169  72.976  1.00  0.00    -0.150 OA 
HETATM   19  C   UNL     1     -10.554   6.723  72.217  1.00  0.00    -0.213 C  
HETATM   20  O   UNL     1      -9.805   5.062  70.944  1.00  0.00    -0.179 OA 
HETATM   21  C   UNL     1     -11.329   7.815  72.817  1.00  0.00    -0.446 C  
HETATM   22  C   UNL     1      -9.129   5.135  72.158  1.00  0.00    -0.136 C  
HETATM   23  O   UNL     1      -8.233   4.364  72.476  1.00  0.00    -0.101 OA 
ENDBRANCH  16  17
ENDBRANCH  15  16
ENDBRANCH  13  15
ENDBRANCH   9  13
BRANCH   8  24
HETATM   24  C   UNL     1      -8.170   7.381  69.457  1.00  0.00    -0.131 C  
BRANCH  24  25
HETATM   25  C   UNL     1      -8.815   8.671  69.002  1.00  0.00    -0.138 A  
HETATM   26  C   UNL     1      -9.612   9.478  69.813  1.00  0.00    -0.235 A  
HETATM   27  C   UNL     1      -9.172  10.256  67.177  1.00  0.00    -0.163 A  
HETATM   28  C   UNL     1      -9.990  11.073  67.973  1.00  0.00    -0.188 A  
HETATM   29  C   UNL     1      -8.587   9.088  67.683  1.00  0.00    -0.120 A  
HETATM   30  C   UNL     1     -10.132  10.682  69.321  1.00  0.00    -0.227 A  
BRANCH  28  31
HETATM   31  C   UNL     1     -10.609  12.332  67.447  1.00  0.00    -0.247 A  
HETATM   32  C   UNL     1     -10.662  13.994  65.619  1.00  0.00    -0.306 A  
HETATM   33  C   UNL     1     -10.368  12.714  66.102  1.00  0.00    -0.273 A  
HETATM   34  C   UNL     1     -11.279  14.918  66.445  1.00  0.00    -0.331 A  
HETATM   35  C   UNL     1     -11.633  14.544  67.738  1.00  0.00    -0.390 A  
HETATM   36  C   UNL     1     -11.324  13.262  68.237  1.00  0.00    -0.335 A  
BRANCH  36  37
HETATM   37  C   UNL     1     -11.831  12.989  69.595  1.00  0.00    -0.319 C  
HETATM   38  N   UNL     1     -11.852  13.843  70.565  1.00  0.00    -0.283 NA 
HETATM   39  O   UNL     1     -12.439  13.141  71.664  1.00  0.00    -0.186 OA 
HETATM   40  C   UNL     1     -12.731  11.883  71.205  1.00  0.00    -0.298 C  
HETATM   41  N   UNL     1     -12.365  11.805  69.917  1.00  0.00    -0.183 NA 
HETATM   42  O   UNL     1     -13.220  10.978  71.868  1.00  0.00    -0.473 OA 
ENDBRANCH  36  37
ENDBRANCH  28  31
ENDBRANCH  24  25
ENDBRANCH   8  24
ENDBRANCH   3   4
ENDBRANCH   2   3
TORSDOF 10
ENDMDL
MODEL      222
REMARK 921   NORMALIZED FREE ENERGY PREDICTED BY IDOCK:   -2.97 KCAL/MOL
REMARK 922        TOTAL FREE ENERGY PREDICTED BY IDOCK:   -7.63 KCAL/MOL
REMARK 923 INTER-LIGAND FREE ENERGY PREDICTED BY IDOCK:   -5.54 KCAL/MOL
REMARK 924 INTRA-LIGAND FREE ENERGY PREDICTED BY IDOCK:   -2.09 KCAL/MOL
REMARK 927      BINDING AFFINITY PREDICTED BY RF-SCORE:    0.00 PKD
ROOT
HETATM    1  C   UNL     1     -12.100  15.484  69.990  1.00  0.00    -0.391 C  
HETATM    2  C   UNL     1     -12.573  14.153  69.432  1.00  0.00     0.100 C  
ENDROOT
BRANCH   2   3
HETATM    3  O   UNL     1     -12.120  14.016  68.083  1.00  0.00    -0.355 OA 
BRANCH   3   4
HETATM    4  C   UNL     1     -10.828  14.295  67.912  1.00  0.00    -0.253 A  
HETATM    5  N   UNL     1     -10.360  15.379  67.350  1.00  0.00    -0.258 NA 
HETATM    6  C   UNL     1      -9.000  15.250  67.405  1.00  0.00    -0.183 A  
HETATM    7  C   UNL     1      -8.609  14.045  68.005  1.00  0.00    -0.179 A  
HETATM    8  N   UNL     1      -9.819  13.473  68.362  1.00  0.00    -0.235 NA 
HETATM    9  C   UNL     1      -7.237  13.704  68.116  1.00  0.00    -0.117 A  
HETATM   10  C   UNL     1      -6.294  14.651  67.661  1.00  0.00    -0.133 A  
HETATM   11  C   UNL     1      -8.035  16.171  66.967  1.00  0.00    -0.254 A  
HETATM   12  C   UNL     1      -6.684  15.868  67.112  1.00  0.00    -0.168 A  
BRANCH   9  13
HETATM   13  C   UNL     1      -6.730  12.469  68.759  1.00  0.00    -0.093 C  
HETATM   14  O   UNL     1      -6.407  12.403  69.932  1.00  0.00    -0.124 OA 
BRANCH  13  15
HETATM   15  O   UNL     1      -6.614  11.470  67.843  1.00  0.00    -0.060 OA 
BRANCH  15  16
HETATM   16  C   UNL     1      -5.283  10.965  67.642  1.00  0.00    -0.040 C  
BRANCH  16  17
HETATM   17  C   UNL     1      -5.315   9.478  67.574  1.00  0.00    -0.037 C  
HETATM   18  O   UNL     1      -5.326   7.355  66.874  1.00  0.00    -0.021 OA 
HETATM   19  C   UNL     1      -5.300   8.685  66.523  1.00  0.00    -0.035 C  
HETATM   20  O   UNL     1      -5.387   8.741  68.744  1.00  0.00    -0.033 OA 
HETATM   21  C   UNL     1      -5.154   9.006  65.100  1.00  0.00    -0.037 C  
HETATM   22  C   UNL     1      -5.360   7.439  68.255  1.00  0.00    -0.025 C  
HETATM   23  O   UNL     1      -5.376   6.449  68.976  1.00  0.00    -0.011 OA 
ENDBRANCH  16  17
ENDBRANCH  15  16
ENDBRANCH  13  15
ENDBRANCH   9  13
BRANCH   8  24
HETATM   24  C   UNL     1     -10.064  12.345  69.247  1.00  0.00     0.466 C  
BRANCH  24  25
HETATM   25  C   UNL     1      -9.754  10.981  68.674  1.00  0.00    -0.198 A  
HETATM   26  C   UNL     1      -9.060   9.982  69.356  1.00  0.00    -0.228 A  
HETATM   27  C   UNL     1      -9.930   9.468  66.762  1.00  0.00    -0.297 A  
HETATM   28  C   UNL     1      -9.220   8.457  67.428  1.00  0.00    -0.163 A  
HETATM   29  C   UNL     1     -10.202  10.699  67.376  1.00  0.00    -0.243 A  
HETATM   30  C   UNL     1      -8.858   8.730  68.763  1.00  0.00    -0.134 A  
BRANCH  28  31
HETATM   31  C   UNL     1      -8.937   7.132  66.788  1.00  0.00    -0.151 A  
HETATM   32  C   UNL     1      -8.377   5.928  64.703  1.00  0.00    -0.086 A  
HETATM   33  C   UNL     1      -8.404   7.097  65.473  1.00  0.00    -0.132 A  
HETATM   34  C   UNL     1      -8.814   4.733  65.249  1.00  0.00    -0.149 A  
HETATM   35  C   UNL     1      -9.239   4.705  66.573  1.00  0.00    -0.132 A  
HETATM   36  C   UNL     1      -9.284   5.882  67.349  1.00  0.00    -0.108 A  
BRANCH  36  37
HETATM   37  C   UNL     1      -9.683   5.679  68.755  1.00  0.00    -0.137 C  
HETATM   38  N   UNL     1     -10.902   5.621  69.180  1.00  0.00    -0.266 NA 
HETATM   39  O   UNL     1     -10.793   5.397  70.589  1.00  0.00    -0.228 OA 
HETATM   40  C   UNL     1      -9.452   5.331  70.865  1.00  0.00    -0.165 C  
HETATM   41  N   UNL     1      -8.774   5.491  69.719  1.00  0.00    -0.114 NA 
HETATM   42  O   UNL     1      -8.960   5.177  71.974  1.00  0.00    -0.132 OA 
ENDBRANCH  36  37
ENDBRANCH  28  31
ENDBRANCH  24  25
ENDBRANCH   8  24
ENDBRANCH   3   4
ENDBRANCH   2   3
TORSDOF 10
ENDMDL
MODEL      223
REMARK 921   NORMALIZED FREE ENERGY PREDICTED BY IDOCK:   -2.92 KCAL/MOL
REMARK 922        TOTAL FREE ENERGY PREDICTED BY IDOCK:   -7.54 KCAL/MOL
REMARK 923 INTER-LIGAND FREE ENERGY PREDICTED BY IDOCK:   -7.11 KCAL/MOL
REMARK 924 INTRA-LIGAND FREE ENERGY PREDICTED BY IDOCK:   -0.43 KCAL/MOL
REMARK 927      BINDING AFFINITY PREDICTED BY RF-SCORE:    0.00 PKD
ROOT
HETATM    1  C   UNL     1      -9.340   8.634  65.528  1.00  0.00    -0.105 C  
HETATM    2  C   UNL     1      -9.915  10.039  65.548  1.00  0.00    -0.296 C  
ENDROOT
BRANCH   2   3
HETATM    3  O   UNL     1      -8.863  10.985  65.342  1.00  0.00    -0.192 OA 
BRANCH   3   4
HETATM    4  C   UNL     1      -8.299  11.425  66.468  1.00  0.00    -0.164 A  
HETATM    5  N   UNL     1      -7.300  10.850  67.084  1.00  0.00    -0.099 NA 
HETATM    6  C   UNL     1      -7.044  11.643  68.167  1.00  0.00    -0.078 A  
HETATM    7  C   UNL     1      -7.918  12.738  68.235  1.00  0.00    -0.151 A  
HETATM    8  N   UNL     1      -8.688  12.589  67.093  1.00  0.00    -0.194 NA 
HETATM    9  C   UNL     1      -7.843  13.657  69.313  1.00  0.00     0.358 A  
HETATM   10  C   UNL     1      -6.819  13.459  70.264  1.00  0.00     0.626 A  
HETATM   11  C   UNL     1      -6.035  11.480  69.128  1.00  0.00    -0.056 A  
HETATM   12  C   UNL     1      -5.921  12.401  70.166  1.00  0.00    -0.143 A  
BRANCH   9  13
HETATM   13  C   UNL     1      -8.703  14.855  69.453  1.00  0.00    -0.047 C  
HETATM   14  O   UNL     1      -8.269  15.991  69.541  1.00  0.00    -0.198 OA 
BRANCH  13  15
HETATM   15  O   UNL     1     -10.011  14.494  69.542  1.00  0.00    -0.036 OA 
BRANCH  15  16
HETATM   16  C   UNL     1     -10.891  15.480  70.107  1.00  0.00    -0.331 C  
BRANCH  16  17
HETATM   17  C   UNL     1     -11.743  14.854  71.154  1.00  0.00    -0.327 C  
HETATM   18  O   UNL     1     -12.928  14.446  73.005  1.00  0.00    -0.500 OA 
HETATM   19  C   UNL     1     -12.124  15.328  72.321  1.00  0.00    -0.401 C  
HETATM   20  O   UNL     1     -12.236  13.574  70.960  1.00  0.00    -0.353 OA 
HETATM   21  C   UNL     1     -11.913  16.651  72.918  1.00  0.00    -0.361 C  
HETATM   22  C   UNL     1     -12.984  13.386  72.118  1.00  0.00    -0.302 C  
HETATM   23  O   UNL     1     -13.630  12.369  72.344  1.00  0.00    -0.478 OA 
ENDBRANCH  16  17
ENDBRANCH  15  16
ENDBRANCH  13  15
ENDBRANCH   9  13
BRANCH   8  24
HETATM   24  C   UNL     1      -9.589  13.548  66.474  1.00  0.00    -0.277 C  
BRANCH  24  25
HETATM   25  C   UNL     1      -9.045  14.949  66.313  1.00  0.00    -0.262 A  
HETATM   26  C   UNL     1      -9.810  16.047  65.921  1.00  0.00    -0.380 A  
HETATM   27  C   UNL     1      -7.100  16.424  66.432  1.00  0.00     0.087 A  
HETATM   28  C   UNL     1      -7.851  17.537  66.024  1.00  0.00    -0.213 A  
HETATM   29  C   UNL     1      -7.687  15.160  66.586  1.00  0.00     0.291 A  
HETATM   30  C   UNL     1      -9.232  17.321  65.842  1.00  0.00    -0.005 A  
BRANCH  28  31
HETATM   31  C   UNL     1      -7.238  18.896  65.871  1.00  0.00    -0.277 A  
HETATM   32  C   UNL     1      -5.349  20.216  64.978  1.00  0.00    -0.194 A  
HETATM   33  C   UNL     1      -6.153  19.071  64.973  1.00  0.00    -0.323 A  
HETATM   34  C   UNL     1      -5.647  21.264  65.832  1.00  0.00    -0.256 A  
HETATM   35  C   UNL     1      -6.770  21.177  66.649  1.00  0.00    -0.282 A  
HETATM   36  C   UNL     1      -7.575  20.019  66.661  1.00  0.00    -0.314 A  
BRANCH  36  37
HETATM   37  C   UNL     1      -8.770  20.107  67.520  1.00  0.00    -0.336 C  
HETATM   38  N   UNL     1      -9.916  20.578  67.152  1.00  0.00    -0.437 NA 
HETATM   39  O   UNL     1     -10.759  20.443  68.300  1.00  0.00    -0.100 OA 
HETATM   40  C   UNL     1      -9.989  19.868  69.277  1.00  0.00    -0.184 C  
HETATM   41  N   UNL     1      -8.764  19.649  68.778  1.00  0.00    -0.296 NA 
HETATM   42  O   UNL     1     -10.353  19.619  70.418  1.00  0.00     0.474 OA 
ENDBRANCH  36  37
ENDBRANCH  28  31
ENDBRANCH  24  25
ENDBRANCH   8  24
ENDBRANCH   3   4
ENDBRANCH   2   3
TORSDOF 10
ENDMDL
MODEL      224
REMARK 921   NORMALIZED FREE ENERGY PREDICTED BY IDOCK:   -2.86 KCAL/MOL
REMARK 922        TOTAL FREE ENERGY PREDICTED BY IDOCK:   -7.45 KCAL/MOL
REMARK 923 INTER-LIGAND FREE ENERGY PREDICTED BY IDOCK:   -6.57 KCAL/MOL
REMARK 924 INTRA-LIGAND FREE ENERGY PREDICTED BY IDOCK:   -0.88 KCAL/MOL
REMARK 927      BINDING AFFINITY PREDICTED BY RF-SCORE:    0.00 PKD
ROOT
HETATM    1  C   UNL     1      -6.231   6.200  65.131  1.00  0.00    -0.033 C  
HETATM    2  C   UNL     1      -6.315   7.358  66.109  1.00  0.00    -0.042 C  
ENDROOT
BRANCH   2   3
HETATM    3  O   UNL     1      -7.642   7.890  66.104  1.00  0.00    -0.080 OA 
BRANCH   3   4
HETATM    4  C   UNL     1      -8.391   7.491  67.132  1.00  0.00    -0.121 A  
HETATM    5  N   UNL     1      -8.954   6.315  67.241  1.00  0.00    -0.114 NA 
HETATM    6  C   UNL     1      -9.600   6.341  68.445  1.00  0.00    -0.121 A  
HETATM    7  C   UNL     1      -9.447   7.571  69.099  1.00  0.00    -0.150 A  
HETATM    8  N   UNL     1      -8.620   8.275  68.240  1.00  0.00    -0.132 NA 
HETATM    9  C   UNL     1     -10.081   7.812  70.345  1.00  0.00    -0.194 A  
HETATM   10  C   UNL     1     -10.807   6.747  70.920  1.00  0.00    -0.289 A  
HETATM   11  C   UNL     1     -10.327   5.302  69.048  1.00  0.00    -0.246 A  
HETATM   12  C   UNL     1     -10.916   5.510  70.293  1.00  0.00    -0.206 A  
BRANCH   9  13
HETATM   13  C   UNL     1      -9.952   9.067  71.122  1.00  0.00    -0.295 C  
HETATM   14  O   UNL     1      -9.553   9.111  72.272  1.00  0.00    -0.210 OA 
BRANCH  13  15
HETATM   15  O   UNL     1     -10.407  10.123  70.396  1.00  0.00    -0.258 OA 
BRANCH  15  16
HETATM   16  C   UNL     1     -11.805  10.094  70.067  1.00  0.00    -0.179 C  
BRANCH  16  17
HETATM   17  C   UNL     1     -12.572  10.897  71.058  1.00  0.00    -0.417 C  
HETATM   18  O   UNL     1     -13.850  11.552  72.771  1.00  0.00     0.541 OA 
HETATM   19  C   UNL     1     -13.309  10.497  72.073  1.00  0.00    -0.314 C  
HETATM   20  O   UNL     1     -12.580  12.279  70.960  1.00  0.00    -0.361 OA 
HETATM   21  C   UNL     1     -13.531   9.149  72.606  1.00  0.00    -0.395 C  
HETATM   22  C   UNL     1     -13.357  12.631  72.059  1.00  0.00    -0.454 C  
HETATM   23  O   UNL     1     -13.598  13.791  72.368  1.00  0.00    -0.497 OA 
ENDBRANCH  16  17
ENDBRANCH  15  16
ENDBRANCH  13  15
ENDBRANCH   9  13
BRANCH   8  24
HETATM   24  C   UNL     1      -7.896   9.512  68.487  1.00  0.00    -0.085 C  
BRANCH  24  25
HETATM   25  C   UNL     1      -8.487  10.754  67.861  1.00  0.00    -0.122 A  
HETATM   26  C   UNL     1      -8.375  11.082  66.510  1.00  0.00    -0.163 A  
HETATM   27  C   UNL     1      -9.759  12.815  68.192  1.00  0.00    -0.223 A  
HETATM   28  C   UNL     1      -9.642  13.169  66.838  1.00  0.00    -0.248 A  
HETATM   29  C   UNL     1      -9.204  11.628  68.690  1.00  0.00    -0.112 A  
HETATM   30  C   UNL     1      -8.995  12.232  66.006  1.00  0.00     0.060 A  
BRANCH  28  31
HETATM   31  C   UNL     1     -10.243  14.428  66.291  1.00  0.00    -0.307 A  
HETATM   32  C   UNL     1     -10.989  15.649  64.277  1.00  0.00     0.157 A  
HETATM   33  C   UNL     1     -10.686  14.457  64.944  1.00  0.00    -0.444 A  
HETATM   34  C   UNL     1     -10.934  16.853  64.957  1.00  0.00    -0.055 A  
HETATM   35  C   UNL     1     -10.613  16.855  66.311  1.00  0.00    -0.191 A  
HETATM   36  C   UNL     1     -10.289  15.659  66.985  1.00  0.00    -0.289 A  
BRANCH  36  37
HETATM   37  C   UNL     1     -10.046  15.813  68.432  1.00  0.00    -0.222 C  
HETATM   38  N   UNL     1      -8.924  16.171  68.963  1.00  0.00    -0.239 NA 
HETATM   39  O   UNL     1      -9.172  16.199  70.371  1.00  0.00     0.959 OA 
HETATM   40  C   UNL     1     -10.486  15.846  70.538  1.00  0.00     0.031 C  
HETATM   41  N   UNL     1     -11.022  15.625  69.329  1.00  0.00    -0.247 NA 
HETATM   42  O   UNL     1     -11.062  15.730  71.610  1.00  0.00    -0.266 OA 
ENDBRANCH  36  37
ENDBRANCH  28  31
ENDBRANCH  24  25
ENDBRANCH   8  24
ENDBRANCH   3   4
ENDBRANCH   2   3
TORSDOF 10
ENDMDL
MODEL      225
REMARK 921   NORMALIZED FREE ENERGY PREDICTED BY IDOCK:   -2.85 KCAL/MOL
REMARK 922        TOTAL FREE ENERGY PREDICTED BY IDOCK:   -7.44 KCAL/MOL
REMARK 923 INTER-LIGAND FREE ENERGY PREDICTED BY IDOCK:   -4.83 KCAL/MOL
REMARK 924 INTRA-LIGAND FREE ENERGY PREDICTED BY IDOCK:   -2.61 KCAL/MOL
REMARK 927      BINDING AFFINITY PREDICTED BY RF-SCORE:    0.00 PKD
ROOT
HETATM    1  C   UNL     1      -9.105   3.967  70.315  1.00  0.00    -0.181 C  
HETATM    2  C   UNL     1      -8.901   3.309  68.962  1.00  0.00    -0.105 C  
ENDROOT
BRANCH   2   3
HETATM    3  O   UNL     1      -7.933   4.051  68.215  1.00  0.00    -0.076 OA 
BRANCH   3   4
HETATM    4  C   UNL     1      -8.062   3.935  66.893  1.00  0.00    -0.096 A  
HETATM    5  N   UNL     1      -8.514   2.876  66.271  1.00  0.00    -0.100 NA 
HETATM    6  C   UNL     1      -8.489   3.205  64.945  1.00  0.00    -0.096 A  
HETATM    7  C   UNL     1      -7.997   4.501  64.733  1.00  0.00    -0.095 A  
HETATM    8  N   UNL     1      -7.773   4.960  66.020  1.00  0.00    -0.090 NA 
HETATM    9  C   UNL     1      -7.851   5.013  63.418  1.00  0.00    -0.080 A  
HETATM   10  C   UNL     1      -8.282   4.195  62.351  1.00  0.00    -0.076 A  
HETATM   11  C   UNL     1      -8.913   2.421  63.861  1.00  0.00    -0.097 A  
HETATM   12  C   UNL     1      -8.818   2.930  62.568  1.00  0.00    -0.078 A  
BRANCH   9  13
HETATM   13  C   UNL     1      -7.367   6.377  63.099  1.00  0.00    -0.065 C  
HETATM   14  O   UNL     1      -6.224   6.625  62.758  1.00  0.00    -0.034 OA 
BRANCH  13  15
HETATM   15  O   UNL     1      -8.352   7.291  63.312  1.00  0.00     0.009 OA 
BRANCH  15  16
HETATM   16  C   UNL     1      -8.091   8.612  62.809  1.00  0.00    -0.178 C  
BRANCH  16  17
HETATM   17  C   UNL     1      -7.597   9.482  63.912  1.00  0.00    -0.122 C  
HETATM   18  O   UNL     1      -7.436  10.744  65.749  1.00  0.00    -0.138 OA 
HETATM   19  C   UNL     1      -8.252  10.001  64.928  1.00  0.00    -0.154 C  
HETATM   20  O   UNL     1      -6.266   9.864  63.938  1.00  0.00    -0.110 OA 
HETATM   21  C   UNL     1      -9.644   9.813  65.351  1.00  0.00    -0.359 C  
HETATM   22  C   UNL     1      -6.216  10.615  65.108  1.00  0.00    -0.023 C  
HETATM   23  O   UNL     1      -5.189  11.130  65.534  1.00  0.00    -0.218 OA 
ENDBRANCH  16  17
ENDBRANCH  15  16
ENDBRANCH  13  15
ENDBRANCH   9  13
BRANCH   8  24
HETATM   24  C   UNL     1      -7.510   6.318  66.467  1.00  0.00    -0.086 C  
BRANCH  24  25
HETATM   25  C   UNL     1      -8.535   6.908  67.409  1.00  0.00    -0.121 A  
HETATM   26  C   UNL     1      -9.911   6.715  67.293  1.00  0.00    -0.199 A  
HETATM   27  C   UNL     1      -8.958   8.297  69.375  1.00  0.00    -0.147 A  
HETATM   28  C   UNL     1     -10.347   8.126  69.265  1.00  0.00    -0.222 A  
HETATM   29  C   UNL     1      -8.071   7.691  68.475  1.00  0.00    -0.124 A  
HETATM   30  C   UNL     1     -10.785   7.263  68.240  1.00  0.00    -0.174 A  
BRANCH  28  31
HETATM   31  C   UNL     1     -11.304   8.757  70.230  1.00  0.00    -0.162 A  
HETATM   32  C   UNL     1     -13.164  10.354  70.541  1.00  0.00    -0.095 A  
HETATM   33  C   UNL     1     -12.399   9.508  69.730  1.00  0.00     0.706 A  
HETATM   34  C   UNL     1     -12.909  10.422  71.900  1.00  0.00    -0.519 A  
HETATM   35  C   UNL     1     -11.916   9.616  72.447  1.00  0.00     0.381 A  
HETATM   36  C   UNL     1     -11.130   8.774  71.633  1.00  0.00    -0.398 A  
BRANCH  36  37
HETATM   37  C   UNL     1     -10.172   7.925  72.366  1.00  0.00    -0.264 C  
HETATM   38  N   UNL     1     -10.291   6.650  72.540  1.00  0.00    -0.191 NA 
HETATM   39  O   UNL     1      -9.130   6.266  73.282  1.00  0.00    -0.130 OA 
HETATM   40  C   UNL     1      -8.400   7.411  73.473  1.00  0.00    -0.142 C  
HETATM   41  N   UNL     1      -9.047   8.429  72.888  1.00  0.00    -0.273 NA 
HETATM   42  O   UNL     1      -7.349   7.491  74.094  1.00  0.00    -0.107 OA 
ENDBRANCH  36  37
ENDBRANCH  28  31
ENDBRANCH  24  25
ENDBRANCH   8  24
ENDBRANCH   3   4
ENDBRANCH   2   3
TORSDOF 10
ENDMDL
MODEL      226
REMARK 921   NORMALIZED FREE ENERGY PREDICTED BY IDOCK:   -2.73 KCAL/MOL
REMARK 922        TOTAL FREE ENERGY PREDICTED BY IDOCK:   -7.25 KCAL/MOL
REMARK 923 INTER-LIGAND FREE ENERGY PREDICTED BY IDOCK:   -6.95 KCAL/MOL
REMARK 924 INTRA-LIGAND FREE ENERGY PREDICTED BY IDOCK:   -0.30 KCAL/MOL
REMARK 927      BINDING AFFINITY PREDICTED BY RF-SCORE:    0.00 PKD
ROOT
HETATM    1  C   UNL     1      -6.674   7.200  74.401  1.00  0.00    -0.085 C  
HETATM    2  C   UNL     1      -7.576   8.409  74.224  1.00  0.00    -0.186 C  
ENDROOT
BRANCH   2   3
HETATM    3  O   UNL     1      -7.444   8.908  72.891  1.00  0.00    -0.354 OA 
BRANCH   3   4
HETATM    4  C   UNL     1      -8.218   8.287  71.999  1.00  0.00    -0.160 A  
HETATM    5  N   UNL     1      -9.389   7.765  72.255  1.00  0.00    -0.147 NA 
HETATM    6  C   UNL     1      -9.821   7.258  71.061  1.00  0.00    -0.183 A  
HETATM    7  C   UNL     1      -8.886   7.458  70.035  1.00  0.00    -0.141 A  
HETATM    8  N   UNL     1      -7.880   8.168  70.670  1.00  0.00    -0.087 NA 
HETATM    9  C   UNL     1      -9.129   6.963  68.728  1.00  0.00    -0.133 A  
HETATM   10  C   UNL     1     -10.368   6.329  68.495  1.00  0.00    -0.238 A  
HETATM   11  C   UNL     1     -11.045   6.626  70.792  1.00  0.00    -0.336 A  
HETATM   12  C   UNL     1     -11.316   6.177  69.502  1.00  0.00    -0.426 A  
BRANCH   9  13
HETATM   13  C   UNL     1      -8.215   7.152  67.577  1.00  0.00    -0.117 C  
HETATM   14  O   UNL     1      -7.207   6.490  67.401  1.00  0.00    -0.081 OA 
BRANCH  13  15
HETATM   15  O   UNL     1      -8.625   8.199  66.812  1.00  0.00    -0.125 OA 
BRANCH  15  16
HETATM   16  C   UNL     1      -7.635   8.742  65.922  1.00  0.00    -0.090 C  
BRANCH  16  17
HETATM   17  C   UNL     1      -7.837   8.196  64.552  1.00  0.00    -0.138 C  
HETATM   18  O   UNL     1      -8.043   7.956  62.340  1.00  0.00    -0.155 OA 
HETATM   19  C   UNL     1      -7.832   8.817  63.392  1.00  0.00    -0.148 C  
HETATM   20  O   UNL     1      -8.090   6.844  64.384  1.00  0.00    -0.120 OA 
HETATM   21  C   UNL     1      -7.534  10.217  63.071  1.00  0.00    -0.144 C  
HETATM   22  C   UNL     1      -8.178   6.748  63.000  1.00  0.00     0.045 C  
HETATM   23  O   UNL     1      -8.370   5.692  62.409  1.00  0.00    -0.105 OA 
ENDBRANCH  16  17
ENDBRANCH  15  16
ENDBRANCH  13  15
ENDBRANCH   9  13
BRANCH   8  24
HETATM   24  C   UNL     1      -6.765   8.889  70.077  1.00  0.00    -0.043 C  
BRANCH  24  25
HETATM   25  C   UNL     1      -7.090  10.256  69.519  1.00  0.00    -0.107 A  
HETATM   26  C   UNL     1      -6.135  11.223  69.205  1.00  0.00    -0.062 A  
HETATM   27  C   UNL     1      -8.823  11.823  68.803  1.00  0.00     0.018 A  
HETATM   28  C   UNL     1      -7.877  12.814  68.496  1.00  0.00    -0.099 A  
HETATM   29  C   UNL     1      -8.437  10.567  69.292  1.00  0.00    -0.138 A  
HETATM   30  C   UNL     1      -6.524  12.447  68.648  1.00  0.00    -0.077 A  
BRANCH  28  31
HETATM   31  C   UNL     1      -8.276  14.154  67.960  1.00  0.00    -0.152 A  
HETATM   32  C   UNL     1      -7.524  16.259  66.905  1.00  0.00    -0.271 A  
HETATM   33  C   UNL     1      -7.342  14.902  67.197  1.00  0.00    -0.060 A  
HETATM   34  C   UNL     1      -8.685  16.900  67.301  1.00  0.00    -0.207 A  
HETATM   35  C   UNL     1      -9.675  16.172  67.953  1.00  0.00    -0.225 A  
HETATM   36  C   UNL     1      -9.492  14.809  68.266  1.00  0.00    -0.207 A  
BRANCH  36  37
HETATM   37  C   UNL     1     -10.659  14.156  68.888  1.00  0.00    -0.239 C  
HETATM   38  N   UNL     1     -11.057  12.953  68.638  1.00  0.00    -0.257 NA 
HETATM   39  O   UNL     1     -12.196  12.756  69.480  1.00  0.00    -0.222 OA 
HETATM   40  C   UNL     1     -12.358  13.919  70.187  1.00  0.00    -0.334 C  
HETATM   41  N   UNL     1     -11.389  14.774  69.824  1.00  0.00    -0.272 NA 
HETATM   42  O   UNL     1     -13.249  14.146  70.994  1.00  0.00    -0.336 OA 
ENDBRANCH  36  37
ENDBRANCH  28  31
ENDBRANCH  24  25
ENDBRANCH   8  24
ENDBRANCH   3   4
ENDBRANCH   2   3
TORSDOF 10
ENDMDL
MODEL      227
REMARK 921   NORMALIZED FREE ENERGY PREDICTED BY IDOCK:   -2.70 KCAL/MOL
REMARK 922        TOTAL FREE ENERGY PREDICTED BY IDOCK:   -7.20 KCAL/MOL
REMARK 923 INTER-LIGAND FREE ENERGY PREDICTED BY IDOCK:   -6.63 KCAL/MOL
REMARK 924 INTRA-LIGAND FREE ENERGY PREDICTED BY IDOCK:   -0.57 KCAL/MOL
REMARK 927      BINDING AFFINITY PREDICTED BY RF-SCORE:    0.00 PKD
ROOT
HETATM    1  C   UNL     1     -10.601   5.835  66.978  1.00  0.00    -0.373 C  
HETATM    2  C   UNL     1     -11.024   7.293  66.935  1.00  0.00    -0.067 C  
ENDROOT
BRANCH   2   3
HETATM    3  O   UNL     1      -9.864   8.121  66.826  1.00  0.00    -0.214 OA 
BRANCH   3   4
HETATM    4  C   UNL     1      -8.848   7.737  67.599  1.00  0.00    -0.128 A  
HETATM    5  N   UNL     1      -7.833   7.013  67.204  1.00  0.00    -0.108 NA 
HETATM    6  C   UNL     1      -7.039   6.880  68.308  1.00  0.00    -0.086 A  
HETATM    7  C   UNL     1      -7.579   7.529  69.427  1.00  0.00    -0.092 A  
HETATM    8  N   UNL     1      -8.729   8.112  68.919  1.00  0.00    -0.137 NA 
HETATM    9  C   UNL     1      -6.925   7.470  70.684  1.00  0.00    -0.051 A  
HETATM   10  C   UNL     1      -5.687   6.794  70.740  1.00  0.00    -0.027 A  
HETATM   11  C   UNL     1      -5.803   6.220  68.399  1.00  0.00    -0.016 A  
HETATM   12  C   UNL     1      -5.128   6.194  69.616  1.00  0.00    -0.012 A  
BRANCH   9  13
HETATM   13  C   UNL     1      -7.405   8.147  71.911  1.00  0.00    -0.089 C  
HETATM   14  O   UNL     1      -7.041   9.258  72.256  1.00  0.00    -0.300 OA 
BRANCH  13  15
HETATM   15  O   UNL     1      -8.235   7.328  72.612  1.00  0.00    -0.104 OA 
BRANCH  15  16
HETATM   16  C   UNL     1      -8.761   6.207  71.882  1.00  0.00    -0.137 C  
BRANCH  16  17
HETATM   17  C   UNL     1     -10.238   6.145  72.051  1.00  0.00    -0.194 C  
HETATM   18  O   UNL     1     -12.308   5.644  72.732  1.00  0.00    -0.065 OA 
HETATM   19  C   UNL     1     -10.960   5.401  72.862  1.00  0.00    -0.287 C  
HETATM   20  O   UNL     1     -11.052   6.945  71.265  1.00  0.00    -0.245 OA 
HETATM   21  C   UNL     1     -10.540   4.472  73.916  1.00  0.00    -0.335 C  
HETATM   22  C   UNL     1     -12.314   6.618  71.748  1.00  0.00    -0.337 C  
HETATM   23  O   UNL     1     -13.347   7.133  71.336  1.00  0.00    -0.381 OA 
ENDBRANCH  16  17
ENDBRANCH  15  16
ENDBRANCH  13  15
ENDBRANCH   9  13
BRANCH   8  24
HETATM   24  C   UNL     1      -9.576   9.127  69.524  1.00  0.00    -0.168 C  
BRANCH  24  25
HETATM   25  C   UNL     1      -9.573  10.476  68.842  1.00  0.00    -0.199 A  
HETATM   26  C   UNL     1      -8.429  11.105  68.351  1.00  0.00    -0.151 A  
HETATM   27  C   UNL     1     -10.879  12.399  68.086  1.00  0.00    -0.250 A  
HETATM   28  C   UNL     1      -9.736  13.053  67.601  1.00  0.00    -0.212 A  
HETATM   29  C   UNL     1     -10.801  11.133  68.682  1.00  0.00    -0.251 A  
HETATM   30  C   UNL     1      -8.526  12.336  67.691  1.00  0.00    -0.166 A  
BRANCH  28  31
HETATM   31  C   UNL     1      -9.809  14.400  66.948  1.00  0.00    -0.263 A  
HETATM   32  C   UNL     1     -10.847  15.780  65.180  1.00  0.00    -0.444 A  
HETATM   33  C   UNL     1     -10.862  14.674  66.037  1.00  0.00    -0.318 A  
HETATM   34  C   UNL     1      -9.813  16.697  65.255  1.00  0.00     0.385 A  
HETATM   35  C   UNL     1      -8.819  16.523  66.213  1.00  0.00    -0.364 A  
HETATM   36  C   UNL     1      -8.818  15.402  67.069  1.00  0.00    -0.252 A  
BRANCH  36  37
HETATM   37  C   UNL     1      -7.744  15.397  68.080  1.00  0.00    -0.125 C  
HETATM   38  N   UNL     1      -6.498  15.639  67.840  1.00  0.00    -0.135 NA 
HETATM   39  O   UNL     1      -5.850  15.540  69.112  1.00  0.00    -0.103 OA 
HETATM   40  C   UNL     1      -6.831  15.246  70.022  1.00  0.00    -0.080 C  
HETATM   41  N   UNL     1      -8.004  15.176  69.374  1.00  0.00    -0.213 NA 
HETATM   42  O   UNL     1      -6.661  15.057  71.218  1.00  0.00     0.465 OA 
ENDBRANCH  36  37
ENDBRANCH  28  31
ENDBRANCH  24  25
ENDBRANCH   8  24
ENDBRANCH   3   4
ENDBRANCH   2   3
TORSDOF 10
ENDMDL
MODEL      228
REMARK 921   NORMALIZED FREE ENERGY PREDICTED BY IDOCK:   -2.67 KCAL/MOL
REMARK 922        TOTAL FREE ENERGY PREDICTED BY IDOCK:   -7.15 KCAL/MOL
REMARK 923 INTER-LIGAND FREE ENERGY PREDICTED BY IDOCK:   -7.08 KCAL/MOL
REMARK 924 INTRA-LIGAND FREE ENERGY PREDICTED BY IDOCK:   -0.07 KCAL/MOL
REMARK 927      BINDING AFFINITY PREDICTED BY RF-SCORE:    0.00 PKD
ROOT
HETATM    1  C   UNL     1     -10.397   4.816  65.172  1.00  0.00     0.037 C  
HETATM    2  C   UNL     1      -9.506   5.559  66.152  1.00  0.00    -0.151 C  
ENDROOT
BRANCH   2   3
HETATM    3  O   UNL     1      -9.929   6.921  66.241  1.00  0.00    -0.055 OA 
BRANCH   3   4
HETATM    4  C   UNL     1      -8.929   7.794  66.372  1.00  0.00    -0.163 A  
HETATM    5  N   UNL     1      -7.666   7.477  66.490  1.00  0.00    -0.095 NA 
HETATM    6  C   UNL     1      -7.007   8.672  66.581  1.00  0.00    -0.079 A  
HETATM    7  C   UNL     1      -7.886   9.763  66.532  1.00  0.00    -0.109 A  
HETATM    8  N   UNL     1      -9.118   9.157  66.351  1.00  0.00    -0.159 NA 
HETATM    9  C   UNL     1      -7.399  11.090  66.656  1.00  0.00    -0.143 A  
HETATM   10  C   UNL     1      -6.002  11.261  66.761  1.00  0.00    -0.132 A  
HETATM   11  C   UNL     1      -5.622   8.879  66.682  1.00  0.00    -0.040 A  
HETATM   12  C   UNL     1      -5.128  10.179  66.758  1.00  0.00    -0.040 A  
BRANCH   9  13
HETATM   13  C   UNL     1      -8.247  12.303  66.587  1.00  0.00     0.025 C  
HETATM   14  O   UNL     1      -8.938  12.590  65.626  1.00  0.00     0.196 OA 
BRANCH  13  15
HETATM   15  O   UNL     1      -8.081  13.063  67.703  1.00  0.00    -0.146 OA 
BRANCH  15  16
HETATM   16  C   UNL     1      -9.204  13.881  68.070  1.00  0.00    -0.193 C  
BRANCH  16  17
HETATM   17  C   UNL     1      -8.937  15.297  67.697  1.00  0.00    -0.179 C  
HETATM   18  O   UNL     1      -8.944  17.529  67.577  1.00  0.00    -0.227 OA 
HETATM   19  C   UNL     1      -9.465  16.404  68.174  1.00  0.00    -0.213 C  
HETATM   20  O   UNL     1      -8.024  15.581  66.695  1.00  0.00    -0.226 OA 
HETATM   21  C   UNL     1     -10.406  16.602  69.282  1.00  0.00    -0.318 C  
HETATM   22  C   UNL     1      -8.045  16.971  66.685  1.00  0.00    -0.262 C  
HETATM   23  O   UNL     1      -7.342  17.650  65.946  1.00  0.00    -0.435 OA 
ENDBRANCH  16  17
ENDBRANCH  15  16
ENDBRANCH  13  15
ENDBRANCH   9  13
BRANCH   8  24
HETATM   24  C   UNL     1     -10.382   9.767  65.969  1.00  0.00    -0.114 C  
BRANCH  24  25
HETATM   25  C   UNL     1     -11.038  10.632  67.021  1.00  0.00    -0.217 A  
HETATM   26  C   UNL     1     -11.770  11.786  66.744  1.00  0.00    -0.197 A  
HETATM   27  C   UNL     1     -11.467  11.004  69.398  1.00  0.00    -0.364 A  
HETATM   28  C   UNL     1     -12.194  12.177  69.140  1.00  0.00    -0.086 A  
HETATM   29  C   UNL     1     -10.912  10.241  68.362  1.00  0.00    -0.308 A  
HETATM   30  C   UNL     1     -12.384  12.501  67.780  1.00  0.00     0.435 A  
BRANCH  28  31
HETATM   31  C   UNL     1     -12.804  12.993  70.238  1.00  0.00     0.168 A  
HETATM   32  C   UNL     1     -13.229  15.257  71.131  1.00  0.00    -0.567 A  
HETATM   33  C   UNL     1     -12.941  14.395  70.068  1.00  0.00     0.084 A  
HETATM   34  C   UNL     1     -13.466  14.741  72.393  1.00  0.00    -0.529 A  
HETATM   35  C   UNL     1     -13.451  13.362  72.578  1.00  0.00    -0.640 A  
HETATM   36  C   UNL     1     -13.145  12.488  71.514  1.00  0.00    -0.373 A  
BRANCH  36  37
HETATM   37  C   UNL     1     -13.244  11.054  71.846  1.00  0.00    -0.398 C  
HETATM   38  N   UNL     1     -14.309  10.463  72.277  1.00  0.00     0.657 NA 
HETATM   39  O   UNL     1     -13.935   9.092  72.439  1.00  0.00    -0.471 OA 
HETATM   40  C   UNL     1     -12.621   9.005  72.058  1.00  0.00    -0.394 C  
HETATM   41  N   UNL     1     -12.208  10.223  71.677  1.00  0.00    -0.349 NA 
HETATM   42  O   UNL     1     -11.937   7.992  72.084  1.00  0.00    -0.312 OA 
ENDBRANCH  36  37
ENDBRANCH  28  31
ENDBRANCH  24  25
ENDBRANCH   8  24
ENDBRANCH   3   4
ENDBRANCH   2   3
TORSDOF 10
ENDMDL
MODEL      229
REMARK 921   NORMALIZED FREE ENERGY PREDICTED BY IDOCK:   -2.63 KCAL/MOL
REMARK 922        TOTAL FREE ENERGY PREDICTED BY IDOCK:   -7.09 KCAL/MOL
REMARK 923 INTER-LIGAND FREE ENERGY PREDICTED BY IDOCK:   -5.83 KCAL/MOL
REMARK 924 INTRA-LIGAND FREE ENERGY PREDICTED BY IDOCK:   -1.26 KCAL/MOL
REMARK 927      BINDING AFFINITY PREDICTED BY RF-SCORE:    0.00 PKD
ROOT
HETATM    1  C   UNL     1     -10.880  10.757  63.155  1.00  0.00     0.521 C  
HETATM    2  C   UNL     1     -11.112  11.326  64.543  1.00  0.00    -0.175 C  
ENDROOT
BRANCH   2   3
HETATM    3  O   UNL     1     -10.998  12.750  64.498  1.00  0.00    -0.306 OA 
BRANCH   3   4
HETATM    4  C   UNL     1     -10.929  13.329  65.697  1.00  0.00    -0.277 A  
HETATM    5  N   UNL     1     -11.956  13.726  66.401  1.00  0.00    -0.413 NA 
HETATM    6  C   UNL     1     -11.424  14.236  67.552  1.00  0.00    -0.345 A  
HETATM    7  C   UNL     1     -10.024  14.166  67.561  1.00  0.00    -0.236 A  
HETATM    8  N   UNL     1      -9.740  13.531  66.363  1.00  0.00    -0.288 NA 
HETATM    9  C   UNL     1      -9.280  14.685  68.651  1.00  0.00    -0.194 A  
HETATM   10  C   UNL     1     -10.007  15.207  69.743  1.00  0.00    -0.149 A  
HETATM   11  C   UNL     1     -12.115  14.758  68.657  1.00  0.00    -0.223 A  
HETATM   12  C   UNL     1     -11.398  15.229  69.754  1.00  0.00    -0.306 A  
BRANCH   9  13
HETATM   13  C   UNL     1      -7.803  14.630  68.760  1.00  0.00    -0.146 C  
HETATM   14  O   UNL     1      -7.202  13.735  69.327  1.00  0.00    -0.069 OA 
BRANCH  13  15
HETATM   15  O   UNL     1      -7.244  15.741  68.209  1.00  0.00    -0.111 OA 
BRANCH  15  16
HETATM   16  C   UNL     1      -5.887  16.010  68.597  1.00  0.00    -0.104 C  
BRANCH  16  17
HETATM   17  C   UNL     1      -5.809  17.333  69.274  1.00  0.00    -0.203 C  
HETATM   18  O   UNL     1      -5.857  19.519  69.739  1.00  0.00    -0.240 OA 
HETATM   19  C   UNL     1      -6.010  18.539  68.786  1.00  0.00    -0.210 C  
HETATM   20  O   UNL     1      -5.463  17.397  70.613  1.00  0.00    -0.249 OA 
HETATM   21  C   UNL     1      -6.465  18.956  67.455  1.00  0.00    -0.199 C  
HETATM   22  C   UNL     1      -5.538  18.765  70.855  1.00  0.00    -0.141 C  
HETATM   23  O   UNL     1      -5.330  19.267  71.953  1.00  0.00    -0.466 OA 
ENDBRANCH  16  17
ENDBRANCH  15  16
ENDBRANCH  13  15
ENDBRANCH   9  13
BRANCH   8  24
HETATM   24  C   UNL     1      -8.485  12.944  65.921  1.00  0.00     1.149 C  
BRANCH  24  25
HETATM   25  C   UNL     1      -8.227  11.527  66.381  1.00  0.00    -0.092 A  
HETATM   26  C   UNL     1      -8.313  10.406  65.555  1.00  0.00    -0.168 A  
HETATM   27  C   UNL     1      -7.638  10.043  68.231  1.00  0.00    -0.084 A  
HETATM   28  C   UNL     1      -7.735   8.902  67.419  1.00  0.00    -0.096 A  
HETATM   29  C   UNL     1      -7.867  11.328  67.721  1.00  0.00    -0.115 A  
HETATM   30  C   UNL     1      -8.010   9.133  66.056  1.00  0.00    -0.103 A  
BRANCH  28  31
HETATM   31  C   UNL     1      -7.479   7.524  67.950  1.00  0.00    -0.105 A  
HETATM   32  C   UNL     1      -6.443   5.318  67.541  1.00  0.00    -0.052 A  
HETATM   33  C   UNL     1      -6.535   6.693  67.293  1.00  0.00    -0.045 A  
HETATM   34  C   UNL     1      -7.242   4.737  68.511  1.00  0.00    -0.061 A  
HETATM   35  C   UNL     1      -8.101   5.540  69.254  1.00  0.00    -0.095 A  
HETATM   36  C   UNL     1      -8.211   6.922  68.999  1.00  0.00    -0.125 A  
BRANCH  36  37
HETATM   37  C   UNL     1      -9.104   7.651  69.919  1.00  0.00    -0.147 C  
HETATM   38  N   UNL     1      -8.713   8.410  70.888  1.00  0.00    -0.143 NA 
HETATM   39  O   UNL     1      -9.916   8.907  71.480  1.00  0.00    -0.267 OA 
HETATM   40  C   UNL     1     -10.950   8.372  70.757  1.00  0.00    -0.247 C  
HETATM   41  N   UNL     1     -10.435   7.608  69.782  1.00  0.00    -0.227 NA 
HETATM   42  O   UNL     1     -12.141   8.544  70.980  1.00  0.00    -0.282 OA 
ENDBRANCH  36  37
ENDBRANCH  28  31
ENDBRANCH  24  25
ENDBRANCH   8  24
ENDBRANCH   3   4
ENDBRANCH   2   3
TORSDOF 10
ENDMDL
MODEL      230
REMARK 921   NORMALIZED FREE ENERGY PREDICTED BY IDOCK:   -2.61 KCAL/MOL
REMARK 922        TOTAL FREE ENERGY PREDICTED BY IDOCK:   -7.05 KCAL/MOL
REMARK 923 INTER-LIGAND FREE ENERGY PREDICTED BY IDOCK:   -6.82 KCAL/MOL
REMARK 924 INTRA-LIGAND FREE ENERGY PREDICTED BY IDOCK:   -0.23 KCAL/MOL
REMARK 927      BINDING AFFINITY PREDICTED BY RF-SCORE:    0.00 PKD
ROOT
HETATM    1  C   UNL     1     -11.137   5.787  69.039  1.00  0.00    -0.174 C  
HETATM    2  C   UNL     1     -11.625   6.825  70.034  1.00  0.00    -0.310 C  
ENDROOT
BRANCH   2   3
HETATM    3  O   UNL     1     -10.722   6.884  71.141  1.00  0.00    -0.221 OA 
BRANCH   3   4
HETATM    4  C   UNL     1      -9.442   7.024  70.791  1.00  0.00    -0.161 A  
HETATM    5  N   UNL     1      -8.720   6.108  70.201  1.00  0.00    -0.139 NA 
HETATM    6  C   UNL     1      -7.493   6.683  70.021  1.00  0.00    -0.094 A  
HETATM    7  C   UNL     1      -7.446   7.991  70.524  1.00  0.00    -0.071 A  
HETATM    8  N   UNL     1      -8.740   8.193  70.976  1.00  0.00    -0.132 NA 
HETATM    9  C   UNL     1      -6.244   8.743  70.473  1.00  0.00    -0.037 A  
HETATM   10  C   UNL     1      -5.133   8.147  69.839  1.00  0.00    -0.023 A  
HETATM   11  C   UNL     1      -6.370   6.123  69.392  1.00  0.00    -0.041 A  
HETATM   12  C   UNL     1      -5.197   6.869  69.294  1.00  0.00    -0.014 A  
BRANCH   9  13
HETATM   13  C   UNL     1      -6.108  10.138  70.953  1.00  0.00    -0.050 C  
HETATM   14  O   UNL     1      -5.700  10.433  72.063  1.00  0.00    -0.300 OA 
BRANCH  13  15
HETATM   15  O   UNL     1      -6.566  11.010  70.015  1.00  0.00    -0.149 OA 
BRANCH  15  16
HETATM   16  C   UNL     1      -5.665  12.072  69.663  1.00  0.00    -0.095 C  
BRANCH  16  17
HETATM   17  C   UNL     1      -6.412  13.155  68.967  1.00  0.00    -0.103 C  
HETATM   18  O   UNL     1      -7.225  15.132  68.312  1.00  0.00    -0.102 OA 
HETATM   19  C   UNL     1      -6.403  14.453  69.182  1.00  0.00    -0.102 C  
HETATM   20  O   UNL     1      -7.281  12.835  67.937  1.00  0.00    -0.094 OA 
HETATM   21  C   UNL     1      -5.591  15.252  70.106  1.00  0.00    -0.130 C  
HETATM   22  C   UNL     1      -7.730  14.093  67.550  1.00  0.00    -0.185 C  
HETATM   23  O   UNL     1      -8.513  14.273  66.626  1.00  0.00    -0.100 OA 
ENDBRANCH  16  17
ENDBRANCH  15  16
ENDBRANCH  13  15
ENDBRANCH   9  13
BRANCH   8  24
HETATM   24  C   UNL     1      -9.381   9.439  71.364  1.00  0.00     0.111 C  
BRANCH  24  25
HETATM   25  C   UNL     1      -9.880  10.302  70.227  1.00  0.00     0.122 A  
HETATM   26  C   UNL     1      -9.102  10.694  69.138  1.00  0.00    -0.152 A  
HETATM   27  C   UNL     1     -11.746  11.552  69.263  1.00  0.00    -0.397 A  
HETATM   28  C   UNL     1     -10.973  11.969  68.168  1.00  0.00    -0.273 A  
HETATM   29  C   UNL     1     -11.215  10.727  70.264  1.00  0.00    -0.326 A  
HETATM   30  C   UNL     1      -9.661  11.456  68.106  1.00  0.00    -0.190 A  
BRANCH  28  31
HETATM   31  C   UNL     1     -11.534  12.838  67.085  1.00  0.00    -0.394 A  
HETATM   32  C   UNL     1     -11.952  13.102  64.664  1.00  0.00    -0.439 A  
HETATM   33  C   UNL     1     -11.710  12.299  65.784  1.00  0.00    -0.445 A  
HETATM   34  C   UNL     1     -12.102  14.470  64.814  1.00  0.00    -0.454 A  
HETATM   35  C   UNL     1     -12.047  15.023  66.090  1.00  0.00     0.149 A  
HETATM   36  C   UNL     1     -11.787  14.223  67.221  1.00  0.00    -0.444 A  
BRANCH  36  37
HETATM   37  C   UNL     1     -11.836  14.940  68.509  1.00  0.00    -0.294 C  
HETATM   38  N   UNL     1     -12.657  14.680  69.473  1.00  0.00    -0.107 NA 
HETATM   39  O   UNL     1     -12.320  15.609  70.508  1.00  0.00    -0.397 OA 
HETATM   40  C   UNL     1     -11.274  16.355  70.030  1.00  0.00    -0.258 C  
HETATM   41  N   UNL     1     -10.972  15.921  68.797  1.00  0.00    -0.281 NA 
HETATM   42  O   UNL     1     -10.727  17.275  70.620  1.00  0.00     0.473 OA 
ENDBRANCH  36  37
ENDBRANCH  28  31
ENDBRANCH  24  25
ENDBRANCH   8  24
ENDBRANCH   3   4
ENDBRANCH   2   3
TORSDOF 10
ENDMDL
MODEL      231
REMARK 921   NORMALIZED FREE ENERGY PREDICTED BY IDOCK:   -2.30 KCAL/MOL
REMARK 922        TOTAL FREE ENERGY PREDICTED BY IDOCK:   -6.56 KCAL/MOL
REMARK 923 INTER-LIGAND FREE ENERGY PREDICTED BY IDOCK:   -6.32 KCAL/MOL
REMARK 924 INTRA-LIGAND FREE ENERGY PREDICTED BY IDOCK:   -0.24 KCAL/MOL
REMARK 927      BINDING AFFINITY PREDICTED BY RF-SCORE:    0.00 PKD
ROOT
HETATM    1  C   UNL     1     -12.653  15.641  64.432  1.00  0.00     0.379 C  
HETATM    2  C   UNL     1     -12.480  14.274  65.072  1.00  0.00    -0.400 C  
ENDROOT
BRANCH   2   3
HETATM    3  O   UNL     1     -11.163  13.787  64.802  1.00  0.00    -0.337 OA 
BRANCH   3   4
HETATM    4  C   UNL     1     -10.190  14.530  65.330  1.00  0.00    -0.402 A  
HETATM    5  N   UNL     1      -9.816  15.704  64.889  1.00  0.00    -0.163 NA 
HETATM    6  C   UNL     1      -8.814  16.098  65.730  1.00  0.00     0.034 A  
HETATM    7  C   UNL     1      -8.547  15.137  66.716  1.00  0.00    -0.262 A  
HETATM    8  N   UNL     1      -9.488  14.156  66.453  1.00  0.00    -0.285 NA 
HETATM    9  C   UNL     1      -7.508  15.340  67.661  1.00  0.00    -0.197 A  
HETATM   10  C   UNL     1      -6.811  16.567  67.606  1.00  0.00    -0.161 A  
HETATM   11  C   UNL     1      -8.104  17.308  65.707  1.00  0.00     0.205 A  
HETATM   12  C   UNL     1      -7.113  17.540  66.658  1.00  0.00    -0.268 A  
BRANCH   9  13
HETATM   13  C   UNL     1      -7.173  14.397  68.753  1.00  0.00    -0.128 C  
HETATM   14  O   UNL     1      -6.609  13.332  68.576  1.00  0.00    -0.075 OA 
BRANCH  13  15
HETATM   15  O   UNL     1      -7.645  14.860  69.942  1.00  0.00    -0.130 OA 
BRANCH  15  16
HETATM   16  C   UNL     1      -9.034  14.596  70.202  1.00  0.00     1.045 C  
BRANCH  16  17
HETATM   17  C   UNL     1      -9.870  15.681  69.619  1.00  0.00    -0.280 C  
HETATM   18  O   UNL     1     -11.555  16.880  68.772  1.00  0.00     0.017 OA 
HETATM   19  C   UNL     1     -11.136  15.664  69.260  1.00  0.00    -0.293 C  
HETATM   20  O   UNL     1      -9.305  16.921  69.369  1.00  0.00    -0.087 OA 
HETATM   21  C   UNL     1     -12.146  14.610  69.406  1.00  0.00    -0.317 C  
HETATM   22  C   UNL     1     -10.396  17.629  68.876  1.00  0.00    -0.323 C  
HETATM   23  O   UNL     1     -10.341  18.808  68.550  1.00  0.00    -0.361 OA 
ENDBRANCH  16  17
ENDBRANCH  15  16
ENDBRANCH  13  15
ENDBRANCH   9  13
BRANCH   8  24
HETATM   24  C   UNL     1      -9.884  13.032  67.286  1.00  0.00    -0.227 C  
BRANCH  24  25
HETATM   25  C   UNL     1      -9.512  11.663  66.761  1.00  0.00    -0.197 A  
HETATM   26  C   UNL     1     -10.131  11.044  65.676  1.00  0.00    -0.310 A  
HETATM   27  C   UNL     1      -8.085   9.693  66.993  1.00  0.00    -0.113 A  
HETATM   28  C   UNL     1      -8.706   9.048  65.912  1.00  0.00    -0.193 A  
HETATM   29  C   UNL     1      -8.470  10.977  67.400  1.00  0.00    -0.132 A  
HETATM   30  C   UNL     1      -9.690   9.793  65.228  1.00  0.00    -0.371 A  
BRANCH  28  31
HETATM   31  C   UNL     1      -8.293   7.682  65.457  1.00  0.00    -0.139 A  
HETATM   32  C   UNL     1      -7.172   6.343  63.708  1.00  0.00    -0.055 A  
HETATM   33  C   UNL     1      -7.387   7.556  64.373  1.00  0.00    -0.088 A  
HETATM   34  C   UNL     1      -7.800   5.193  64.153  1.00  0.00    -0.098 A  
HETATM   35  C   UNL     1      -8.610   5.253  65.283  1.00  0.00    -0.150 A  
HETATM   36  C   UNL     1      -8.844   6.475  65.947  1.00  0.00    -0.131 A  
BRANCH  36  37
HETATM   37  C   UNL     1      -9.660   6.365  67.171  1.00  0.00    -0.134 C  
HETATM   38  N   UNL     1     -10.930   6.594  67.240  1.00  0.00    -0.375 NA 
HETATM   39  O   UNL     1     -11.278   6.344  68.605  1.00  0.00    -0.329 OA 
HETATM   40  C   UNL     1     -10.122   5.964  69.234  1.00  0.00    -0.194 C  
HETATM   41  N   UNL     1      -9.128   5.964  68.332  1.00  0.00    -0.115 NA 
HETATM   42  O   UNL     1     -10.012   5.693  70.421  1.00  0.00    -0.182 OA 
ENDBRANCH  36  37
ENDBRANCH  28  31
ENDBRANCH  24  25
ENDBRANCH   8  24
ENDBRANCH   3   4
ENDBRANCH   2   3
TORSDOF 10
ENDMDL
MODEL      232
REMARK 921   NORMALIZED FREE ENERGY PREDICTED BY IDOCK:   -2.26 KCAL/MOL
REMARK 922        TOTAL FREE ENERGY PREDICTED BY IDOCK:   -6.50 KCAL/MOL
REMARK 923 INTER-LIGAND FREE ENERGY PREDICTED BY IDOCK:   -5.74 KCAL/MOL
REMARK 924 INTRA-LIGAND FREE ENERGY PREDICTED BY IDOCK:   -0.76 KCAL/MOL
REMARK 927      BINDING AFFINITY PREDICTED BY RF-SCORE:    0.00 PKD
ROOT
HETATM    1  C   UNL     1      -7.861  11.057  69.085  1.00  0.00    -0.092 C  
HETATM    2  C   UNL     1      -8.266  11.110  67.622  1.00  0.00    -0.118 C  
ENDROOT
BRANCH   2   3
HETATM    3  O   UNL     1      -9.494  10.401  67.444  1.00  0.00    -0.148 OA 
BRANCH   3   4
HETATM    4  C   UNL     1     -10.364  10.560  68.442  1.00  0.00    -0.176 A  
HETATM    5  N   UNL     1     -10.775  11.712  68.905  1.00  0.00    -0.213 NA 
HETATM    6  C   UNL     1     -11.660  11.400  69.899  1.00  0.00    -0.323 A  
HETATM    7  C   UNL     1     -11.795  10.015  70.069  1.00  0.00    -0.126 A  
HETATM    8  N   UNL     1     -10.974   9.502  69.078  1.00  0.00    -0.154 NA 
HETATM    9  C   UNL     1     -12.635   9.489  71.084  1.00  0.00    -0.383 A  
HETATM   10  C   UNL     1     -13.372  10.411  71.859  1.00  0.00    -0.469 A  
HETATM   11  C   UNL     1     -12.411  12.288  70.685  1.00  0.00    -0.323 A  
HETATM   12  C   UNL     1     -13.275  11.784  71.654  1.00  0.00    -0.368 A  
BRANCH   9  13
HETATM   13  C   UNL     1     -12.861   8.044  71.319  1.00  0.00    -0.199 C  
HETATM   14  O   UNL     1     -13.259   7.275  70.462  1.00  0.00     0.143 OA 
BRANCH  13  15
HETATM   15  O   UNL     1     -12.633   7.734  72.624  1.00  0.00    -0.057 OA 
BRANCH  15  16
HETATM   16  C   UNL     1     -11.931   6.501  72.855  1.00  0.00     0.356 C  
BRANCH  16  17
HETATM   17  C   UNL     1     -10.571   6.789  73.385  1.00  0.00    -0.325 C  
HETATM   18  O   UNL     1      -8.525   6.619  74.269  1.00  0.00    -0.129 OA 
HETATM   19  C   UNL     1      -9.682   5.970  73.905  1.00  0.00    -0.180 C  
HETATM   20  O   UNL     1     -10.097   8.091  73.385  1.00  0.00    -0.279 OA 
HETATM   21  C   UNL     1      -9.708   4.509  74.040  1.00  0.00    -0.152 C  
HETATM   22  C   UNL     1      -8.821   7.922  73.912  1.00  0.00    -0.254 C  
HETATM   23  O   UNL     1      -8.027   8.844  74.061  1.00  0.00    -0.347 OA 
ENDBRANCH  16  17
ENDBRANCH  15  16
ENDBRANCH  13  15
ENDBRANCH   9  13
BRANCH   8  24
HETATM   24  C   UNL     1     -10.895   8.138  68.582  1.00  0.00     0.083 C  
BRANCH  24  25
HETATM   25  C   UNL     1      -9.888   7.246  69.271  1.00  0.00    -0.166 A  
HETATM   26  C   UNL     1     -10.171   5.970  69.757  1.00  0.00    -0.265 A  
HETATM   27  C   UNL     1      -7.595   6.975  70.075  1.00  0.00    -0.099 A  
HETATM   28  C   UNL     1      -7.867   5.696  70.584  1.00  0.00    -0.100 A  
HETATM   29  C   UNL     1      -8.580   7.729  69.422  1.00  0.00    -0.135 A  
HETATM   30  C   UNL     1      -9.163   5.195  70.342  1.00  0.00    -0.193 A  
BRANCH  28  31
HETATM   31  C   UNL     1      -6.819   4.875  71.271  1.00  0.00    -0.043 A  
HETATM   32  C   UNL     1      -6.022   2.605  71.836  1.00  0.00    -0.013 A  
HETATM   33  C   UNL     1      -6.767   3.477  71.035  1.00  0.00    -0.032 A  
HETATM   34  C   UNL     1      -5.239   3.109  72.860  1.00  0.00     0.000 A  
HETATM   35  C   UNL     1      -5.175   4.485  73.053  1.00  0.00    -0.007 A  
HETATM   36  C   UNL     1      -5.937   5.369  72.260  1.00  0.00    -0.026 A  
BRANCH  36  37
HETATM   37  C   UNL     1      -5.705   6.799  72.532  1.00  0.00    -0.038 C  
HETATM   38  N   UNL     1      -5.301   7.285  73.660  1.00  0.00    -0.045 NA 
HETATM   39  O   UNL     1      -5.204   8.695  73.444  1.00  0.00    -0.056 OA 
HETATM   40  C   UNL     1      -5.569   8.910  72.140  1.00  0.00    -0.062 C  
HETATM   41  N   UNL     1      -5.861   7.727  71.580  1.00  0.00    -0.035 NA 
HETATM   42  O   UNL     1      -5.638  10.001  71.590  1.00  0.00    -0.193 OA 
ENDBRANCH  36  37
ENDBRANCH  28  31
ENDBRANCH  24  25
ENDBRANCH   8  24
ENDBRANCH   3   4
ENDBRANCH   2   3
TORSDOF 10
ENDMDL
MODEL      233
REMARK 921   NORMALIZED FREE ENERGY PREDICTED BY IDOCK:   -2.10 KCAL/MOL
REMARK 922        TOTAL FREE ENERGY PREDICTED BY IDOCK:   -6.25 KCAL/MOL
REMARK 923 INTER-LIGAND FREE ENERGY PREDICTED BY IDOCK:   -7.19 KCAL/MOL
REMARK 924 INTRA-LIGAND FREE ENERGY PREDICTED BY IDOCK:    0.94 KCAL/MOL
REMARK 927      BINDING AFFINITY PREDICTED BY RF-SCORE:    0.00 PKD
ROOT
HETATM    1  C   UNL     1      -8.523  10.845  62.640  1.00  0.00    -0.235 C  
HETATM    2  C   UNL     1      -8.493  10.651  64.146  1.00  0.00    -0.063 C  
ENDROOT
BRANCH   2   3
HETATM    3  O   UNL     1      -9.233   9.477  64.489  1.00  0.00    -0.238 OA 
BRANCH   3   4
HETATM    4  C   UNL     1      -8.943   8.985  65.694  1.00  0.00    -0.202 A  
HETATM    5  N   UNL     1      -7.832   8.373  66.009  1.00  0.00    -0.095 NA 
HETATM    6  C   UNL     1      -7.961   8.061  67.334  1.00  0.00    -0.122 A  
HETATM    7  C   UNL     1      -9.193   8.478  67.855  1.00  0.00    -0.139 A  
HETATM    8  N   UNL     1      -9.785   9.113  66.776  1.00  0.00    -0.191 NA 
HETATM    9  C   UNL     1      -9.537   8.206  69.205  1.00  0.00    -0.157 A  
HETATM   10  C   UNL     1      -8.567   7.566  70.005  1.00  0.00    -0.139 A  
HETATM   11  C   UNL     1      -7.017   7.429  68.160  1.00  0.00    -0.075 A  
HETATM   12  C   UNL     1      -7.324   7.198  69.498  1.00  0.00    -0.089 A  
BRANCH   9  13
HETATM   13  C   UNL     1     -10.801   8.633  69.849  1.00  0.00    -0.208 C  
HETATM   14  O   UNL     1     -11.463   7.915  70.578  1.00  0.00    -0.267 OA 
BRANCH  13  15
HETATM   15  O   UNL     1     -11.137   9.890  69.452  1.00  0.00    -0.232 OA 
BRANCH  15  16
HETATM   16  C   UNL     1     -12.525  10.235  69.591  1.00  0.00     0.195 C  
BRANCH  16  17
HETATM   17  C   UNL     1     -12.661  11.428  70.470  1.00  0.00    -0.224 C  
HETATM   18  O   UNL     1     -12.355  13.385  71.505  1.00  0.00    -0.229 OA 
HETATM   19  C   UNL     1     -11.879  12.480  70.585  1.00  0.00     0.076 C  
HETATM   20  O   UNL     1     -13.733  11.516  71.343  1.00  0.00     0.313 OA 
HETATM   21  C   UNL     1     -10.685  12.857  69.822  1.00  0.00     0.595 C  
HETATM   22  C   UNL     1     -13.511  12.756  71.932  1.00  0.00    -0.358 C  
HETATM   23  O   UNL     1     -14.261  13.249  72.766  1.00  0.00    -0.661 OA 
ENDBRANCH  16  17
ENDBRANCH  15  16
ENDBRANCH  13  15
ENDBRANCH   9  13
BRANCH   8  24
HETATM   24  C   UNL     1     -10.955   9.976  66.760  1.00  0.00     0.053 C  
BRANCH  24  25
HETATM   25  C   UNL     1     -10.675  11.461  66.761  1.00  0.00    -0.316 A  
HETATM   26  C   UNL     1     -11.564  12.428  66.293  1.00  0.00    -0.449 A  
HETATM   27  C   UNL     1      -9.099  13.254  67.288  1.00  0.00    -0.221 A  
HETATM   28  C   UNL     1      -9.974  14.240  66.806  1.00  0.00    -0.266 A  
HETATM   29  C   UNL     1      -9.446  11.896  67.278  1.00  0.00    -0.176 A  
HETATM   30  C   UNL     1     -11.239  13.788  66.375  1.00  0.00    -0.321 A  
BRANCH  28  31
HETATM   31  C   UNL     1      -9.620  15.695  66.826  1.00  0.00    -0.257 A  
HETATM   32  C   UNL     1      -8.145  17.469  65.941  1.00  0.00    -0.050 A  
HETATM   33  C   UNL     1      -8.746  16.210  65.834  1.00  0.00    -0.126 A  
HETATM   34  C   UNL     1      -8.456  18.293  67.009  1.00  0.00    -0.256 A  
HETATM   35  C   UNL     1      -9.394  17.869  67.944  1.00  0.00    -0.271 A  
HETATM   36  C   UNL     1      -9.992  16.595  67.852  1.00  0.00    -0.254 A  
BRANCH  36  37
HETATM   37  C   UNL     1     -11.022  16.321  68.871  1.00  0.00    -0.334 C  
HETATM   38  N   UNL     1     -12.193  15.830  68.630  1.00  0.00    -0.019 NA 
HETATM   39  O   UNL     1     -12.822  15.726  69.910  1.00  0.00    -0.157 OA 
HETATM   40  C   UNL     1     -11.909  16.179  70.826  1.00  0.00    -0.250 C  
HETATM   41  N   UNL     1     -10.791  16.529  70.173  1.00  0.00    -0.284 NA 
HETATM   42  O   UNL     1     -12.093  16.269  72.032  1.00  0.00    -0.489 OA 
ENDBRANCH  36  37
ENDBRANCH  28  31
ENDBRANCH  24  25
ENDBRANCH   8  24
ENDBRANCH   3   4
ENDBRANCH   2   3
TORSDOF 10
ENDMDL
MODEL      234
REMARK 921   NORMALIZED FREE ENERGY PREDICTED BY IDOCK:   -2.10 KCAL/MOL
REMARK 922        TOTAL FREE ENERGY PREDICTED BY IDOCK:   -6.24 KCAL/MOL
REMARK 923 INTER-LIGAND FREE ENERGY PREDICTED BY IDOCK:   -5.40 KCAL/MOL
REMARK 924 INTRA-LIGAND FREE ENERGY PREDICTED BY IDOCK:   -0.84 KCAL/MOL
REMARK 927      BINDING AFFINITY PREDICTED BY RF-SCORE:    0.00 PKD
ROOT
HETATM    1  C   UNL     1     -12.840  12.524  64.852  1.00  0.00    -0.216 C  
HETATM    2  C   UNL     1     -12.129  13.768  64.351  1.00  0.00    -0.436 C  
ENDROOT
BRANCH   2   3
HETATM    3  O   UNL     1     -12.661  14.918  65.013  1.00  0.00    -0.188 OA 
BRANCH   3   4
HETATM    4  C   UNL     1     -11.733  15.728  65.526  1.00  0.00     0.425 A  
HETATM    5  N   UNL     1     -11.392  16.889  65.032  1.00  0.00    -0.254 NA 
HETATM    6  C   UNL     1     -10.431  17.368  65.878  1.00  0.00    -0.252 A  
HETATM    7  C   UNL     1     -10.156  16.474  66.922  1.00  0.00    -0.281 A  
HETATM    8  N   UNL     1     -11.050  15.442  66.687  1.00  0.00    -0.283 NA 
HETATM    9  C   UNL     1      -9.154  16.769  67.882  1.00  0.00    -0.224 A  
HETATM   10  C   UNL     1      -8.504  18.017  67.779  1.00  0.00    -0.247 A  
HETATM   11  C   UNL     1      -9.768  18.603  65.808  1.00  0.00     0.231 A  
HETATM   12  C   UNL     1      -8.815  18.925  66.771  1.00  0.00    -0.315 A  
BRANCH   9  13
HETATM   13  C   UNL     1      -8.816  15.900  69.034  1.00  0.00    -0.243 C  
HETATM   14  O   UNL     1      -9.609  15.597  69.907  1.00  0.00    -0.262 OA 
BRANCH  13  15
HETATM   15  O   UNL     1      -7.498  15.563  69.003  1.00  0.00    -0.142 OA 
BRANCH  15  16
HETATM   16  C   UNL     1      -7.172  14.282  69.567  1.00  0.00    -0.003 C  
BRANCH  16  17
HETATM   17  C   UNL     1      -6.420  14.469  70.838  1.00  0.00     0.160 C  
HETATM   18  O   UNL     1      -5.178  15.295  72.503  1.00  0.00    -0.061 OA 
HETATM   19  C   UNL     1      -5.715  15.499  71.253  1.00  0.00     0.287 C  
HETATM   20  O   UNL     1      -6.394  13.448  71.774  1.00  0.00     0.322 OA 
HETATM   21  C   UNL     1      -5.522  16.819  70.642  1.00  0.00    -0.135 C  
HETATM   22  C   UNL     1      -5.641  14.023  72.792  1.00  0.00    -0.043 C  
HETATM   23  O   UNL     1      -5.394  13.456  73.849  1.00  0.00    -0.422 OA 
ENDBRANCH  16  17
ENDBRANCH  15  16
ENDBRANCH  13  15
ENDBRANCH   9  13
BRANCH   8  24
HETATM   24  C   UNL     1     -11.428  14.350  67.569  1.00  0.00    -0.349 C  
BRANCH  24  25
HETATM   25  C   UNL     1     -10.648  13.066  67.394  1.00  0.00    -0.239 A  
HETATM   26  C   UNL     1      -9.382  12.989  66.815  1.00  0.00    -0.244 A  
HETATM   27  C   UNL     1     -10.587  10.642  67.703  1.00  0.00    -0.288 A  
HETATM   28  C   UNL     1      -9.319  10.544  67.108  1.00  0.00    -0.173 A  
HETATM   29  C   UNL     1     -11.232  11.877  67.854  1.00  0.00    -0.325 A  
HETATM   30  C   UNL     1      -8.713  11.761  66.735  1.00  0.00    -0.192 A  
BRANCH  28  31
HETATM   31  C   UNL     1      -8.613   9.231  66.955  1.00  0.00    -0.132 A  
HETATM   32  C   UNL     1      -7.270   7.473  68.055  1.00  0.00    -0.090 A  
HETATM   33  C   UNL     1      -8.172   8.541  68.113  1.00  0.00    -0.120 A  
HETATM   34  C   UNL     1      -6.833   7.006  66.828  1.00  0.00    -0.068 A  
HETATM   35  C   UNL     1      -7.329   7.584  65.664  1.00  0.00    -0.067 A  
HETATM   36  C   UNL     1      -8.226   8.672  65.715  1.00  0.00    -0.126 A  
BRANCH  36  37
HETATM   37  C   UNL     1      -8.722   9.125  64.402  1.00  0.00    -0.153 C  
HETATM   38  N   UNL     1      -8.843   8.378  63.356  1.00  0.00     0.284 NA 
HETATM   39  O   UNL     1      -9.373   9.238  62.344  1.00  0.00    -0.129 OA 
HETATM   40  C   UNL     1      -9.529  10.468  62.928  1.00  0.00    -0.333 C  
HETATM   41  N   UNL     1      -9.138  10.382  64.208  1.00  0.00    -0.218 NA 
HETATM   42  O   UNL     1      -9.934  11.477  62.368  1.00  0.00     0.144 OA 
ENDBRANCH  36  37
ENDBRANCH  28  31
ENDBRANCH  24  25
ENDBRANCH   8  24
ENDBRANCH   3   4
ENDBRANCH   2   3
TORSDOF 10
ENDMDL
MODEL      235
REMARK 921   NORMALIZED FREE ENERGY PREDICTED BY IDOCK:   -2.04 KCAL/MOL
REMARK 922        TOTAL FREE ENERGY PREDICTED BY IDOCK:   -6.15 KCAL/MOL
REMARK 923 INTER-LIGAND FREE ENERGY PREDICTED BY IDOCK:   -5.03 KCAL/MOL
REMARK 924 INTRA-LIGAND FREE ENERGY PREDICTED BY IDOCK:   -1.12 KCAL/MOL
REMARK 927      BINDING AFFINITY PREDICTED BY RF-SCORE:    0.00 PKD
ROOT
HETATM    1  C   UNL     1      -5.839  18.608  67.768  1.00  0.00    -0.181 C  
HETATM    2  C   UNL     1      -6.471  17.448  68.516  1.00  0.00    -0.180 C  
ENDROOT
BRANCH   2   3
HETATM    3  O   UNL     1      -6.487  16.292  67.675  1.00  0.00    -0.130 OA 
BRANCH   3   4
HETATM    4  C   UNL     1      -7.680  16.023  67.144  1.00  0.00    -0.207 A  
HETATM    5  N   UNL     1      -8.135  16.523  66.024  1.00  0.00    -0.289 NA 
HETATM    6  C   UNL     1      -9.372  15.966  65.862  1.00  0.00    -0.318 A  
HETATM    7  C   UNL     1      -9.704  15.104  66.917  1.00  0.00    -0.239 A  
HETATM    8  N   UNL     1      -8.565  15.131  67.706  1.00  0.00    -0.148 NA 
HETATM    9  C   UNL     1     -10.968  14.461  66.957  1.00  0.00    -0.304 A  
HETATM   10  C   UNL     1     -11.837  14.672  65.865  1.00  0.00    -0.272 A  
HETATM   11  C   UNL     1     -10.260  16.150  64.791  1.00  0.00     0.527 A  
HETATM   12  C   UNL     1     -11.485  15.488  64.794  1.00  0.00    -0.314 A  
BRANCH   9  13
HETATM   13  C   UNL     1     -11.393  13.514  68.014  1.00  0.00    -0.285 C  
HETATM   14  O   UNL     1     -12.045  12.508  67.796  1.00  0.00    -0.409 OA 
BRANCH  13  15
HETATM   15  O   UNL     1     -11.017  13.969  69.239  1.00  0.00    -0.250 OA 
BRANCH  15  16
HETATM   16  C   UNL     1     -10.965  12.979  70.280  1.00  0.00     1.114 C  
BRANCH  16  17
HETATM   17  C   UNL     1     -12.061  13.220  71.258  1.00  0.00     0.173 C  
HETATM   18  O   UNL     1     -13.872  13.024  72.553  1.00  0.00    -0.625 OA 
HETATM   19  C   UNL     1     -13.075  12.450  71.590  1.00  0.00    -0.307 C  
HETATM   20  O   UNL     1     -12.105  14.416  71.956  1.00  0.00    -0.266 OA 
HETATM   21  C   UNL     1     -13.395  11.080  71.176  1.00  0.00     0.001 C  
HETATM   22  C   UNL     1     -13.223  14.228  72.761  1.00  0.00    -0.522 C  
HETATM   23  O   UNL     1     -13.612  15.055  73.576  1.00  0.00    -0.339 OA 
ENDBRANCH  16  17
ENDBRANCH  15  16
ENDBRANCH  13  15
ENDBRANCH   9  13
BRANCH   8  24
HETATM   24  C   UNL     1      -8.197  14.246  68.799  1.00  0.00    -0.102 C  
BRANCH  24  25
HETATM   25  C   UNL     1      -7.597  12.919  68.395  1.00  0.00    -0.133 A  
HETATM   26  C   UNL     1      -6.400  12.779  67.694  1.00  0.00    -0.153 A  
HETATM   27  C   UNL     1      -7.808  10.484  68.398  1.00  0.00    -0.110 A  
HETATM   28  C   UNL     1      -6.613  10.325  67.679  1.00  0.00    -0.066 A  
HETATM   29  C   UNL     1      -8.283  11.752  68.760  1.00  0.00    -0.027 A  
HETATM   30  C   UNL     1      -5.895  11.506  67.402  1.00  0.00    -0.081 A  
BRANCH  28  31
HETATM   31  C   UNL     1      -6.088   8.974  67.300  1.00  0.00    -0.058 A  
HETATM   32  C   UNL     1      -5.264   7.519  65.480  1.00  0.00    -0.028 A  
HETATM   33  C   UNL     1      -5.514   8.788  66.016  1.00  0.00    -0.037 A  
HETATM   34  C   UNL     1      -5.509   6.389  66.241  1.00  0.00    -0.014 A  
HETATM   35  C   UNL     1      -5.965   6.534  67.547  1.00  0.00    -0.017 A  
HETATM   36  C   UNL     1      -6.236   7.808  68.087  1.00  0.00    -0.045 A  
BRANCH  36  37
HETATM   37  C   UNL     1      -6.639   7.804  69.506  1.00  0.00    -0.039 C  
HETATM   38  N   UNL     1      -7.669   7.186  69.983  1.00  0.00    -0.101 NA 
HETATM   39  O   UNL     1      -7.643   7.452  71.389  1.00  0.00    -0.080 OA 
HETATM   40  C   UNL     1      -6.538   8.231  71.612  1.00  0.00    -0.061 C  
HETATM   41  N   UNL     1      -5.914   8.430  70.441  1.00  0.00    -0.028 NA 
HETATM   42  O   UNL     1      -6.194   8.687  72.694  1.00  0.00    -0.082 OA 
ENDBRANCH  36  37
ENDBRANCH  28  31
ENDBRANCH  24  25
ENDBRANCH   8  24
ENDBRANCH   3   4
ENDBRANCH   2   3
TORSDOF 10
ENDMDL
MODEL      236
REMARK 921   NORMALIZED FREE ENERGY PREDICTED BY IDOCK:   -2.03 KCAL/MOL
REMARK 922        TOTAL FREE ENERGY PREDICTED BY IDOCK:   -6.13 KCAL/MOL
REMARK 923 INTER-LIGAND FREE ENERGY PREDICTED BY IDOCK:   -7.42 KCAL/MOL
REMARK 924 INTRA-LIGAND FREE ENERGY PREDICTED BY IDOCK:    1.29 KCAL/MOL
REMARK 927      BINDING AFFINITY PREDICTED BY RF-SCORE:    0.00 PKD
ROOT
HETATM    1  C   UNL     1     -10.701   9.254  68.998  1.00  0.00    -0.189 C  
HETATM    2  C   UNL     1      -9.263   8.972  69.396  1.00  0.00    -0.150 C  
ENDROOT
BRANCH   2   3
HETATM    3  O   UNL     1      -8.380   9.672  68.516  1.00  0.00    -0.114 OA 
BRANCH   3   4
HETATM    4  C   UNL     1      -8.393   9.220  67.261  1.00  0.00    -0.125 A  
HETATM    5  N   UNL     1      -8.452   7.960  66.916  1.00  0.00    -0.125 NA 
HETATM    6  C   UNL     1      -8.460   7.966  65.549  1.00  0.00    -0.139 A  
HETATM    7  C   UNL     1      -8.390   9.265  65.027  1.00  0.00    -0.154 A  
HETATM    8  N   UNL     1      -8.394  10.054  66.166  1.00  0.00    -0.118 NA 
HETATM    9  C   UNL     1      -8.341   9.481  63.626  1.00  0.00    -0.176 A  
HETATM   10  C   UNL     1      -8.433   8.346  62.791  1.00  0.00    -0.082 A  
HETATM   11  C   UNL     1      -8.554   6.860  64.689  1.00  0.00     0.254 A  
HETATM   12  C   UNL     1      -8.554   7.061  63.311  1.00  0.00     0.478 A  
BRANCH   9  13
HETATM   13  C   UNL     1      -8.296  10.816  62.985  1.00  0.00    -0.081 C  
HETATM   14  O   UNL     1      -7.296  11.283  62.469  1.00  0.00     0.116 OA 
BRANCH  13  15
HETATM   15  O   UNL     1      -9.491  11.450  63.124  1.00  0.00    -0.329 OA 
BRANCH  15  16
HETATM   16  C   UNL     1      -9.560  12.416  64.187  1.00  0.00     0.146 C  
BRANCH  16  17
HETATM   17  C   UNL     1     -10.767  13.269  64.013  1.00  0.00    -0.227 C  
HETATM   18  O   UNL     1     -12.842  14.014  63.646  1.00  0.00    -0.587 OA 
HETATM   19  C   UNL     1     -11.998  12.929  63.697  1.00  0.00    -0.541 C  
HETATM   20  O   UNL     1     -10.663  14.642  64.172  1.00  0.00     0.127 OA 
HETATM   21  C   UNL     1     -12.592  11.601  63.510  1.00  0.00    -0.327 C  
HETATM   22  C   UNL     1     -11.978  15.046  63.965  1.00  0.00    -0.058 C  
HETATM   23  O   UNL     1     -12.344  16.212  64.045  1.00  0.00    -0.796 OA 
ENDBRANCH  16  17
ENDBRANCH  15  16
ENDBRANCH  13  15
ENDBRANCH   9  13
BRANCH   8  24
HETATM   24  C   UNL     1      -8.598  11.490  66.275  1.00  0.00    -0.133 C  
BRANCH  24  25
HETATM   25  C   UNL     1      -9.626  11.931  67.292  1.00  0.00    -0.181 A  
HETATM   26  C   UNL     1     -10.998  11.720  67.164  1.00  0.00    -0.326 A  
HETATM   27  C   UNL     1     -10.059  13.048  69.422  1.00  0.00     0.659 A  
HETATM   28  C   UNL     1     -11.444  12.859  69.302  1.00  0.00    -0.341 A  
HETATM   29  C   UNL     1      -9.168  12.583  68.445  1.00  0.00    -0.139 A  
HETATM   30  C   UNL     1     -11.874  12.122  68.180  1.00  0.00    -0.362 A  
BRANCH  28  31
HETATM   31  C   UNL     1     -12.405  13.339  70.347  1.00  0.00    -0.365 A  
HETATM   32  C   UNL     1     -13.409  15.290  71.483  1.00  0.00    -0.559 A  
HETATM   33  C   UNL     1     -12.757  14.713  70.388  1.00  0.00    -0.370 A  
HETATM   34  C   UNL     1     -13.802  14.498  72.548  1.00  0.00    -0.555 A  
HETATM   35  C   UNL     1     -13.574  13.126  72.495  1.00  0.00    -0.595 A  
HETATM   36  C   UNL     1     -12.903  12.540  71.403  1.00  0.00    -0.359 A  
BRANCH  36  37
HETATM   37  C   UNL     1     -12.805  11.069  71.455  1.00  0.00    -0.443 C  
HETATM   38  N   UNL     1     -13.467  10.254  70.703  1.00  0.00    -0.077 NA 
HETATM   39  O   UNL     1     -13.035   8.949  71.098  1.00  0.00    -0.246 OA 
HETATM   40  C   UNL     1     -12.105   9.136  72.088  1.00  0.00    -0.318 C  
HETATM   41  N   UNL     1     -11.959  10.454  72.289  1.00  0.00     0.881 NA 
HETATM   42  O   UNL     1     -11.526   8.248  72.698  1.00  0.00    -0.395 OA 
ENDBRANCH  36  37
ENDBRANCH  28  31
ENDBRANCH  24  25
ENDBRANCH   8  24
ENDBRANCH   3   4
ENDBRANCH   2   3
TORSDOF 10
ENDMDL
MODEL      237
REMARK 921   NORMALIZED FREE ENERGY PREDICTED BY IDOCK:   -1.93 KCAL/MOL
REMARK 922        TOTAL FREE ENERGY PREDICTED BY IDOCK:   -5.98 KCAL/MOL
REMARK 923 INTER-LIGAND FREE ENERGY PREDICTED BY IDOCK:   -4.79 KCAL/MOL
REMARK 924 INTRA-LIGAND FREE ENERGY PREDICTED BY IDOCK:   -1.19 KCAL/MOL
REMARK 927      BINDING AFFINITY PREDICTED BY RF-SCORE:    0.00 PKD
ROOT
HETATM    1  C   UNL     1     -12.105   6.863  70.092  1.00  0.00    -0.111 C  
HETATM    2  C   UNL     1     -11.958   8.269  69.538  1.00  0.00     1.309 C  
ENDROOT
BRANCH   2   3
HETATM    3  O   UNL     1     -10.599   8.693  69.672  1.00  0.00    -0.220 OA 
BRANCH   3   4
HETATM    4  C   UNL     1      -9.930   8.743  68.520  1.00  0.00    -0.182 A  
HETATM    5  N   UNL     1     -10.277   8.125  67.421  1.00  0.00    -0.233 NA 
HETATM    6  C   UNL     1      -9.325   8.470  66.503  1.00  0.00    -0.203 A  
HETATM    7  C   UNL     1      -8.350   9.317  67.048  1.00  0.00    -0.120 A  
HETATM    8  N   UNL     1      -8.799   9.509  68.344  1.00  0.00    -0.124 NA 
HETATM    9  C   UNL     1      -7.250   9.752  66.265  1.00  0.00    -0.099 A  
HETATM   10  C   UNL     1      -7.219   9.354  64.911  1.00  0.00    -0.106 A  
HETATM   11  C   UNL     1      -9.265   8.097  65.151  1.00  0.00     0.384 A  
HETATM   12  C   UNL     1      -8.215   8.555  64.359  1.00  0.00    -0.153 A  
BRANCH   9  13
HETATM   13  C   UNL     1      -6.189  10.669  66.746  1.00  0.00    -0.076 C  
HETATM   14  O   UNL     1      -6.235  11.879  66.618  1.00  0.00    -0.108 OA 
BRANCH  13  15
HETATM   15  O   UNL     1      -5.153   9.961  67.272  1.00  0.00    -0.037 OA 
BRANCH  15  16
HETATM   16  C   UNL     1      -5.166   9.810  68.701  1.00  0.00    -0.036 C  
BRANCH  16  17
HETATM   17  C   UNL     1      -5.298   8.370  69.053  1.00  0.00    -0.035 C  
HETATM   18  O   UNL     1      -5.522   6.433  70.146  1.00  0.00    -0.013 OA 
HETATM   19  C   UNL     1      -5.403   7.801  70.235  1.00  0.00    -0.023 C  
HETATM   20  O   UNL     1      -5.304   7.417  68.047  1.00  0.00    -0.023 OA 
HETATM   21  C   UNL     1      -5.517   8.404  71.567  1.00  0.00    -0.035 C  
HETATM   22  C   UNL     1      -5.475   6.245  68.776  1.00  0.00    -0.011 C  
HETATM   23  O   UNL     1      -5.565   5.138  68.259  1.00  0.00    -0.014 OA 
ENDBRANCH  16  17
ENDBRANCH  15  16
ENDBRANCH  13  15
ENDBRANCH   9  13
BRANCH   8  24
HETATM   24  C   UNL     1      -8.359  10.492  69.321  1.00  0.00    -0.137 C  
BRANCH  24  25
HETATM   25  C   UNL     1      -8.548  11.939  68.926  1.00  0.00     0.151 A  
HETATM   26  C   UNL     1      -7.531  12.893  68.931  1.00  0.00     0.020 A  
HETATM   27  C   UNL     1     -10.089  13.676  68.164  1.00  0.00    -0.245 A  
HETATM   28  C   UNL     1      -9.081  14.653  68.177  1.00  0.00    -0.187 A  
HETATM   29  C   UNL     1      -9.826  12.346  68.518  1.00  0.00    -0.156 A  
HETATM   30  C   UNL     1      -7.786  14.202  68.504  1.00  0.00    -0.138 A  
BRANCH  28  31
HETATM   31  C   UNL     1      -9.347  16.074  67.786  1.00  0.00    -0.211 A  
HETATM   32  C   UNL     1      -9.112  18.458  68.396  1.00  0.00    -0.340 A  
HETATM   33  C   UNL     1      -8.710  17.121  68.501  1.00  0.00    -0.261 A  
HETATM   34  C   UNL     1     -10.119  18.807  67.513  1.00  0.00    -0.408 A  
HETATM   35  C   UNL     1     -10.692  17.825  66.712  1.00  0.00    -0.142 A  
HETATM   36  C   UNL     1     -10.304  16.474  66.825  1.00  0.00    -0.296 A  
BRANCH  36  37
HETATM   37  C   UNL     1     -10.945  15.564  65.857  1.00  0.00    -0.264 C  
HETATM   38  N   UNL     1     -10.556  15.382  64.639  1.00  0.00    -0.286 NA 
HETATM   39  O   UNL     1     -11.459  14.411  64.102  1.00  0.00    -0.250 OA 
HETATM   40  C   UNL     1     -12.329  14.094  65.112  1.00  0.00    -0.451 C  
HETATM   41  N   UNL     1     -11.991  14.802  66.200  1.00  0.00    -0.223 NA 
HETATM   42  O   UNL     1     -13.268  13.315  65.027  1.00  0.00    -0.698 OA 
ENDBRANCH  36  37
ENDBRANCH  28  31
ENDBRANCH  24  25
ENDBRANCH   8  24
ENDBRANCH   3   4
ENDBRANCH   2   3
TORSDOF 10
ENDMDL
MODEL      238
REMARK 921   NORMALIZED FREE ENERGY PREDICTED BY IDOCK:   -1.78 KCAL/MOL
REMARK 922        TOTAL FREE ENERGY PREDICTED BY IDOCK:   -5.74 KCAL/MOL
REMARK 923 INTER-LIGAND FREE ENERGY PREDICTED BY IDOCK:   -6.15 KCAL/MOL
REMARK 924 INTRA-LIGAND FREE ENERGY PREDICTED BY IDOCK:    0.41 KCAL/MOL
REMARK 927      BINDING AFFINITY PREDICTED BY RF-SCORE:    0.00 PKD
ROOT
HETATM    1  C   UNL     1     -13.373   7.875  72.451  1.00  0.00     0.036 C  
HETATM    2  C   UNL     1     -13.113   7.694  70.966  1.00  0.00    -0.045 C  
ENDROOT
BRANCH   2   3
HETATM    3  O   UNL     1     -11.751   8.018  70.679  1.00  0.00    -0.254 OA 
BRANCH   3   4
HETATM    4  C   UNL     1     -11.027   6.987  70.244  1.00  0.00    -0.271 A  
HETATM    5  N   UNL     1     -10.863   5.859  70.885  1.00  0.00    -0.279 NA 
HETATM    6  C   UNL     1     -10.073   5.097  70.070  1.00  0.00    -0.275 A  
HETATM    7  C   UNL     1      -9.724   5.774  68.893  1.00  0.00    -0.136 A  
HETATM    8  N   UNL     1     -10.396   6.978  69.020  1.00  0.00    -0.194 NA 
HETATM    9  C   UNL     1      -8.869   5.168  67.937  1.00  0.00    -0.104 A  
HETATM   10  C   UNL     1      -8.448   3.844  68.189  1.00  0.00    -0.106 A  
HETATM   11  C   UNL     1      -9.640   3.780  70.287  1.00  0.00    -0.257 A  
HETATM   12  C   UNL     1      -8.838   3.156  69.334  1.00  0.00    -0.154 A  
BRANCH   9  13
HETATM   13  C   UNL     1      -8.470   5.794  66.654  1.00  0.00    -0.113 C  
HETATM   14  O   UNL     1      -7.918   5.189  65.752  1.00  0.00    -0.104 OA 
BRANCH  13  15
HETATM   15  O   UNL     1      -8.741   7.127  66.672  1.00  0.00    -0.118 OA 
BRANCH  15  16
HETATM   16  C   UNL     1      -7.760   7.967  66.043  1.00  0.00    -0.088 C  
BRANCH  16  17
HETATM   17  C   UNL     1      -8.394   8.745  64.943  1.00  0.00    -0.170 C  
HETATM   18  O   UNL     1      -8.992   9.556  62.948  1.00  0.00    -0.242 OA 
HETATM   19  C   UNL     1      -8.198   8.674  63.644  1.00  0.00    -0.148 C  
HETATM   20  O   UNL     1      -9.328   9.721  65.246  1.00  0.00    -0.217 OA 
HETATM   21  C   UNL     1      -7.370   7.750  62.862  1.00  0.00    -0.100 C  
HETATM   22  C   UNL     1      -9.686  10.167  63.978  1.00  0.00    -0.206 C  
HETATM   23  O   UNL     1     -10.531  11.032  63.782  1.00  0.00    -0.363 OA 
ENDBRANCH  16  17
ENDBRANCH  15  16
ENDBRANCH  13  15
ENDBRANCH   9  13
BRANCH   8  24
HETATM   24  C   UNL     1     -10.638   7.993  68.007  1.00  0.00    -0.128 C  
BRANCH  24  25
HETATM   25  C   UNL     1     -10.882   9.392  68.526  1.00  0.00    -0.149 A  
HETATM   26  C   UNL     1     -12.143   9.974  68.653  1.00  0.00     0.984 A  
HETATM   27  C   UNL     1      -9.909  11.465  69.380  1.00  0.00     0.270 A  
HETATM   28  C   UNL     1     -11.169  12.072  69.500  1.00  0.00    -0.220 A  
HETATM   29  C   UNL     1      -9.769  10.150  68.916  1.00  0.00    -0.189 A  
HETATM   30  C   UNL     1     -12.279  11.261  69.188  1.00  0.00    -0.251 A  
BRANCH  28  31
HETATM   31  C   UNL     1     -11.332  13.471  70.009  1.00  0.00    -0.028 A  
HETATM   32  C   UNL     1     -12.698  15.027  71.358  1.00  0.00    -0.414 A  
HETATM   33  C   UNL     1     -12.282  13.732  71.030  1.00  0.00    -0.401 A  
HETATM   34  C   UNL     1     -12.121  16.117  70.729  1.00  0.00    -0.147 A  
HETATM   35  C   UNL     1     -11.105  15.907  69.802  1.00  0.00    -0.324 A  
HETATM   36  C   UNL     1     -10.693  14.604  69.453  1.00  0.00    -0.237 A  
BRANCH  36  37
HETATM   37  C   UNL     1      -9.556  14.546  68.516  1.00  0.00    -0.220 C  
HETATM   38  N   UNL     1      -9.642  14.688  67.234  1.00  0.00    -0.217 NA 
HETATM   39  O   UNL     1      -8.298  14.575  66.757  1.00  0.00    -0.163 OA 
HETATM   40  C   UNL     1      -7.513  14.378  67.863  1.00  0.00    -0.152 C  
HETATM   41  N   UNL     1      -8.301  14.379  68.949  1.00  0.00    -0.122 NA 
HETATM   42  O   UNL     1      -6.302  14.207  67.857  1.00  0.00    -0.138 OA 
ENDBRANCH  36  37
ENDBRANCH  28  31
ENDBRANCH  24  25
ENDBRANCH   8  24
ENDBRANCH   3   4
ENDBRANCH   2   3
TORSDOF 10
ENDMDL
MODEL      239
REMARK 921   NORMALIZED FREE ENERGY PREDICTED BY IDOCK:   -1.66 KCAL/MOL
REMARK 922        TOTAL FREE ENERGY PREDICTED BY IDOCK:   -5.55 KCAL/MOL
REMARK 923 INTER-LIGAND FREE ENERGY PREDICTED BY IDOCK:   -6.00 KCAL/MOL
REMARK 924 INTRA-LIGAND FREE ENERGY PREDICTED BY IDOCK:    0.45 KCAL/MOL
REMARK 927      BINDING AFFINITY PREDICTED BY RF-SCORE:    0.00 PKD
ROOT
HETATM    1  C   UNL     1     -12.744   6.812  71.077  1.00  0.00    -0.197 C  
HETATM    2  C   UNL     1     -12.078   8.070  70.549  1.00  0.00     0.139 C  
ENDROOT
BRANCH   2   3
HETATM    3  O   UNL     1     -10.664   7.976  70.745  1.00  0.00    -0.216 OA 
BRANCH   3   4
HETATM    4  C   UNL     1     -10.008   7.433  69.719  1.00  0.00    -0.188 A  
HETATM    5  N   UNL     1     -10.347   6.325  69.111  1.00  0.00    -0.195 NA 
HETATM    6  C   UNL     1      -9.415   6.161  68.125  1.00  0.00    -0.113 A  
HETATM    7  C   UNL     1      -8.462   7.189  68.125  1.00  0.00    -0.123 A  
HETATM    8  N   UNL     1      -8.903   8.018  69.143  1.00  0.00    -0.144 NA 
HETATM    9  C   UNL     1      -7.383   7.175  67.204  1.00  0.00    -0.090 A  
HETATM   10  C   UNL     1      -7.353   6.131  66.255  1.00  0.00    -0.084 A  
HETATM   11  C   UNL     1      -9.357   5.140  67.164  1.00  0.00    -0.129 A  
HETATM   12  C   UNL     1      -8.330   5.140  66.224  1.00  0.00    -0.113 A  
BRANCH   9  13
HETATM   13  C   UNL     1      -6.346   8.230  67.112  1.00  0.00    -0.057 C  
HETATM   14  O   UNL     1      -6.509   9.287  66.526  1.00  0.00    -0.065 OA 
BRANCH  13  15
HETATM   15  O   UNL     1      -5.193   7.816  67.702  1.00  0.00    -0.029 OA 
BRANCH  15  16
HETATM   16  C   UNL     1      -5.302   7.448  69.087  1.00  0.00    -0.015 C  
BRANCH  16  17
HETATM   17  C   UNL     1      -5.387   8.674  69.927  1.00  0.00    -0.029 C  
HETATM   18  O   UNL     1      -5.510  10.105  71.640  1.00  0.00    -0.178 OA 
HETATM   19  C   UNL     1      -5.460   8.791  71.236  1.00  0.00    -0.037 C  
HETATM   20  O   UNL     1      -5.417   9.919  69.321  1.00  0.00    -0.035 OA 
HETATM   21  C   UNL     1      -5.385   7.765  72.282  1.00  0.00    -0.036 C  
HETATM   22  C   UNL     1      -5.462  10.764  70.424  1.00  0.00    -0.082 C  
HETATM   23  O   UNL     1      -5.470  11.986  70.335  1.00  0.00    -0.116 OA 
ENDBRANCH  16  17
ENDBRANCH  15  16
ENDBRANCH  13  15
ENDBRANCH   9  13
BRANCH   8  24
HETATM   24  C   UNL     1      -8.484   9.375  69.454  1.00  0.00    -0.142 C  
BRANCH  24  25
HETATM   25  C   UNL     1      -9.129  10.467  68.631  1.00  0.00    -0.157 A  
HETATM   26  C   UNL     1      -8.424  11.388  67.858  1.00  0.00    -0.139 A  
HETATM   27  C   UNL     1     -11.202  11.551  67.920  1.00  0.00    -0.344 A  
HETATM   28  C   UNL     1     -10.507  12.496  67.150  1.00  0.00    -0.237 A  
HETATM   29  C   UNL     1     -10.529  10.550  68.635  1.00  0.00    -0.211 A  
HETATM   30  C   UNL     1      -9.107  12.338  67.088  1.00  0.00    -0.193 A  
BRANCH  28  31
HETATM   31  C   UNL     1     -11.216  13.561  66.370  1.00  0.00    -0.322 A  
HETATM   32  C   UNL     1     -12.916  14.069  64.650  1.00  0.00     0.172 A  
HETATM   33  C   UNL     1     -12.369  13.218  65.617  1.00  0.00    -0.521 A  
HETATM   34  C   UNL     1     -12.374  15.327  64.452  1.00  0.00    -0.172 A  
HETATM   35  C   UNL     1     -11.313  15.743  65.249  1.00  0.00    -0.093 A  
HETATM   36  C   UNL     1     -10.745  14.886  66.214  1.00  0.00    -0.320 A  
BRANCH  36  37
HETATM   37  C   UNL     1      -9.680  15.495  67.031  1.00  0.00    -0.224 C  
HETATM   38  N   UNL     1      -9.167  16.664  66.831  1.00  0.00    -0.219 NA 
HETATM   39  O   UNL     1      -8.198  16.827  67.871  1.00  0.00    -0.181 OA 
HETATM   40  C   UNL     1      -8.246  15.684  68.625  1.00  0.00    -0.168 C  
HETATM   41  N   UNL     1      -9.179  14.872  68.106  1.00  0.00    -0.181 NA 
HETATM   42  O   UNL     1      -7.541  15.438  69.593  1.00  0.00    -0.215 OA 
ENDBRANCH  36  37
ENDBRANCH  28  31
ENDBRANCH  24  25
ENDBRANCH   8  24
ENDBRANCH   3   4
ENDBRANCH   2   3
TORSDOF 10
ENDMDL
MODEL      240
REMARK 921   NORMALIZED FREE ENERGY PREDICTED BY IDOCK:   -1.45 KCAL/MOL
REMARK 922        TOTAL FREE ENERGY PREDICTED BY IDOCK:   -5.22 KCAL/MOL
REMARK 923 INTER-LIGAND FREE ENERGY PREDICTED BY IDOCK:   -7.64 KCAL/MOL
REMARK 924 INTRA-LIGAND FREE ENERGY PREDICTED BY IDOCK:    2.43 KCAL/MOL
REMARK 927      BINDING AFFINITY PREDICTED BY RF-SCORE:    0.00 PKD
ROOT
HETATM    1  C   UNL     1      -8.910   4.519  65.013  1.00  0.00    -0.146 C  
HETATM    2  C   UNL     1      -8.375   5.544  65.997  1.00  0.00    -0.122 C  
ENDROOT
BRANCH   2   3
HETATM    3  O   UNL     1      -9.023   6.800  65.774  1.00  0.00    -0.122 OA 
BRANCH   3   4
HETATM    4  C   UNL     1      -8.259   7.860  66.042  1.00  0.00    -0.122 A  
HETATM    5  N   UNL     1      -6.952   7.870  66.021  1.00  0.00    -0.061 NA 
HETATM    6  C   UNL     1      -6.600   9.152  66.337  1.00  0.00    -0.067 A  
HETATM    7  C   UNL     1      -7.720   9.962  66.574  1.00  0.00    -0.107 A  
HETATM    8  N   UNL     1      -8.778   9.102  66.330  1.00  0.00    -0.135 NA 
HETATM    9  C   UNL     1      -7.564  11.318  66.961  1.00  0.00    -0.143 A  
HETATM   10  C   UNL     1      -6.249  11.826  67.028  1.00  0.00    -0.152 A  
HETATM   11  C   UNL     1      -5.306   9.692  66.408  1.00  0.00    -0.044 A  
HETATM   12  C   UNL     1      -5.141  11.034  66.742  1.00  0.00    -0.071 A  
BRANCH   9  13
HETATM   13  C   UNL     1      -8.686  12.254  67.204  1.00  0.00    -0.193 C  
HETATM   14  O   UNL     1      -9.288  12.326  68.261  1.00  0.00    -0.203 OA 
BRANCH  13  15
HETATM   15  O   UNL     1      -8.979  12.948  66.072  1.00  0.00     0.064 OA 
BRANCH  15  16
HETATM   16  C   UNL     1      -8.716  14.360  66.124  1.00  0.00     0.428 C  
BRANCH  16  17
HETATM   17  C   UNL     1      -9.824  15.103  65.463  1.00  0.00    -0.321 C  
HETATM   18  O   UNL     1     -11.664  15.656  64.321  1.00  0.00    -0.375 OA 
HETATM   19  C   UNL     1     -10.837  14.647  64.758  1.00  0.00    -0.385 C  
HETATM   20  O   UNL     1      -9.860  16.486  65.537  1.00  0.00    -0.537 OA 
HETATM   21  C   UNL     1     -11.249  13.267  64.480  1.00  0.00    -0.387 C  
HETATM   22  C   UNL     1     -11.032  16.771  64.843  1.00  0.00    -0.087 C  
HETATM   23  O   UNL     1     -11.465  17.906  64.692  1.00  0.00    -0.145 OA 
ENDBRANCH  16  17
ENDBRANCH  15  16
ENDBRANCH  13  15
ENDBRANCH   9  13
BRANCH   8  24
HETATM   24  C   UNL     1     -10.186   9.422  66.157  1.00  0.00    -0.194 C  
BRANCH  24  25
HETATM   25  C   UNL     1     -10.822  10.211  67.278  1.00  0.00    -0.295 A  
HETATM   26  C   UNL     1     -11.456  11.442  67.111  1.00  0.00    -0.268 A  
HETATM   27  C   UNL     1     -11.323  10.348  69.667  1.00  0.00    -0.333 A  
HETATM   28  C   UNL     1     -11.951  11.595  69.519  1.00  0.00    -0.383 A  
HETATM   29  C   UNL     1     -10.782   9.665  68.569  1.00  0.00    -0.239 A  
HETATM   30  C   UNL     1     -12.060  12.082  68.201  1.00  0.00    -0.040 A  
BRANCH  28  31
HETATM   31  C   UNL     1     -12.547  12.327  70.683  1.00  0.00    -0.241 A  
HETATM   32  C   UNL     1     -14.152  12.254  72.560  1.00  0.00     0.484 A  
HETATM   33  C   UNL     1     -13.336  11.613  71.622  1.00  0.00    -0.254 A  
HETATM   34  C   UNL     1     -14.151  13.636  72.646  1.00  0.00    -0.306 A  
HETATM   35  C   UNL     1     -13.306  14.368  71.817  1.00  0.00    -0.446 A  
HETATM   36  C   UNL     1     -12.494  13.729  70.858  1.00  0.00    -0.451 A  
BRANCH  36  37
HETATM   37  C   UNL     1     -11.597  14.631  70.109  1.00  0.00    -0.282 C  
HETATM   38  N   UNL     1     -10.332  14.441  69.933  1.00  0.00     0.212 NA 
HETATM   39  O   UNL     1      -9.897  15.551  69.142  1.00  0.00    -0.213 OA 
HETATM   40  C   UNL     1     -11.009  16.318  68.911  1.00  0.00    -0.334 C  
HETATM   41  N   UNL     1     -12.060  15.730  69.501  1.00  0.00    -0.316 NA 
HETATM   42  O   UNL     1     -11.031  17.372  68.291  1.00  0.00    -0.317 OA 
ENDBRANCH  36  37
ENDBRANCH  28  31
ENDBRANCH  24  25
ENDBRANCH   8  24
ENDBRANCH   3   4
ENDBRANCH   2   3
TORSDOF 10
ENDMDL
MODEL      241
REMARK 921   NORMALIZED FREE ENERGY PREDICTED BY IDOCK:   -1.44 KCAL/MOL
REMARK 922        TOTAL FREE ENERGY PREDICTED BY IDOCK:   -5.21 KCAL/MOL
REMARK 923 INTER-LIGAND FREE ENERGY PREDICTED BY IDOCK:   -5.26 KCAL/MOL
REMARK 924 INTRA-LIGAND FREE ENERGY PREDICTED BY IDOCK:    0.05 KCAL/MOL
REMARK 927      BINDING AFFINITY PREDICTED BY RF-SCORE:    0.00 PKD
ROOT
HETATM    1  C   UNL     1     -10.841   8.053  67.225  1.00  0.00    -0.159 C  
HETATM    2  C   UNL     1     -10.589   9.514  66.898  1.00  0.00    -0.171 C  
ENDROOT
BRANCH   2   3
HETATM    3  O   UNL     1      -9.196   9.709  66.640  1.00  0.00    -0.144 OA 
BRANCH   3   4
HETATM    4  C   UNL     1      -8.433   8.663  66.958  1.00  0.00    -0.110 A  
HETATM    5  N   UNL     1      -8.071   7.717  66.131  1.00  0.00    -0.108 NA 
HETATM    6  C   UNL     1      -7.291   6.875  66.873  1.00  0.00    -0.082 A  
HETATM    7  C   UNL     1      -7.174   7.301  68.203  1.00  0.00    -0.091 A  
HETATM    8  N   UNL     1      -7.889   8.487  68.210  1.00  0.00    -0.105 NA 
HETATM    9  C   UNL     1      -6.440   6.536  69.146  1.00  0.00    -0.040 A  
HETATM   10  C   UNL     1      -5.786   5.378  68.674  1.00  0.00    -0.016 A  
HETATM   11  C   UNL     1      -6.624   5.720  66.436  1.00  0.00    -0.055 A  
HETATM   12  C   UNL     1      -5.862   4.985  67.341  1.00  0.00    -0.022 A  
BRANCH   9  13
HETATM   13  C   UNL     1      -6.239   6.921  70.562  1.00  0.00    -0.028 C  
HETATM   14  O   UNL     1      -5.193   7.372  70.997  1.00  0.00    -0.026 OA 
BRANCH  13  15
HETATM   15  O   UNL     1      -7.347   6.631  71.296  1.00  0.00    -0.080 OA 
BRANCH  15  16
HETATM   16  C   UNL     1      -7.369   5.326  71.897  1.00  0.00    -0.087 C  
BRANCH  16  17
HETATM   17  C   UNL     1      -8.773   4.842  71.997  1.00  0.00    -0.128 C  
HETATM   18  O   UNL     1     -10.676   3.694  71.760  1.00  0.00     0.273 OA 
HETATM   19  C   UNL     1      -9.358   3.831  71.391  1.00  0.00    -0.138 C  
HETATM   20  O   UNL     1      -9.670   5.509  72.816  1.00  0.00    -0.149 OA 
HETATM   21  C   UNL     1      -8.795   2.808  70.503  1.00  0.00    -0.148 C  
HETATM   22  C   UNL     1     -10.818   4.740  72.654  1.00  0.00    -0.175 C  
HETATM   23  O   UNL     1     -11.869   4.969  73.240  1.00  0.00    -0.245 OA 
ENDBRANCH  16  17
ENDBRANCH  15  16
ENDBRANCH  13  15
ENDBRANCH   9  13
BRANCH   8  24
HETATM   24  C   UNL     1      -7.918   9.524  69.229  1.00  0.00    -0.094 C  
BRANCH  24  25
HETATM   25  C   UNL     1      -7.703  10.936  68.734  1.00  0.00    -0.129 A  
HETATM   26  C   UNL     1      -6.493  11.419  68.237  1.00  0.00    -0.056 A  
HETATM   27  C   UNL     1      -8.671  13.147  68.351  1.00  0.00    -0.120 A  
HETATM   28  C   UNL     1      -7.457  13.655  67.863  1.00  0.00    -0.158 A  
HETATM   29  C   UNL     1      -8.796  11.814  68.766  1.00  0.00     0.018 A  
HETATM   30  C   UNL     1      -6.398  12.730  67.756  1.00  0.00    -0.137 A  
BRANCH  28  31
HETATM   31  C   UNL     1      -7.316  15.074  67.403  1.00  0.00    -0.231 A  
HETATM   32  C   UNL     1      -5.772  16.948  66.946  1.00  0.00    -0.199 A  
HETATM   33  C   UNL     1      -6.025  15.581  67.103  1.00  0.00     0.300 A  
HETATM   34  C   UNL     1      -6.816  17.855  67.009  1.00  0.00    -0.204 A  
HETATM   35  C   UNL     1      -8.113  17.386  67.190  1.00  0.00    -0.229 A  
HETATM   36  C   UNL     1      -8.374  16.011  67.366  1.00  0.00    -0.188 A  
BRANCH  36  37
HETATM   37  C   UNL     1      -9.803  15.662  67.469  1.00  0.00    -0.228 C  
HETATM   38  N   UNL     1     -10.581  15.997  68.445  1.00  0.00    -0.258 NA 
HETATM   39  O   UNL     1     -11.861  15.459  68.102  1.00  0.00    -0.320 OA 
HETATM   40  C   UNL     1     -11.704  14.838  66.890  1.00  0.00    -0.302 C  
HETATM   41  N   UNL     1     -10.430  14.984  66.499  1.00  0.00    -0.278 NA 
HETATM   42  O   UNL     1     -12.576  14.233  66.281  1.00  0.00    -0.416 OA 
ENDBRANCH  36  37
ENDBRANCH  28  31
ENDBRANCH  24  25
ENDBRANCH   8  24
ENDBRANCH   3   4
ENDBRANCH   2   3
TORSDOF 10
ENDMDL
MODEL      242
REMARK 921   NORMALIZED FREE ENERGY PREDICTED BY IDOCK:   -1.23 KCAL/MOL
REMARK 922        TOTAL FREE ENERGY PREDICTED BY IDOCK:   -4.87 KCAL/MOL
REMARK 923 INTER-LIGAND FREE ENERGY PREDICTED BY IDOCK:   -6.15 KCAL/MOL
REMARK 924 INTRA-LIGAND FREE ENERGY PREDICTED BY IDOCK:    1.28 KCAL/MOL
REMARK 927      BINDING AFFINITY PREDICTED BY RF-SCORE:    0.00 PKD
ROOT
HETATM    1  C   UNL     1     -12.743   6.811  71.078  1.00  0.00    -0.197 C  
HETATM    2  C   UNL     1     -12.049   8.055  70.552  1.00  0.00     0.139 C  
ENDROOT
BRANCH   2   3
HETATM    3  O   UNL     1     -10.640   7.939  70.765  1.00  0.00    -0.209 OA 
BRANCH   3   4
HETATM    4  C   UNL     1      -9.982   7.372  69.753  1.00  0.00    -0.188 A  
HETATM    5  N   UNL     1     -10.339   6.269  69.148  1.00  0.00    -0.195 NA 
HETATM    6  C   UNL     1      -9.397   6.074  68.178  1.00  0.00    -0.115 A  
HETATM    7  C   UNL     1      -8.417   7.077  68.186  1.00  0.00    -0.129 A  
HETATM    8  N   UNL     1      -8.853   7.925  69.191  1.00  0.00    -0.141 NA 
HETATM    9  C   UNL     1      -7.325   7.029  67.282  1.00  0.00    -0.091 A  
HETATM   10  C   UNL     1      -7.307   5.977  66.341  1.00  0.00    -0.081 A  
HETATM   11  C   UNL     1      -9.350   5.044  67.225  1.00  0.00    -0.135 A  
HETATM   12  C   UNL     1      -8.308   5.011  66.302  1.00  0.00    -0.112 A  
BRANCH   9  13
HETATM   13  C   UNL     1      -6.260   8.056  67.199  1.00  0.00    -0.055 C  
HETATM   14  O   UNL     1      -6.384   9.109  66.599  1.00  0.00    -0.064 OA 
BRANCH  13  15
HETATM   15  O   UNL     1      -5.130   7.620  67.817  1.00  0.00    -0.027 OA 
BRANCH  15  16
HETATM   16  C   UNL     1      -5.274   7.278  69.205  1.00  0.00    -0.015 C  
BRANCH  16  17
HETATM   17  C   UNL     1      -5.642   5.841  69.334  1.00  0.00    -0.008 C  
HETATM   18  O   UNL     1      -6.224   3.830  70.116  1.00  0.00    -0.025 OA 
HETATM   19  C   UNL     1      -5.910   5.136  70.412  1.00  0.00    -0.017 C  
HETATM   20  O   UNL     1      -5.720   5.050  68.199  1.00  0.00    -0.015 OA 
HETATM   21  C   UNL     1      -6.024   5.558  71.812  1.00  0.00    -0.029 C  
HETATM   22  C   UNL     1      -6.112   3.829  68.737  1.00  0.00    -0.028 C  
HETATM   23  O   UNL     1      -6.330   2.833  68.058  1.00  0.00    -0.031 OA 
ENDBRANCH  16  17
ENDBRANCH  15  16
ENDBRANCH  13  15
ENDBRANCH   9  13
BRANCH   8  24
HETATM   24  C   UNL     1      -8.405   9.273  69.499  1.00  0.00    -0.131 C  
BRANCH  24  25
HETATM   25  C   UNL     1      -8.995  10.372  68.646  1.00  0.00    -0.146 A  
HETATM   26  C   UNL     1      -8.243  11.265  67.884  1.00  0.00    -0.123 A  
HETATM   27  C   UNL     1     -11.015  11.505  67.866  1.00  0.00    -0.287 A  
HETATM   28  C   UNL     1     -10.273  12.423  67.105  1.00  0.00    -0.226 A  
HETATM   29  C   UNL     1     -10.391  10.495  68.609  1.00  0.00    -0.201 A  
HETATM   30  C   UNL     1      -8.877  12.225  67.086  1.00  0.00    -0.194 A  
BRANCH  28  31
HETATM   31  C   UNL     1     -10.930  13.498  66.295  1.00  0.00    -0.293 A  
HETATM   32  C   UNL     1     -12.562  14.033  64.518  1.00  0.00    -0.242 A  
HETATM   33  C   UNL     1     -12.068  13.178  65.510  1.00  0.00    -0.490 A  
HETATM   34  C   UNL     1     -11.982  15.275  64.326  1.00  0.00    -0.236 A  
HETATM   35  C   UNL     1     -10.934  15.671  65.151  1.00  0.00    -0.411 A  
HETATM   36  C   UNL     1     -10.420  14.808  66.141  1.00  0.00    -0.311 A  
BRANCH  36  37
HETATM   37  C   UNL     1      -9.363  15.397  66.985  1.00  0.00    -0.224 C  
HETATM   38  N   UNL     1      -9.542  15.875  68.172  1.00  0.00    -0.207 NA 
HETATM   39  O   UNL     1      -8.247  16.311  68.596  1.00  0.00    -0.190 OA 
HETATM   40  C   UNL     1      -7.388  16.022  67.567  1.00  0.00    -0.163 C  
HETATM   41  N   UNL     1      -8.088  15.441  66.581  1.00  0.00    -0.181 NA 
HETATM   42  O   UNL     1      -6.192  16.273  67.545  1.00  0.00    -0.131 OA 
ENDBRANCH  36  37
ENDBRANCH  28  31
ENDBRANCH  24  25
ENDBRANCH   8  24
ENDBRANCH   3   4
ENDBRANCH   2   3
TORSDOF 10
ENDMDL
MODEL      243
REMARK 921   NORMALIZED FREE ENERGY PREDICTED BY IDOCK:   -0.55 KCAL/MOL
REMARK 922        TOTAL FREE ENERGY PREDICTED BY IDOCK:   -3.79 KCAL/MOL
REMARK 923 INTER-LIGAND FREE ENERGY PREDICTED BY IDOCK:   -2.73 KCAL/MOL
REMARK 924 INTRA-LIGAND FREE ENERGY PREDICTED BY IDOCK:   -1.06 KCAL/MOL
REMARK 927      BINDING AFFINITY PREDICTED BY RF-SCORE:    0.00 PKD
ROOT
HETATM    1  C   UNL     1      -8.465  10.855  68.809  1.00  0.00    -0.150 C  
HETATM    2  C   UNL     1      -9.077  10.893  67.419  1.00  0.00    -0.140 C  
ENDROOT
BRANCH   2   3
HETATM    3  O   UNL     1     -10.269  10.104  67.404  1.00  0.00    -0.193 OA 
BRANCH   3   4
HETATM    4  C   UNL     1     -11.009  10.216  68.507  1.00  0.00    -0.232 A  
HETATM    5  N   UNL     1     -11.304  11.342  69.104  1.00  0.00    -0.255 NA 
HETATM    6  C   UNL     1     -12.085  10.986  70.168  1.00  0.00    -0.356 A  
HETATM    7  C   UNL     1     -12.272   9.599  70.244  1.00  0.00     0.089 A  
HETATM    8  N   UNL     1     -11.598   9.136  69.126  1.00  0.00     0.477 NA 
HETATM    9  C   UNL     1     -13.018   9.027  71.306  1.00  0.00    -0.280 A  
HETATM   10  C   UNL     1     -13.612   9.911  72.232  1.00  0.00    -0.337 A  
HETATM   11  C   UNL     1     -12.694  11.837  71.104  1.00  0.00    -0.405 A  
HETATM   12  C   UNL     1     -13.468  11.291  72.125  1.00  0.00    -0.197 A  
BRANCH   9  13
HETATM   13  C   UNL     1     -13.292   7.578  71.452  1.00  0.00    -0.311 C  
HETATM   14  O   UNL     1     -13.892   6.917  70.623  1.00  0.00     0.400 OA 
BRANCH  13  15
HETATM   15  O   UNL     1     -12.846   7.129  72.656  1.00  0.00     0.291 OA 
BRANCH  15  16
HETATM   16  C   UNL     1     -12.092   5.906  72.623  1.00  0.00     0.009 C  
BRANCH  16  17
HETATM   17  C   UNL     1     -10.683   6.172  73.023  1.00  0.00    -0.252 C  
HETATM   18  O   UNL     1      -8.717   7.139  73.463  1.00  0.00    -0.129 OA 
HETATM   19  C   UNL     1      -9.999   7.296  72.991  1.00  0.00    -0.227 C  
HETATM   20  O   UNL     1      -9.898   5.133  73.495  1.00  0.00    -0.149 OA 
HETATM   21  C   UNL     1     -10.430   8.655  72.644  1.00  0.00    -0.105 C  
HETATM   22  C   UNL     1      -8.707   5.792  73.779  1.00  0.00    -0.121 C  
HETATM   23  O   UNL     1      -7.726   5.234  74.258  1.00  0.00    -0.092 OA 
ENDBRANCH  16  17
ENDBRANCH  15  16
ENDBRANCH  13  15
ENDBRANCH   9  13
BRANCH   8  24
HETATM   24  C   UNL     1     -11.648   7.816  68.518  1.00  0.00     1.304 C  
BRANCH  24  25
HETATM   25  C   UNL     1     -10.531   6.873  68.905  1.00  0.00    -0.225 A  
HETATM   26  C   UNL     1      -9.365   7.265  69.561  1.00  0.00    -0.152 A  
HETATM   27  C   UNL     1      -9.682   4.581  68.894  1.00  0.00    -0.224 A  
HETATM   28  C   UNL     1      -8.495   4.960  69.540  1.00  0.00    -0.090 A  
HETATM   29  C   UNL     1     -10.684   5.515  68.595  1.00  0.00    -0.176 A  
HETATM   30  C   UNL     1      -8.403   6.314  69.923  1.00  0.00    -0.129 A  
BRANCH  28  31
HETATM   31  C   UNL     1      -7.424   3.969  69.880  1.00  0.00    -0.049 A  
HETATM   32  C   UNL     1      -6.153   2.842  71.674  1.00  0.00    -0.014 A  
HETATM   33  C   UNL     1      -7.284   3.531  71.222  1.00  0.00    -0.033 A  
HETATM   34  C   UNL     1      -5.152   2.498  70.782  1.00  0.00    -0.004 A  
HETATM   35  C   UNL     1      -5.305   2.812  69.435  1.00  0.00    -0.012 A  
HETATM   36  C   UNL     1      -6.433   3.521  68.975  1.00  0.00    -0.033 A  
BRANCH  36  37
HETATM   37  C   UNL     1      -6.489   3.711  67.514  1.00  0.00    -0.038 C  
HETATM   38  N   UNL     1      -6.308   4.835  66.903  1.00  0.00    -0.036 NA 
HETATM   39  O   UNL     1      -6.437   4.528  65.512  1.00  0.00    -0.038 OA 
HETATM   40  C   UNL     1      -6.685   3.182  65.437  1.00  0.00    -0.041 C  
HETATM   41  N   UNL     1      -6.698   2.683  66.682  1.00  0.00    -0.039 NA 
HETATM   42  O   UNL     1      -6.883   2.549  64.409  1.00  0.00    -0.040 OA 
ENDBRANCH  36  37
ENDBRANCH  28  31
ENDBRANCH  24  25
ENDBRANCH   8  24
ENDBRANCH   3   4
ENDBRANCH   2   3
TORSDOF 10
ENDMDL
MODEL      244
REMARK 921   NORMALIZED FREE ENERGY PREDICTED BY IDOCK:   -0.13 KCAL/MOL
REMARK 922        TOTAL FREE ENERGY PREDICTED BY IDOCK:   -3.13 KCAL/MOL
REMARK 923 INTER-LIGAND FREE ENERGY PREDICTED BY IDOCK:   -6.08 KCAL/MOL
REMARK 924 INTRA-LIGAND FREE ENERGY PREDICTED BY IDOCK:    2.95 KCAL/MOL
REMARK 927      BINDING AFFINITY PREDICTED BY RF-SCORE:    0.00 PKD
ROOT
HETATM    1  C   UNL     1      -9.084   4.913  63.371  1.00  0.00     0.037 C  
HETATM    2  C   UNL     1      -8.997   5.500  64.769  1.00  0.00     0.098 C  
ENDROOT
BRANCH   2   3
HETATM    3  O   UNL     1      -9.361   6.882  64.727  1.00  0.00     0.927 OA 
BRANCH   3   4
HETATM    4  C   UNL     1      -8.511   7.687  65.366  1.00  0.00    -0.098 A  
HETATM    5  N   UNL     1      -7.224   7.486  65.477  1.00  0.00    -0.067 NA 
HETATM    6  C   UNL     1      -6.756   8.557  66.186  1.00  0.00    -0.068 A  
HETATM    7  C   UNL     1      -7.783   9.444  66.537  1.00  0.00    -0.094 A  
HETATM    8  N   UNL     1      -8.899   8.872  65.951  1.00  0.00    -0.167 NA 
HETATM    9  C   UNL     1      -7.507  10.598  67.316  1.00  0.00    -0.099 A  
HETATM   10  C   UNL     1      -6.159  10.843  67.657  1.00  0.00    -0.047 A  
HETATM   11  C   UNL     1      -5.426   8.834  66.539  1.00  0.00    -0.035 A  
HETATM   12  C   UNL     1      -5.135   9.987  67.263  1.00  0.00    -0.041 A  
BRANCH   9  13
HETATM   13  C   UNL     1      -8.520  11.605  67.710  1.00  0.00    -0.144 C  
HETATM   14  O   UNL     1      -8.906  11.762  68.854  1.00  0.00    -0.031 OA 
BRANCH  13  15
HETATM   15  O   UNL     1      -8.992  12.257  66.613  1.00  0.00    -0.204 OA 
BRANCH  15  16
HETATM   16  C   UNL     1      -8.618  13.641  66.506  1.00  0.00     0.214 C  
BRANCH  16  17
HETATM   17  C   UNL     1      -9.731  14.416  65.893  1.00  0.00    -0.276 C  
HETATM   18  O   UNL     1     -11.112  16.046  65.235  1.00  0.00    -0.297 OA 
HETATM   19  C   UNL     1      -9.989  15.705  65.953  1.00  0.00    -0.351 C  
HETATM   20  O   UNL     1     -10.693  13.758  65.144  1.00  0.00    -0.318 OA 
HETATM   21  C   UNL     1      -9.219  16.796  66.560  1.00  0.00    -0.294 C  
HETATM   22  C   UNL     1     -11.501  14.815  64.738  1.00  0.00    -0.410 C  
HETATM   23  O   UNL     1     -12.479  14.674  64.014  1.00  0.00    -0.796 OA 
ENDBRANCH  16  17
ENDBRANCH  15  16
ENDBRANCH  13  15
ENDBRANCH   9  13
BRANCH   8  24
HETATM   24  C   UNL     1     -10.214   9.455  65.741  1.00  0.00     0.046 C  
BRANCH  24  25
HETATM   25  C   UNL     1     -10.822  10.150  66.938  1.00  0.00    -0.176 A  
HETATM   26  C   UNL     1     -10.683   9.711  68.254  1.00  0.00    -0.262 A  
HETATM   27  C   UNL     1     -12.185  12.003  67.765  1.00  0.00     0.325 A  
HETATM   28  C   UNL     1     -12.068  11.567  69.094  1.00  0.00    -0.329 A  
HETATM   29  C   UNL     1     -11.565  11.317  66.711  1.00  0.00     0.057 A  
HETATM   30  C   UNL     1     -11.243  10.444  69.308  1.00  0.00    -0.304 A  
BRANCH  28  31
HETATM   31  C   UNL     1     -12.714  12.301  70.230  1.00  0.00     0.108 A  
HETATM   32  C   UNL     1     -13.178  14.495  71.267  1.00  0.00    -0.422 A  
HETATM   33  C   UNL     1     -12.856  13.710  70.154  1.00  0.00     0.026 A  
HETATM   34  C   UNL     1     -13.446  13.890  72.483  1.00  0.00    -0.676 A  
HETATM   35  C   UNL     1     -13.426  12.502  72.571  1.00  0.00    -0.182 A  
HETATM   36  C   UNL     1     -13.086  11.706  71.458  1.00  0.00    -0.405 A  
BRANCH  36  37
HETATM   37  C   UNL     1     -13.184  10.252  71.685  1.00  0.00    -0.408 C  
HETATM   38  N   UNL     1     -14.171   9.507  71.311  1.00  0.00     0.040 NA 
HETATM   39  O   UNL     1     -13.818   8.185  71.728  1.00  0.00    -0.366 OA 
HETATM   40  C   UNL     1     -12.590   8.286  72.328  1.00  0.00    -0.311 C  
HETATM   41  N   UNL     1     -12.199   9.569  72.281  1.00  0.00    -0.209 NA 
HETATM   42  O   UNL     1     -11.968   7.366  72.840  1.00  0.00    -0.072 OA 
ENDBRANCH  36  37
ENDBRANCH  28  31
ENDBRANCH  24  25
ENDBRANCH   8  24
ENDBRANCH   3   4
ENDBRANCH   2   3
TORSDOF 10
ENDMDL
MODEL      245
REMARK 921   NORMALIZED FREE ENERGY PREDICTED BY IDOCK:    0.38 KCAL/MOL
REMARK 922        TOTAL FREE ENERGY PREDICTED BY IDOCK:   -2.31 KCAL/MOL
REMARK 923 INTER-LIGAND FREE ENERGY PREDICTED BY IDOCK:   -2.13 KCAL/MOL
REMARK 924 INTRA-LIGAND FREE ENERGY PREDICTED BY IDOCK:   -0.18 KCAL/MOL
REMARK 927      BINDING AFFINITY PREDICTED BY RF-SCORE:    0.00 PKD
ROOT
HETATM    1  C   UNL     1     -10.689  12.662  65.689  1.00  0.00    -0.297 C  
HETATM    2  C   UNL     1     -10.875  11.642  66.798  1.00  0.00    -0.277 C  
ENDROOT
BRANCH   2   3
HETATM    3  O   UNL     1     -11.021  12.321  68.048  1.00  0.00    -0.206 OA 
BRANCH   3   4
HETATM    4  C   UNL     1     -10.937  11.523  69.113  1.00  0.00    -0.224 A  
HETATM    5  N   UNL     1     -11.927  11.236  69.918  1.00  0.00    -0.336 NA 
HETATM    6  C   UNL     1     -11.397  10.383  70.844  1.00  0.00    -0.223 A  
HETATM    7  C   UNL     1     -10.034  10.140  70.618  1.00  0.00     0.325 A  
HETATM    8  N   UNL     1      -9.782  10.860  69.462  1.00  0.00     0.002 NA 
HETATM    9  C   UNL     1      -9.290   9.314  71.499  1.00  0.00    -0.052 A  
HETATM   10  C   UNL     1      -9.991   8.701  72.560  1.00  0.00    -0.257 A  
HETATM   11  C   UNL     1     -12.063   9.753  71.907  1.00  0.00    -0.331 A  
HETATM   12  C   UNL     1     -11.354   8.902  72.752  1.00  0.00     0.468 A  
BRANCH   9  13
HETATM   13  C   UNL     1      -7.858   8.979  71.324  1.00  0.00    -0.085 C  
HETATM   14  O   UNL     1      -6.984   9.326  72.099  1.00  0.00    -0.313 OA 
BRANCH  13  15
HETATM   15  O   UNL     1      -7.666   8.306  70.157  1.00  0.00    -0.080 OA 
BRANCH  15  16
HETATM   16  C   UNL     1      -7.264   6.933  70.292  1.00  0.00    -0.076 C  
BRANCH  16  17
HETATM   17  C   UNL     1      -8.420   6.040  70.007  1.00  0.00    -0.131 C  
HETATM   18  O   UNL     1      -9.782   4.278  69.812  1.00  0.00    -0.200 OA 
HETATM   19  C   UNL     1      -8.542   4.742  70.188  1.00  0.00    -0.082 C  
HETATM   20  O   UNL     1      -9.573   6.569  69.451  1.00  0.00    -0.144 OA 
HETATM   21  C   UNL     1      -7.623   3.784  70.812  1.00  0.00    -0.041 C  
HETATM   22  C   UNL     1     -10.389   5.444  69.381  1.00  0.00    -0.269 C  
HETATM   23  O   UNL     1     -11.541   5.474  68.966  1.00  0.00     0.788 OA 
ENDBRANCH  16  17
ENDBRANCH  15  16
ENDBRANCH  13  15
ENDBRANCH   9  13
BRANCH   8  24
HETATM   24  C   UNL     1      -8.621  10.797  68.589  1.00  0.00    -0.151 C  
BRANCH  24  25
HETATM   25  C   UNL     1      -8.633   9.688  67.561  1.00  0.00    -0.126 A  
HETATM   26  C   UNL     1      -9.707   8.824  67.350  1.00  0.00    -0.225 A  
HETATM   27  C   UNL     1      -7.416   8.504  65.803  1.00  0.00    -0.081 A  
HETATM   28  C   UNL     1      -8.481   7.615  65.588  1.00  0.00    -0.152 A  
HETATM   29  C   UNL     1      -7.494   9.526  66.759  1.00  0.00    -0.094 A  
HETATM   30  C   UNL     1      -9.649   7.854  66.342  1.00  0.00    -0.251 A  
BRANCH  28  31
HETATM   31  C   UNL     1      -8.415   6.529  64.559  1.00  0.00     0.131 A  
HETATM   32  C   UNL     1      -9.161   5.747  62.337  1.00  0.00     0.310 A  
HETATM   33  C   UNL     1      -8.924   6.774  63.257  1.00  0.00     1.145 A  
HETATM   34  C   UNL     1      -8.825   4.443  62.656  1.00  0.00    -0.115 A  
HETATM   35  C   UNL     1      -8.220   4.177  63.880  1.00  0.00    -0.094 A  
HETATM   36  C   UNL     1      -7.994   5.204  64.820  1.00  0.00    -0.104 A  
BRANCH  36  37
HETATM   37  C   UNL     1      -7.275   4.781  66.036  1.00  0.00    -0.076 C  
HETATM   38  N   UNL     1      -6.379   5.480  66.651  1.00  0.00    -0.035 NA 
HETATM   39  O   UNL     1      -5.986   4.679  67.769  1.00  0.00    -0.022 OA 
HETATM   40  C   UNL     1      -6.735   3.534  67.704  1.00  0.00    -0.042 C  
HETATM   41  N   UNL     1      -7.542   3.614  66.637  1.00  0.00    -0.080 NA 
HETATM   42  O   UNL     1      -6.661   2.589  68.478  1.00  0.00    -0.035 OA 
ENDBRANCH  36  37
ENDBRANCH  28  31
ENDBRANCH  24  25
ENDBRANCH   8  24
ENDBRANCH   3   4
ENDBRANCH   2   3
TORSDOF 10
ENDMDL
MODEL      246
REMARK 921   NORMALIZED FREE ENERGY PREDICTED BY IDOCK:    0.84 KCAL/MOL
REMARK 922        TOTAL FREE ENERGY PREDICTED BY IDOCK:   -1.59 KCAL/MOL
REMARK 923 INTER-LIGAND FREE ENERGY PREDICTED BY IDOCK:   -2.37 KCAL/MOL
REMARK 924 INTRA-LIGAND FREE ENERGY PREDICTED BY IDOCK:    0.78 KCAL/MOL
REMARK 927      BINDING AFFINITY PREDICTED BY RF-SCORE:    0.00 PKD
ROOT
HETATM    1  C   UNL     1      -8.206   5.794  64.630  1.00  0.00    -0.126 C  
HETATM    2  C   UNL     1      -7.765   6.765  65.711  1.00  0.00    -0.096 C  
ENDROOT
BRANCH   2   3
HETATM    3  O   UNL     1      -8.563   7.949  65.640  1.00  0.00    -0.147 OA 
BRANCH   3   4
HETATM    4  C   UNL     1      -7.918   9.062  65.991  1.00  0.00    -0.103 A  
HETATM    5  N   UNL     1      -6.618   9.207  65.998  1.00  0.00    -0.068 NA 
HETATM    6  C   UNL     1      -6.406  10.495  66.403  1.00  0.00    -0.100 A  
HETATM    7  C   UNL     1      -7.606  11.167  66.670  1.00  0.00    -0.147 A  
HETATM    8  N   UNL     1      -8.566  10.222  66.349  1.00  0.00    -0.131 NA 
HETATM    9  C   UNL     1      -7.597  12.503  67.147  1.00  0.00    -0.087 A  
HETATM   10  C   UNL     1      -6.342  13.138  67.273  1.00  0.00     0.091 A  
HETATM   11  C   UNL     1      -5.176  11.158  66.536  1.00  0.00    -0.112 A  
HETATM   12  C   UNL     1      -5.155  12.485  66.959  1.00  0.00     0.139 A  
BRANCH   9  13
HETATM   13  C   UNL     1      -8.813  13.302  67.427  1.00  0.00    -0.204 C  
HETATM   14  O   UNL     1      -9.245  13.501  68.549  1.00  0.00    -0.180 OA 
BRANCH  13  15
HETATM   15  O   UNL     1      -9.396  13.704  66.266  1.00  0.00    -0.231 OA 
BRANCH  15  16
HETATM   16  C   UNL     1      -9.190  15.081  65.913  1.00  0.00    -0.123 C  
BRANCH  16  17
HETATM   17  C   UNL     1      -9.654  15.960  67.021  1.00  0.00    -0.223 C  
HETATM   18  O   UNL     1     -10.064  17.703  68.358  1.00  0.00    -0.324 OA 
HETATM   19  C   UNL     1      -9.455  17.246  67.213  1.00  0.00    -0.250 C  
HETATM   20  O   UNL     1     -10.400  15.419  68.056  1.00  0.00    -0.242 OA 
HETATM   21  C   UNL     1      -8.798  18.238  66.355  1.00  0.00    -0.256 C  
HETATM   22  C   UNL     1     -10.651  16.544  68.835  1.00  0.00    -0.326 C  
HETATM   23  O   UNL     1     -11.321  16.517  69.860  1.00  0.00    -0.243 OA 
ENDBRANCH  16  17
ENDBRANCH  15  16
ENDBRANCH  13  15
ENDBRANCH   9  13
BRANCH   8  24
HETATM   24  C   UNL     1      -9.998  10.407  66.168  1.00  0.00    -0.231 C  
BRANCH  24  25
HETATM   25  C   UNL     1     -10.754  10.894  67.383  1.00  0.00    -0.305 A  
HETATM   26  C   UNL     1     -10.503  10.469  68.687  1.00  0.00    -0.211 A  
HETATM   27  C   UNL     1     -12.533  12.324  68.258  1.00  0.00     0.822 A  
HETATM   28  C   UNL     1     -12.305  11.896  69.575  1.00  0.00    -0.082 A  
HETATM   29  C   UNL     1     -11.767  11.844  67.187  1.00  0.00    -0.311 A  
HETATM   30  C   UNL     1     -11.223  11.010  69.760  1.00  0.00    -0.339 A  
BRANCH  28  31
HETATM   31  C   UNL     1     -13.108  12.413  70.729  1.00  0.00     0.187 A  
HETATM   32  C   UNL     1     -13.897  14.404  71.962  1.00  0.00    -0.567 A  
HETATM   33  C   UNL     1     -13.410  13.798  70.799  1.00  0.00     0.010 A  
HETATM   34  C   UNL     1     -14.173  13.632  73.078  1.00  0.00     1.026 A  
HETATM   35  C   UNL     1     -13.995  12.254  73.013  1.00  0.00     2.031 A  
HETATM   36  C   UNL     1     -13.489  11.639  71.849  1.00  0.00    -0.269 A  
BRANCH  36  37
HETATM   37  C   UNL     1     -13.430  10.166  71.906  1.00  0.00    -0.327 C  
HETATM   38  N   UNL     1     -12.769   9.482  72.780  1.00  0.00     0.040 NA 
HETATM   39  O   UNL     1     -13.024   8.113  72.451  1.00  0.00    -0.244 OA 
HETATM   40  C   UNL     1     -13.861   8.128  71.366  1.00  0.00    -0.256 C  
HETATM   41  N   UNL     1     -14.119   9.405  71.047  1.00  0.00     0.023 NA 
HETATM   42  O   UNL     1     -14.280   7.143  70.776  1.00  0.00     0.117 OA 
ENDBRANCH  36  37
ENDBRANCH  28  31
ENDBRANCH  24  25
ENDBRANCH   8  24
ENDBRANCH   3   4
ENDBRANCH   2   3
TORSDOF 10
ENDMDL
MODEL      247
REMARK 921   NORMALIZED FREE ENERGY PREDICTED BY IDOCK:    1.45 KCAL/MOL
REMARK 922        TOTAL FREE ENERGY PREDICTED BY IDOCK:   -0.62 KCAL/MOL
REMARK 923 INTER-LIGAND FREE ENERGY PREDICTED BY IDOCK:   -2.50 KCAL/MOL
REMARK 924 INTRA-LIGAND FREE ENERGY PREDICTED BY IDOCK:    1.88 KCAL/MOL
REMARK 927      BINDING AFFINITY PREDICTED BY RF-SCORE:    0.00 PKD
ROOT
HETATM    1  C   UNL     1      -8.274  11.836  65.225  1.00  0.00     0.949 C  
HETATM    2  C   UNL     1      -7.186  11.472  66.220  1.00  0.00     0.147 C  
ENDROOT
BRANCH   2   3
HETATM    3  O   UNL     1      -6.265  10.567  65.607  1.00  0.00    -0.116 OA 
BRANCH   3   4
HETATM    4  C   UNL     1      -6.419   9.297  65.984  1.00  0.00    -0.068 A  
HETATM    5  N   UNL     1      -6.467   8.272  65.173  1.00  0.00    -0.052 NA 
HETATM    6  C   UNL     1      -6.615   7.183  65.985  1.00  0.00    -0.052 A  
HETATM    7  C   UNL     1      -6.674   7.539  67.339  1.00  0.00    -0.067 A  
HETATM    8  N   UNL     1      -6.498   8.913  67.304  1.00  0.00    -0.060 NA 
HETATM    9  C   UNL     1      -6.870   6.552  68.339  1.00  0.00    -0.071 A  
HETATM   10  C   UNL     1      -6.935   5.207  67.919  1.00  0.00    -0.062 A  
HETATM   11  C   UNL     1      -6.679   5.834  65.602  1.00  0.00    -0.048 A  
HETATM   12  C   UNL     1      -6.825   4.851  66.578  1.00  0.00    -0.062 A  
BRANCH   9  13
HETATM   13  C   UNL     1      -6.916   6.831  69.794  1.00  0.00    -0.063 C  
HETATM   14  O   UNL     1      -6.088   7.507  70.378  1.00  0.00    -0.030 OA 
BRANCH  13  15
HETATM   15  O   UNL     1      -7.956   6.171  70.371  1.00  0.00    -0.103 OA 
BRANCH  15  16
HETATM   16  C   UNL     1      -8.456   6.746  71.590  1.00  0.00    -0.115 C  
BRANCH  16  17
HETATM   17  C   UNL     1      -9.797   6.180  71.900  1.00  0.00    -0.156 C  
HETATM   18  O   UNL     1     -11.948   5.574  71.826  1.00  0.00     0.199 OA 
HETATM   19  C   UNL     1     -10.915   6.240  71.208  1.00  0.00    -0.275 C  
HETATM   20  O   UNL     1      -9.990   5.486  73.083  1.00  0.00    -0.167 OA 
HETATM   21  C   UNL     1     -11.172   6.796  69.875  1.00  0.00    -0.379 C  
HETATM   22  C   UNL     1     -11.324   5.109  72.971  1.00  0.00    -0.309 C  
HETATM   23  O   UNL     1     -11.907   4.435  73.812  1.00  0.00    -0.071 OA 
ENDBRANCH  16  17
ENDBRANCH  15  16
ENDBRANCH  13  15
ENDBRANCH   9  13
BRANCH   8  24
HETATM   24  C   UNL     1      -6.205   9.819  68.403  1.00  0.00    -0.050 C  
BRANCH  24  25
HETATM   25  C   UNL     1      -7.231  10.902  68.650  1.00  0.00    -0.088 A  
HETATM   26  C   UNL     1      -6.917  12.213  69.007  1.00  0.00    -0.086 A  
HETATM   27  C   UNL     1      -9.596  11.509  68.739  1.00  0.00    -0.112 A  
HETATM   28  C   UNL     1      -9.300  12.829  69.114  1.00  0.00     0.659 A  
HETATM   29  C   UNL     1      -8.584  10.570  68.500  1.00  0.00    -0.135 A  
HETATM   30  C   UNL     1      -7.932  13.165  69.171  1.00  0.00     0.422 A  
BRANCH  28  31
HETATM   31  C   UNL     1     -10.373  13.846  69.358  1.00  0.00     0.163 A  
HETATM   32  C   UNL     1     -12.645  14.276  70.230  1.00  0.00    -0.378 A  
HETATM   33  C   UNL     1     -11.478  13.505  70.180  1.00  0.00    -0.083 A  
HETATM   34  C   UNL     1     -12.721  15.459  69.515  1.00  0.00     0.133 A  
HETATM   35  C   UNL     1     -11.616  15.884  68.784  1.00  0.00    -0.389 A  
HETATM   36  C   UNL     1     -10.443  15.104  68.716  1.00  0.00    -0.234 A  
BRANCH  36  37
HETATM   37  C   UNL     1      -9.333  15.723  67.968  1.00  0.00    -0.197 C  
HETATM   38  N   UNL     1      -9.042  15.478  66.733  1.00  0.00    -0.234 NA 
HETATM   39  O   UNL     1      -7.919  16.314  66.443  1.00  0.00    -0.290 OA 
HETATM   40  C   UNL     1      -7.652  17.012  67.592  1.00  0.00    -0.165 C  
HETATM   41  N   UNL     1      -8.545  16.650  68.525  1.00  0.00    -0.224 NA 
HETATM   42  O   UNL     1      -6.739  17.812  67.744  1.00  0.00    -0.179 OA 
ENDBRANCH  36  37
ENDBRANCH  28  31
ENDBRANCH  24  25
ENDBRANCH   8  24
ENDBRANCH   3   4
ENDBRANCH   2   3
TORSDOF 10
ENDMDL
MODEL      248
REMARK 921   NORMALIZED FREE ENERGY PREDICTED BY IDOCK:    1.46 KCAL/MOL
REMARK 922        TOTAL FREE ENERGY PREDICTED BY IDOCK:   -0.60 KCAL/MOL
REMARK 923 INTER-LIGAND FREE ENERGY PREDICTED BY IDOCK:   -2.50 KCAL/MOL
REMARK 924 INTRA-LIGAND FREE ENERGY PREDICTED BY IDOCK:    1.89 KCAL/MOL
REMARK 927      BINDING AFFINITY PREDICTED BY RF-SCORE:    0.00 PKD
ROOT
HETATM    1  C   UNL     1      -6.877  17.899  69.212  1.00  0.00    -0.183 C  
HETATM    2  C   UNL     1      -7.702  16.893  68.431  1.00  0.00    -0.219 C  
ENDROOT
BRANCH   2   3
HETATM    3  O   UNL     1      -9.088  17.222  68.547  1.00  0.00    -0.257 OA 
BRANCH   3   4
HETATM    4  C   UNL     1      -9.869  16.187  68.857  1.00  0.00    -0.239 A  
HETATM    5  N   UNL     1     -11.121  16.272  69.224  1.00  0.00    -0.323 NA 
HETATM    6  C   UNL     1     -11.523  14.981  69.423  1.00  0.00    -0.300 A  
HETATM    7  C   UNL     1     -10.488  14.065  69.185  1.00  0.00    -0.086 A  
HETATM    8  N   UNL     1      -9.445  14.880  68.777  1.00  0.00    -0.210 NA 
HETATM    9  C   UNL     1     -10.693  12.675  69.380  1.00  0.00     0.139 A  
HETATM   10  C   UNL     1     -11.988  12.257  69.754  1.00  0.00    -0.365 A  
HETATM   11  C   UNL     1     -12.800  14.529  69.789  1.00  0.00     0.111 A  
HETATM   12  C   UNL     1     -13.027  13.163  69.939  1.00  0.00     0.671 A  
BRANCH   9  13
HETATM   13  C   UNL     1      -9.670  11.634  69.128  1.00  0.00     0.204 C  
HETATM   14  O   UNL     1      -8.556  11.649  69.620  1.00  0.00     0.775 OA 
BRANCH  13  15
HETATM   15  O   UNL     1     -10.131  10.724  68.227  1.00  0.00    -0.161 OA 
BRANCH  15  16
HETATM   16  C   UNL     1      -9.594   9.397  68.356  1.00  0.00    -0.146 C  
BRANCH  16  17
HETATM   17  C   UNL     1     -10.356   8.645  69.390  1.00  0.00    -0.218 C  
HETATM   18  O   UNL     1     -11.420   7.058  70.549  1.00  0.00    -0.294 OA 
HETATM   19  C   UNL     1     -10.745   7.388  69.397  1.00  0.00    -0.211 C  
HETATM   20  O   UNL     1     -10.771   9.294  70.541  1.00  0.00    -0.220 OA 
HETATM   21  C   UNL     1     -10.474   6.309  68.441  1.00  0.00    -0.273 C  
HETATM   22  C   UNL     1     -11.395   8.261  71.233  1.00  0.00    -0.267 C  
HETATM   23  O   UNL     1     -11.890   8.399  72.345  1.00  0.00    -0.372 OA 
ENDBRANCH  16  17
ENDBRANCH  15  16
ENDBRANCH  13  15
ENDBRANCH   9  13
BRANCH   8  24
HETATM   24  C   UNL     1      -8.191  14.500  68.146  1.00  0.00    -0.146 C  
BRANCH  24  25
HETATM   25  C   UNL     1      -8.275  13.367  67.149  1.00  0.00    -0.121 A  
HETATM   26  C   UNL     1      -9.294  13.224  66.207  1.00  0.00    -0.134 A  
HETATM   27  C   UNL     1      -7.277  11.307  66.291  1.00  0.00     0.007 A  
HETATM   28  C   UNL     1      -8.303  11.138  65.348  1.00  0.00     0.096 A  
HETATM   29  C   UNL     1      -7.257  12.404  67.164  1.00  0.00    -0.081 A  
HETATM   30  C   UNL     1      -9.267  12.166  65.290  1.00  0.00     0.221 A  
BRANCH  28  31
HETATM   31  C   UNL     1      -8.328   9.978  64.400  1.00  0.00    -0.169 A  
HETATM   32  C   UNL     1      -9.354   8.988  62.382  1.00  0.00     0.468 A  
HETATM   33  C   UNL     1      -9.042  10.095  63.180  1.00  0.00    -0.296 A  
HETATM   34  C   UNL     1      -8.895   7.731  62.737  1.00  0.00     0.583 A  
HETATM   35  C   UNL     1      -8.096   7.593  63.867  1.00  0.00    -0.041 A  
HETATM   36  C   UNL     1      -7.793   8.701  64.685  1.00  0.00    -0.129 A  
BRANCH  36  37
HETATM   37  C   UNL     1      -6.873   8.410  65.801  1.00  0.00    -0.067 C  
HETATM   38  N   UNL     1      -5.612   8.691  65.817  1.00  0.00    -0.042 NA 
HETATM   39  O   UNL     1      -5.149   8.246  67.095  1.00  0.00    -0.030 OA 
HETATM   40  C   UNL     1      -6.241   7.731  67.743  1.00  0.00    -0.050 C  
HETATM   41  N   UNL     1      -7.308   7.853  66.938  1.00  0.00    -0.088 NA 
HETATM   42  O   UNL     1      -6.237   7.224  68.856  1.00  0.00    -0.032 OA 
ENDBRANCH  36  37
ENDBRANCH  28  31
ENDBRANCH  24  25
ENDBRANCH   8  24
ENDBRANCH   3   4
ENDBRANCH   2   3
TORSDOF 10
ENDMDL
MODEL      249
REMARK 921   NORMALIZED FREE ENERGY PREDICTED BY IDOCK:    2.19 KCAL/MOL
REMARK 922        TOTAL FREE ENERGY PREDICTED BY IDOCK:    0.56 KCAL/MOL
REMARK 923 INTER-LIGAND FREE ENERGY PREDICTED BY IDOCK:   -3.98 KCAL/MOL
REMARK 924 INTRA-LIGAND FREE ENERGY PREDICTED BY IDOCK:    4.54 KCAL/MOL
REMARK 927      BINDING AFFINITY PREDICTED BY RF-SCORE:    0.00 PKD
ROOT
HETATM    1  C   UNL     1      -6.511  18.746  66.113  1.00  0.00    -0.241 C  
HETATM    2  C   UNL     1      -7.323  17.470  66.250  1.00  0.00    -0.320 C  
ENDROOT
BRANCH   2   3
HETATM    3  O   UNL     1      -7.452  17.135  67.634  1.00  0.00    -0.164 OA 
BRANCH   3   4
HETATM    4  C   UNL     1      -8.625  16.588  67.954  1.00  0.00    -0.183 A  
HETATM    5  N   UNL     1      -9.660  17.244  68.412  1.00  0.00    -0.274 NA 
HETATM    6  C   UNL     1     -10.633  16.299  68.582  1.00  0.00    -0.297 A  
HETATM    7  C   UNL     1     -10.188  15.016  68.233  1.00  0.00    -0.222 A  
HETATM    8  N   UNL     1      -8.897  15.249  67.788  1.00  0.00    -0.170 NA 
HETATM    9  C   UNL     1     -11.037  13.890  68.382  1.00  0.00    -0.278 A  
HETATM   10  C   UNL     1     -12.356  14.126  68.828  1.00  0.00    -0.083 A  
HETATM   11  C   UNL     1     -11.952  16.498  69.019  1.00  0.00     0.417 A  
HETATM   12  C   UNL     1     -12.811  15.407  69.125  1.00  0.00     0.612 A  
BRANCH   9  13
HETATM   13  C   UNL     1     -10.665  12.504  68.013  1.00  0.00    -0.221 C  
HETATM   14  O   UNL     1      -9.747  12.230  67.259  1.00  0.00    -0.192 OA 
BRANCH  13  15
HETATM   15  O   UNL     1     -11.529  11.615  68.572  1.00  0.00    -0.245 OA 
BRANCH  15  16
HETATM   16  C   UNL     1     -11.270  11.276  69.944  1.00  0.00    -0.187 C  
BRANCH  16  17
HETATM   17  C   UNL     1     -11.193   9.797  70.091  1.00  0.00    -0.272 C  
HETATM   18  O   UNL     1     -11.569   7.668  70.661  1.00  0.00    -0.285 OA 
HETATM   19  C   UNL     1     -11.952   8.983  70.793  1.00  0.00    -0.170 C  
HETATM   20  O   UNL     1     -10.192   9.095  69.440  1.00  0.00    -0.196 OA 
HETATM   21  C   UNL     1     -13.165   9.257  71.572  1.00  0.00    -0.433 C  
HETATM   22  C   UNL     1     -10.490   7.786  69.801  1.00  0.00    -0.233 C  
HETATM   23  O   UNL     1      -9.852   6.817  69.407  1.00  0.00    -0.155 OA 
ENDBRANCH  16  17
ENDBRANCH  15  16
ENDBRANCH  13  15
ENDBRANCH   9  13
BRANCH   8  24
HETATM   24  C   UNL     1      -8.015  14.356  67.053  1.00  0.00    -0.014 C  
BRANCH  24  25
HETATM   25  C   UNL     1      -7.582  13.109  67.790  1.00  0.00    -0.155 A  
HETATM   26  C   UNL     1      -7.240  11.909  67.168  1.00  0.00    -0.144 A  
HETATM   27  C   UNL     1      -7.142  12.046  69.947  1.00  0.00     0.575 A  
HETATM   28  C   UNL     1      -6.809  10.826  69.339  1.00  0.00    -0.109 A  
HETATM   29  C   UNL     1      -7.508  13.167  69.189  1.00  0.00     0.189 A  
HETATM   30  C   UNL     1      -6.804  10.817  67.929  1.00  0.00    -0.072 A  
BRANCH  28  31
HETATM   31  C   UNL     1      -6.403   9.625  70.138  1.00  0.00    -0.069 A  
HETATM   32  C   UNL     1      -5.530   8.782  72.290  1.00  0.00    -0.057 A  
HETATM   33  C   UNL     1      -6.178   9.763  71.532  1.00  0.00     0.148 A  
HETATM   34  C   UNL     1      -5.150   7.590  71.697  1.00  0.00    -0.027 A  
HETATM   35  C   UNL     1      -5.454   7.372  70.357  1.00  0.00    -0.024 A  
HETATM   36  C   UNL     1      -6.091   8.363  69.582  1.00  0.00    -0.032 A  
BRANCH  36  37
HETATM   37  C   UNL     1      -6.414   7.955  68.202  1.00  0.00    -0.055 C  
HETATM   38  N   UNL     1      -5.990   6.878  67.627  1.00  0.00    -0.027 NA 
HETATM   39  O   UNL     1      -6.573   6.900  66.321  1.00  0.00    -0.049 OA 
HETATM   40  C   UNL     1      -7.330   8.041  66.257  1.00  0.00    -0.078 C  
HETATM   41  N   UNL     1      -7.238   8.678  67.434  1.00  0.00    -0.080 NA 
HETATM   42  O   UNL     1      -7.963   8.423  65.283  1.00  0.00    -0.110 OA 
ENDBRANCH  36  37
ENDBRANCH  28  31
ENDBRANCH  24  25
ENDBRANCH   8  24
ENDBRANCH   3   4
ENDBRANCH   2   3
TORSDOF 10
ENDMDL
MODEL      250
REMARK 921   NORMALIZED FREE ENERGY PREDICTED BY IDOCK:    2.61 KCAL/MOL
REMARK 922        TOTAL FREE ENERGY PREDICTED BY IDOCK:    1.22 KCAL/MOL
REMARK 923 INTER-LIGAND FREE ENERGY PREDICTED BY IDOCK:   -1.06 KCAL/MOL
REMARK 924 INTRA-LIGAND FREE ENERGY PREDICTED BY IDOCK:    2.27 KCAL/MOL
REMARK 927      BINDING AFFINITY PREDICTED BY RF-SCORE:    0.00 PKD
ROOT
HETATM    1  C   UNL     1     -12.026  12.596  65.564  1.00  0.00    -0.509 C  
HETATM    2  C   UNL     1     -11.503  13.829  64.848  1.00  0.00    -0.343 C  
ENDROOT
BRANCH   2   3
HETATM    3  O   UNL     1     -12.169  14.989  65.353  1.00  0.00    -0.090 OA 
BRANCH   3   4
HETATM    4  C   UNL     1     -11.350  15.904  65.871  1.00  0.00     0.191 A  
HETATM    5  N   UNL     1     -11.076  17.062  65.330  1.00  0.00    -0.271 NA 
HETATM    6  C   UNL     1     -10.218  17.670  66.202  1.00  0.00    -0.343 A  
HETATM    7  C   UNL     1      -9.937  16.862  67.313  1.00  0.00    -0.277 A  
HETATM    8  N   UNL     1     -10.723  15.744  67.087  1.00  0.00    -0.318 NA 
HETATM    9  C   UNL     1      -9.030  17.297  68.314  1.00  0.00    -0.262 A  
HETATM   10  C   UNL     1      -8.483  18.590  68.175  1.00  0.00    -0.317 A  
HETATM   11  C   UNL     1      -9.658  18.953  66.099  1.00  0.00    -0.266 A  
HETATM   12  C   UNL     1      -8.802  19.410  67.097  1.00  0.00    -0.339 A  
BRANCH   9  13
HETATM   13  C   UNL     1      -8.696  16.526  69.534  1.00  0.00     0.251 C  
HETATM   14  O   UNL     1      -9.455  16.393  70.477  1.00  0.00     1.333 OA 
BRANCH  13  15
HETATM   15  O   UNL     1      -7.417  16.065  69.469  1.00  0.00    -0.222 OA 
BRANCH  15  16
HETATM   16  C   UNL     1      -7.208  14.740  69.983  1.00  0.00     0.035 C  
BRANCH  16  17
HETATM   17  C   UNL     1      -6.482  14.812  71.281  1.00  0.00     0.534 C  
HETATM   18  O   UNL     1      -5.169  15.429  72.981  1.00  0.00     0.161 OA 
HETATM   19  C   UNL     1      -5.612  15.702  71.707  1.00  0.00     0.477 C  
HETATM   20  O   UNL     1      -6.681  13.824  72.232  1.00  0.00     1.304 OA 
HETATM   21  C   UNL     1      -5.154  16.949  71.086  1.00  0.00    -0.111 C  
HETATM   22  C   UNL     1      -5.871  14.272  73.270  1.00  0.00     0.161 C  
HETATM   23  O   UNL     1      -5.773  13.692  74.345  1.00  0.00    -0.490 OA 
ENDBRANCH  16  17
ENDBRANCH  15  16
ENDBRANCH  13  15
ENDBRANCH   9  13
BRANCH   8  24
HETATM   24  C   UNL     1     -11.064  14.673  68.009  1.00  0.00    -0.281 C  
BRANCH  24  25
HETATM   25  C   UNL     1     -10.148  13.470  67.985  1.00  0.00    -0.244 A  
HETATM   26  C   UNL     1      -8.857  13.478  67.458  1.00  0.00    -0.209 A  
HETATM   27  C   UNL     1      -9.846  11.107  68.530  1.00  0.00    -0.199 A  
HETATM   28  C   UNL     1      -8.550  11.092  67.990  1.00  0.00    -0.134 A  
HETATM   29  C   UNL     1     -10.623  12.273  68.539  1.00  0.00    -0.254 A  
HETATM   30  C   UNL     1      -8.060  12.328  67.520  1.00  0.00    -0.170 A  
BRANCH  28  31
HETATM   31  C   UNL     1      -7.704   9.855  67.988  1.00  0.00    -0.086 A  
HETATM   32  C   UNL     1      -5.648   8.767  67.156  1.00  0.00    -0.038 A  
HETATM   33  C   UNL     1      -6.390   9.914  67.456  1.00  0.00    -0.063 A  
HETATM   34  C   UNL     1      -6.163   7.516  67.448  1.00  0.00    -0.049 A  
HETATM   35  C   UNL     1      -7.402   7.420  68.073  1.00  0.00    -0.096 A  
HETATM   36  C   UNL     1      -8.164   8.571  68.363  1.00  0.00    -0.123 A  
BRANCH  36  37
HETATM   37  C   UNL     1      -9.418   8.314  69.095  1.00  0.00    -0.155 C  
HETATM   38  N   UNL     1      -9.586   7.385  69.977  1.00  0.00    -0.168 NA 
HETATM   39  O   UNL     1     -10.938   7.533  70.420  1.00  0.00    -0.245 OA 
HETATM   40  C   UNL     1     -11.455   8.597  69.727  1.00  0.00     0.239 C  
HETATM   41  N   UNL     1     -10.500   9.084  68.921  1.00  0.00    -0.219 NA 
HETATM   42  O   UNL     1     -12.601   9.015  69.814  1.00  0.00     1.148 OA 
ENDBRANCH  36  37
ENDBRANCH  28  31
ENDBRANCH  24  25
ENDBRANCH   8  24
ENDBRANCH   3   4
ENDBRANCH   2   3
TORSDOF 10
ENDMDL
MODEL      251
REMARK 921   NORMALIZED FREE ENERGY PREDICTED BY IDOCK:    2.78 KCAL/MOL
REMARK 922        TOTAL FREE ENERGY PREDICTED BY IDOCK:    1.48 KCAL/MOL
REMARK 923 INTER-LIGAND FREE ENERGY PREDICTED BY IDOCK:   -3.89 KCAL/MOL
REMARK 924 INTRA-LIGAND FREE ENERGY PREDICTED BY IDOCK:    5.38 KCAL/MOL
REMARK 927      BINDING AFFINITY PREDICTED BY RF-SCORE:    0.00 PKD
ROOT
HETATM    1  C   UNL     1      -9.306  13.708  65.493  1.00  0.00     0.325 C  
HETATM    2  C   UNL     1      -9.291  12.274  65.993  1.00  0.00    -0.141 C  
ENDROOT
BRANCH   2   3
HETATM    3  O   UNL     1      -8.155  12.078  66.838  1.00  0.00    -0.166 OA 
BRANCH   3   4
HETATM    4  C   UNL     1      -7.673  10.834  66.820  1.00  0.00    -0.136 A  
HETATM    5  N   UNL     1      -6.404  10.519  66.834  1.00  0.00    -0.070 NA 
HETATM    6  C   UNL     1      -6.376   9.153  66.823  1.00  0.00    -0.066 A  
HETATM    7  C   UNL     1      -7.664   8.600  66.788  1.00  0.00    -0.093 A  
HETATM    8  N   UNL     1      -8.480   9.719  66.832  1.00  0.00    -0.120 NA 
HETATM    9  C   UNL     1      -7.847   7.195  66.726  1.00  0.00    -0.103 A  
HETATM   10  C   UNL     1      -6.691   6.387  66.771  1.00  0.00    -0.060 A  
HETATM   11  C   UNL     1      -5.248   8.319  66.870  1.00  0.00    -0.032 A  
HETATM   12  C   UNL     1      -5.415   6.937  66.858  1.00  0.00    -0.017 A  
BRANCH   9  13
HETATM   13  C   UNL     1      -9.167   6.522  66.715  1.00  0.00    -0.147 C  
HETATM   14  O   UNL     1     -10.154   6.980  66.167  1.00  0.00     0.072 OA 
BRANCH  13  15
HETATM   15  O   UNL     1      -9.125   5.381  67.455  1.00  0.00    -0.112 OA 
BRANCH  15  16
HETATM   16  C   UNL     1     -10.228   5.184  68.355  1.00  0.00    -0.105 C  
BRANCH  16  17
HETATM   17  C   UNL     1      -9.773   5.380  69.758  1.00  0.00    -0.184 C  
HETATM   18  O   UNL     1      -8.896   6.205  71.641  1.00  0.00    -0.138 OA 
HETATM   19  C   UNL     1      -9.126   6.390  70.297  1.00  0.00    -0.155 C  
HETATM   20  O   UNL     1     -10.011   4.391  70.699  1.00  0.00    -0.212 OA 
HETATM   21  C   UNL     1      -8.732   7.678  69.716  1.00  0.00    -0.140 C  
HETATM   22  C   UNL     1      -9.477   4.966  71.848  1.00  0.00    -0.149 C  
HETATM   23  O   UNL     1      -9.504   4.425  72.946  1.00  0.00    -0.128 OA 
ENDBRANCH  16  17
ENDBRANCH  15  16
ENDBRANCH  13  15
ENDBRANCH   9  13
BRANCH   8  24
HETATM   24  C   UNL     1      -9.910   9.790  67.083  1.00  0.00    -0.188 C  
BRANCH  24  25
HETATM   25  C   UNL     1     -10.380  10.996  67.864  1.00  0.00    -0.213 A  
HETATM   26  C   UNL     1     -11.640  11.577  67.728  1.00  0.00    -0.338 A  
HETATM   27  C   UNL     1      -9.844  12.697  69.535  1.00  0.00     1.186 A  
HETATM   28  C   UNL     1     -11.102  13.305  69.401  1.00  0.00    -0.148 A  
HETATM   29  C   UNL     1      -9.495  11.561  68.793  1.00  0.00    -0.099 A  
HETATM   30  C   UNL     1     -12.008  12.667  68.527  1.00  0.00    -0.258 A  
BRANCH  28  31
HETATM   31  C   UNL     1     -11.493  14.510  70.199  1.00  0.00    -0.297 A  
HETATM   32  C   UNL     1     -11.091  16.909  70.639  1.00  0.00     0.429 A  
HETATM   33  C   UNL     1     -11.016  15.788  69.805  1.00  0.00    -0.316 A  
HETATM   34  C   UNL     1     -11.716  16.812  71.871  1.00  0.00     0.151 A  
HETATM   35  C   UNL     1     -12.295  15.604  72.246  1.00  0.00    -0.518 A  
HETATM   36  C   UNL     1     -12.208  14.465  71.418  1.00  0.00    -0.424 A  
BRANCH  36  37
HETATM   37  C   UNL     1     -12.936  13.283  71.916  1.00  0.00    -0.311 C  
HETATM   38  N   UNL     1     -13.948  13.318  72.719  1.00  0.00    -0.589 NA 
HETATM   39  O   UNL     1     -14.324  11.950  72.902  1.00  0.00     0.848 OA 
HETATM   40  C   UNL     1     -13.458  11.208  72.141  1.00  0.00    -0.088 C  
HETATM   41  N   UNL     1     -12.613  12.045  71.522  1.00  0.00    -0.236 NA 
HETATM   42  O   UNL     1     -13.445   9.987  72.061  1.00  0.00    -0.407 OA 
ENDBRANCH  36  37
ENDBRANCH  28  31
ENDBRANCH  24  25
ENDBRANCH   8  24
ENDBRANCH   3   4
ENDBRANCH   2   3
TORSDOF 10
ENDMDL
MODEL      252
REMARK 921   NORMALIZED FREE ENERGY PREDICTED BY IDOCK:    3.61 KCAL/MOL
REMARK 922        TOTAL FREE ENERGY PREDICTED BY IDOCK:    2.80 KCAL/MOL
REMARK 923 INTER-LIGAND FREE ENERGY PREDICTED BY IDOCK:    0.63 KCAL/MOL
REMARK 924 INTRA-LIGAND FREE ENERGY PREDICTED BY IDOCK:    2.18 KCAL/MOL
REMARK 927      BINDING AFFINITY PREDICTED BY RF-SCORE:    0.00 PKD
ROOT
HETATM    1  C   UNL     1      -7.425  13.697  66.427  1.00  0.00     2.033 C  
HETATM    2  C   UNL     1      -6.153  13.475  67.227  1.00  0.00     0.334 C  
ENDROOT
BRANCH   2   3
HETATM    3  O   UNL     1      -5.245  12.677  66.463  1.00  0.00     0.006 OA 
BRANCH   3   4
HETATM    4  C   UNL     1      -5.354  11.367  66.687  1.00  0.00    -0.132 A  
HETATM    5  N   UNL     1      -5.148  10.432  65.795  1.00  0.00    -0.055 NA 
HETATM    6  C   UNL     1      -5.352   9.255  66.460  1.00  0.00    -0.045 A  
HETATM    7  C   UNL     1      -5.707   9.462  67.800  1.00  0.00    -0.041 A  
HETATM    8  N   UNL     1      -5.654  10.841  67.923  1.00  0.00    -0.042 NA 
HETATM    9  C   UNL     1      -6.005   8.364  68.648  1.00  0.00    -0.044 A  
HETATM   10  C   UNL     1      -5.863   7.069  68.106  1.00  0.00    -0.022 A  
HETATM   11  C   UNL     1      -5.217   7.953  65.955  1.00  0.00    -0.025 A  
HETATM   12  C   UNL     1      -5.461   6.865  66.789  1.00  0.00    -0.018 A  
BRANCH   9  13
HETATM   13  C   UNL     1      -6.361   8.485  70.081  1.00  0.00    -0.038 C  
HETATM   14  O   UNL     1      -5.977   9.392  70.798  1.00  0.00    -0.049 OA 
BRANCH  13  15
HETATM   15  O   UNL     1      -7.100   7.414  70.479  1.00  0.00    -0.055 OA 
BRANCH  15  16
HETATM   16  C   UNL     1      -8.065   7.676  71.511  1.00  0.00    -0.098 C  
BRANCH  16  17
HETATM   17  C   UNL     1      -9.412   7.224  71.067  1.00  0.00    -0.158 C  
HETATM   18  O   UNL     1     -11.588   6.726  70.960  1.00  0.00    -0.300 OA 
HETATM   19  C   UNL     1     -10.551   7.207  71.725  1.00  0.00    -0.206 C  
HETATM   20  O   UNL     1      -9.576   6.715  69.789  1.00  0.00    -0.150 OA 
HETATM   21  C   UNL     1     -10.877   7.712  73.063  1.00  0.00    -0.457 C  
HETATM   22  C   UNL     1     -10.942   6.453  69.767  1.00  0.00    -0.356 C  
HETATM   23  O   UNL     1     -11.527   6.009  68.786  1.00  0.00    -0.177 OA 
ENDBRANCH  16  17
ENDBRANCH  15  16
ENDBRANCH  13  15
ENDBRANCH   9  13
BRANCH   8  24
HETATM   24  C   UNL     1      -5.667  11.646  69.134  1.00  0.00    -0.053 C  
BRANCH  24  25
HETATM   25  C   UNL     1      -6.916  12.465  69.365  1.00  0.00     0.084 A  
HETATM   26  C   UNL     1      -6.918  13.783  69.819  1.00  0.00     0.183 A  
HETATM   27  C   UNL     1      -9.359  12.546  69.309  1.00  0.00     0.879 A  
HETATM   28  C   UNL     1      -9.380  13.868  69.780  1.00  0.00     1.360 A  
HETATM   29  C   UNL     1      -8.153  11.863  69.094  1.00  0.00     0.290 A  
HETATM   30  C   UNL     1      -8.124  14.482  69.960  1.00  0.00     0.693 A  
BRANCH  28  31
HETATM   31  C   UNL     1     -10.661  14.612  70.000  1.00  0.00    -0.031 A  
HETATM   32  C   UNL     1     -12.191  15.641  71.646  1.00  0.00    -0.493 A  
HETATM   33  C   UNL     1     -10.922  15.185  71.272  1.00  0.00    -0.155 A  
HETATM   34  C   UNL     1     -13.231  15.611  70.733  1.00  0.00    -0.270 A  
HETATM   35  C   UNL     1     -12.988  15.160  69.439  1.00  0.00     0.544 A  
HETATM   36  C   UNL     1     -11.716  14.683  69.060  1.00  0.00    -0.339 A  
BRANCH  36  37
HETATM   37  C   UNL     1     -11.594  14.313  67.638  1.00  0.00    -0.368 C  
HETATM   38  N   UNL     1     -12.084  13.244  67.104  1.00  0.00    -0.340 NA 
HETATM   39  O   UNL     1     -11.734  13.325  65.720  1.00  0.00    -0.330 OA 
HETATM   40  C   UNL     1     -11.046  14.501  65.566  1.00  0.00    -0.339 C  
HETATM   41  N   UNL     1     -10.980  15.113  66.757  1.00  0.00    -0.321 NA 
HETATM   42  O   UNL     1     -10.556  14.909  64.522  1.00  0.00    -0.273 OA 
ENDBRANCH  36  37
ENDBRANCH  28  31
ENDBRANCH  24  25
ENDBRANCH   8  24
ENDBRANCH   3   4
ENDBRANCH   2   3
TORSDOF 10
ENDMDL
MODEL      253
REMARK 921   NORMALIZED FREE ENERGY PREDICTED BY IDOCK:    4.35 KCAL/MOL
REMARK 922        TOTAL FREE ENERGY PREDICTED BY IDOCK:    3.97 KCAL/MOL
REMARK 923 INTER-LIGAND FREE ENERGY PREDICTED BY IDOCK:    4.43 KCAL/MOL
REMARK 924 INTRA-LIGAND FREE ENERGY PREDICTED BY IDOCK:   -0.46 KCAL/MOL
REMARK 927      BINDING AFFINITY PREDICTED BY RF-SCORE:    0.00 PKD
ROOT
HETATM    1  C   UNL     1      -7.779  16.295  65.329  1.00  0.00     3.828 C  
HETATM    2  C   UNL     1      -8.609  15.078  65.698  1.00  0.00     1.504 C  
ENDROOT
BRANCH   2   3
HETATM    3  O   UNL     1      -8.163  14.564  66.956  1.00  0.00    -0.200 OA 
BRANCH   3   4
HETATM    4  C   UNL     1      -9.103  14.554  67.902  1.00  0.00    -0.191 A  
HETATM    5  N   UNL     1      -9.251  15.469  68.825  1.00  0.00    -0.197 NA 
HETATM    6  C   UNL     1     -10.333  15.066  69.556  1.00  0.00    -0.220 A  
HETATM    7  C   UNL     1     -10.867  13.858  69.084  1.00  0.00    -0.189 A  
HETATM    8  N   UNL     1     -10.072  13.579  67.984  1.00  0.00    -0.237 NA 
HETATM    9  C   UNL     1     -11.969  13.249  69.738  1.00  0.00    -0.391 A  
HETATM   10  C   UNL     1     -12.538  13.940  70.829  1.00  0.00    -0.424 A  
HETATM   11  C   UNL     1     -10.927  15.728  70.641  1.00  0.00    -0.341 A  
HETATM   12  C   UNL     1     -12.039  15.164  71.263  1.00  0.00    -0.399 A  
BRANCH   9  13
HETATM   13  C   UNL     1     -12.616  11.992  69.295  1.00  0.00     0.539 C  
HETATM   14  O   UNL     1     -13.126  11.846  68.198  1.00  0.00     2.212 OA 
BRANCH  13  15
HETATM   15  O   UNL     1     -12.618  11.078  70.302  1.00  0.00    -0.297 OA 
BRANCH  15  16
HETATM   16  C   UNL     1     -11.354  10.450  70.572  1.00  0.00    -0.341 C  
BRANCH  16  17
HETATM   17  C   UNL     1     -11.530   9.387  71.599  1.00  0.00    -0.393 C  
HETATM   18  O   UNL     1     -11.188   7.755  73.088  1.00  0.00    -0.402 OA 
HETATM   19  C   UNL     1     -10.631   8.612  72.167  1.00  0.00    -0.341 C  
HETATM   20  O   UNL     1     -12.799   9.092  72.069  1.00  0.00    -0.350 OA 
HETATM   21  C   UNL     1      -9.169   8.612  72.043  1.00  0.00    -0.338 C  
HETATM   22  C   UNL     1     -12.526   8.101  73.006  1.00  0.00     0.479 C  
HETATM   23  O   UNL     1     -13.389   7.569  73.694  1.00  0.00     2.709 OA 
ENDBRANCH  16  17
ENDBRANCH  15  16
ENDBRANCH  13  15
ENDBRANCH   9  13
BRANCH   8  24
HETATM   24  C   UNL     1     -10.291  12.602  66.930  1.00  0.00    -0.233 C  
BRANCH  24  25
HETATM   25  C   UNL     1      -9.581  11.280  67.103  1.00  0.00    -0.194 A  
HETATM   26  C   UNL     1      -9.010  10.552  66.059  1.00  0.00    -0.185 A  
HETATM   27  C   UNL     1      -8.859   9.521  68.640  1.00  0.00    -0.132 A  
HETATM   28  C   UNL     1      -8.294   8.768  67.599  1.00  0.00    -0.114 A  
HETATM   29  C   UNL     1      -9.478  10.756  68.399  1.00  0.00    -0.174 A  
HETATM   30  C   UNL     1      -8.329   9.356  66.318  1.00  0.00    -0.117 A  
BRANCH  28  31
HETATM   31  C   UNL     1      -7.617   7.454  67.846  1.00  0.00    -0.114 A  
HETATM   32  C   UNL     1      -6.619   5.933  69.518  1.00  0.00    -0.044 A  
HETATM   33  C   UNL     1      -7.474   6.987  69.179  1.00  0.00    -0.095 A  
HETATM   34  C   UNL     1      -5.932   5.255  68.526  1.00  0.00    -0.021 A  
HETATM   35  C   UNL     1      -6.132   5.611  67.196  1.00  0.00    -0.029 A  
HETATM   36  C   UNL     1      -6.979   6.683  66.848  1.00  0.00    -0.067 A  
BRANCH  36  37
HETATM   37  C   UNL     1      -7.149   6.889  65.397  1.00  0.00    -0.068 C  
HETATM   38  N   UNL     1      -6.307   7.498  64.629  1.00  0.00    -0.041 NA 
HETATM   39  O   UNL     1      -6.883   7.434  63.322  1.00  0.00    -0.052 OA 
HETATM   40  C   UNL     1      -8.064   6.750  63.454  1.00  0.00    -0.006 C  
HETATM   41  N   UNL     1      -8.210   6.402  64.741  1.00  0.00    -0.124 NA 
HETATM   42  O   UNL     1      -8.858   6.518  62.554  1.00  0.00     0.215 OA 
ENDBRANCH  36  37
ENDBRANCH  28  31
ENDBRANCH  24  25
ENDBRANCH   8  24
ENDBRANCH   3   4
ENDBRANCH   2   3
TORSDOF 10
ENDMDL
MODEL      254
REMARK 921   NORMALIZED FREE ENERGY PREDICTED BY IDOCK:    4.61 KCAL/MOL
REMARK 922        TOTAL FREE ENERGY PREDICTED BY IDOCK:    4.38 KCAL/MOL
REMARK 923 INTER-LIGAND FREE ENERGY PREDICTED BY IDOCK:    3.85 KCAL/MOL
REMARK 924 INTRA-LIGAND FREE ENERGY PREDICTED BY IDOCK:    0.53 KCAL/MOL
REMARK 927      BINDING AFFINITY PREDICTED BY RF-SCORE:    0.00 PKD
ROOT
HETATM    1  C   UNL     1      -7.915  16.802  64.845  1.00  0.00     4.969 C  
HETATM    2  C   UNL     1      -8.037  15.600  65.766  1.00  0.00     1.603 C  
ENDROOT
BRANCH   2   3
HETATM    3  O   UNL     1      -6.791  15.384  66.433  1.00  0.00     0.528 OA 
BRANCH   3   4
HETATM    4  C   UNL     1      -6.670  14.174  66.978  1.00  0.00     0.875 A  
HETATM    5  N   UNL     1      -5.637  13.758  67.666  1.00  0.00    -0.331 NA 
HETATM    6  C   UNL     1      -5.949  12.482  68.040  1.00  0.00    -0.081 A  
HETATM    7  C   UNL     1      -7.206  12.085  67.561  1.00  0.00    -0.127 A  
HETATM    8  N   UNL     1      -7.663  13.222  66.916  1.00  0.00     0.147 NA 
HETATM    9  C   UNL     1      -7.692  10.775  67.806  1.00  0.00    -0.104 A  
HETATM   10  C   UNL     1      -6.894   9.924  68.600  1.00  0.00    -0.051 A  
HETATM   11  C   UNL     1      -5.183  11.610  68.830  1.00  0.00    -0.046 A  
HETATM   12  C   UNL     1      -5.670  10.337  69.117  1.00  0.00    -0.037 A  
BRANCH   9  13
HETATM   13  C   UNL     1      -9.017  10.277  67.365  1.00  0.00    -0.135 C  
HETATM   14  O   UNL     1     -10.027  10.357  68.042  1.00  0.00    -0.151 OA 
BRANCH  13  15
HETATM   15  O   UNL     1      -8.916   9.667  66.154  1.00  0.00    -0.144 OA 
BRANCH  15  16
HETATM   16  C   UNL     1      -9.825   8.576  65.931  1.00  0.00     0.059 C  
BRANCH  16  17
HETATM   17  C   UNL     1      -9.262   7.326  66.510  1.00  0.00    -0.157 C  
HETATM   18  O   UNL     1      -8.152   5.413  66.834  1.00  0.00    -0.104 OA 
HETATM   19  C   UNL     1      -8.466   6.432  65.964  1.00  0.00    -0.144 C  
HETATM   20  O   UNL     1      -9.589   6.965  67.807  1.00  0.00    -0.123 OA 
HETATM   21  C   UNL     1      -7.806   6.429  64.654  1.00  0.00    -0.112 C  
HETATM   22  C   UNL     1      -8.853   5.796  67.964  1.00  0.00    -0.109 C  
HETATM   23  O   UNL     1      -8.830   5.149  69.005  1.00  0.00    -0.092 OA 
ENDBRANCH  16  17
ENDBRANCH  15  16
ENDBRANCH  13  15
ENDBRANCH   9  13
BRANCH   8  24
HETATM   24  C   UNL     1      -9.005  13.521  66.444  1.00  0.00     0.034 C  
BRANCH  24  25
HETATM   25  C   UNL     1     -10.051  13.713  67.519  1.00  0.00    -0.237 A  
HETATM   26  C   UNL     1     -11.385  13.326  67.395  1.00  0.00    -0.337 A  
HETATM   27  C   UNL     1     -10.565  14.547  69.758  1.00  0.00    -0.013 A  
HETATM   28  C   UNL     1     -11.915  14.179  69.645  1.00  0.00    -0.389 A  
HETATM   29  C   UNL     1      -9.650  14.308  68.724  1.00  0.00    -0.153 A  
HETATM   30  C   UNL     1     -12.275  13.501  68.462  1.00  0.00    -0.160 A  
BRANCH  28  31
HETATM   31  C   UNL     1     -12.898  14.416  70.750  1.00  0.00    -0.417 A  
HETATM   32  C   UNL     1     -13.968  16.076  72.236  1.00  0.00    -0.071 A  
HETATM   33  C   UNL     1     -13.290  15.745  71.057  1.00  0.00    -0.138 A  
HETATM   34  C   UNL     1     -14.348  15.078  73.116  1.00  0.00     1.374 A  
HETATM   35  C   UNL     1     -14.082  13.750  72.795  1.00  0.00    -0.045 A  
HETATM   36  C   UNL     1     -13.383  13.411  71.618  1.00  0.00    -0.420 A  
BRANCH  36  37
HETATM   37  C   UNL     1     -13.245  11.962  71.379  1.00  0.00    -0.085 C  
HETATM   38  N   UNL     1     -12.749  11.430  70.311  1.00  0.00    -0.109 NA 
HETATM   39  O   UNL     1     -12.803  10.019  70.540  1.00  0.00    -0.233 OA 
HETATM   40  C   UNL     1     -13.344   9.852  71.788  1.00  0.00    -0.404 C  
HETATM   41  N   UNL     1     -13.599  11.063  72.305  1.00  0.00    -0.077 NA 
HETATM   42  O   UNL     1     -13.576   8.779  72.327  1.00  0.00    -0.398 OA 
ENDBRANCH  36  37
ENDBRANCH  28  31
ENDBRANCH  24  25
ENDBRANCH   8  24
ENDBRANCH   3   4
ENDBRANCH   2   3
TORSDOF 10
ENDMDL
MODEL      255
REMARK 921   NORMALIZED FREE ENERGY PREDICTED BY IDOCK:    4.75 KCAL/MOL
REMARK 922        TOTAL FREE ENERGY PREDICTED BY IDOCK:    4.60 KCAL/MOL
REMARK 923 INTER-LIGAND FREE ENERGY PREDICTED BY IDOCK:    6.46 KCAL/MOL
REMARK 924 INTRA-LIGAND FREE ENERGY PREDICTED BY IDOCK:   -1.86 KCAL/MOL
REMARK 927      BINDING AFFINITY PREDICTED BY RF-SCORE:    0.00 PKD
ROOT
HETATM    1  C   UNL     1      -7.780  16.295  65.329  1.00  0.00     3.828 C  
HETATM    2  C   UNL     1      -8.612  15.083  65.709  1.00  0.00     1.129 C  
ENDROOT
BRANCH   2   3
HETATM    3  O   UNL     1      -8.164  14.576  66.969  1.00  0.00    -0.200 OA 
BRANCH   3   4
HETATM    4  C   UNL     1      -9.099  14.581  67.920  1.00  0.00    -0.191 A  
HETATM    5  N   UNL     1      -9.238  15.507  68.833  1.00  0.00    -0.202 NA 
HETATM    6  C   UNL     1     -10.319  15.117  69.573  1.00  0.00    -0.243 A  
HETATM    7  C   UNL     1     -10.862  13.908  69.116  1.00  0.00    -0.189 A  
HETATM    8  N   UNL     1     -10.074  13.613  68.016  1.00  0.00    -0.243 NA 
HETATM    9  C   UNL     1     -11.964  13.312  69.782  1.00  0.00    -0.391 A  
HETATM   10  C   UNL     1     -12.525  14.018  70.868  1.00  0.00    -0.439 A  
HETATM   11  C   UNL     1     -10.905  15.794  70.655  1.00  0.00    -0.281 A  
HETATM   12  C   UNL     1     -12.016  15.243  71.288  1.00  0.00    -0.409 A  
BRANCH   9  13
HETATM   13  C   UNL     1     -12.620  12.054  69.355  1.00  0.00     0.445 C  
HETATM   14  O   UNL     1     -13.136  11.899  68.262  1.00  0.00     2.051 OA 
BRANCH  13  15
HETATM   15  O   UNL     1     -12.624  11.151  70.372  1.00  0.00    -0.293 OA 
BRANCH  15  16
HETATM   16  C   UNL     1     -11.362  10.519  70.644  1.00  0.00    -0.275 C  
BRANCH  16  17
HETATM   17  C   UNL     1     -11.539   9.470  71.685  1.00  0.00    -0.381 C  
HETATM   18  O   UNL     1     -11.201   7.855  73.193  1.00  0.00    -0.382 OA 
HETATM   19  C   UNL     1     -10.642   8.697  72.259  1.00  0.00    -0.305 C  
HETATM   20  O   UNL     1     -12.808   9.189  72.164  1.00  0.00    -0.371 OA 
HETATM   21  C   UNL     1      -9.182   8.686  72.128  1.00  0.00    -0.326 C  
HETATM   22  C   UNL     1     -12.536   8.208  73.113  1.00  0.00     0.905 C  
HETATM   23  O   UNL     1     -13.399   7.690  73.811  1.00  0.00     2.959 OA 
ENDBRANCH  16  17
ENDBRANCH  15  16
ENDBRANCH  13  15
ENDBRANCH   9  13
BRANCH   8  24
HETATM   24  C   UNL     1     -10.303  12.627  66.973  1.00  0.00    -0.232 C  
BRANCH  24  25
HETATM   25  C   UNL     1      -9.600  11.301  67.158  1.00  0.00    -0.194 A  
HETATM   26  C   UNL     1      -9.039  10.559  66.119  1.00  0.00    -0.184 A  
HETATM   27  C   UNL     1      -8.883   9.555  68.710  1.00  0.00    -0.132 A  
HETATM   28  C   UNL     1      -8.327   8.787  67.676  1.00  0.00    -0.114 A  
HETATM   29  C   UNL     1      -9.495  10.791  68.459  1.00  0.00    -0.181 A  
HETATM   30  C   UNL     1      -8.364   9.362  66.388  1.00  0.00    -0.116 A  
BRANCH  28  31
HETATM   31  C   UNL     1      -7.657   7.472  67.934  1.00  0.00    -0.110 A  
HETATM   32  C   UNL     1      -5.557   6.174  67.831  1.00  0.00    -0.008 A  
HETATM   33  C   UNL     1      -6.241   7.393  67.886  1.00  0.00    -0.043 A  
HETATM   34  C   UNL     1      -6.261   4.984  67.899  1.00  0.00    -0.035 A  
HETATM   35  C   UNL     1      -7.643   5.020  68.059  1.00  0.00    -0.083 A  
HETATM   36  C   UNL     1      -8.341   6.245  68.098  1.00  0.00    -0.115 A  
BRANCH  36  37
HETATM   37  C   UNL     1      -9.789   6.123  68.350  1.00  0.00    -0.126 C  
HETATM   38  N   UNL     1     -10.674   5.816  67.460  1.00  0.00    -0.255 NA 
HETATM   39  O   UNL     1     -11.919   5.799  68.164  1.00  0.00     1.959 OA 
HETATM   40  C   UNL     1     -11.627   6.103  69.468  1.00  0.00    -0.027 C  
HETATM   41  N   UNL     1     -10.302   6.285  69.575  1.00  0.00    -0.195 NA 
HETATM   42  O   UNL     1     -12.441   6.213  70.374  1.00  0.00     0.459 OA 
ENDBRANCH  36  37
ENDBRANCH  28  31
ENDBRANCH  24  25
ENDBRANCH   8  24
ENDBRANCH   3   4
ENDBRANCH   2   3
TORSDOF 10
ENDMDL
MODEL      256
REMARK 921   NORMALIZED FREE ENERGY PREDICTED BY IDOCK:    5.09 KCAL/MOL
REMARK 922        TOTAL FREE ENERGY PREDICTED BY IDOCK:    5.14 KCAL/MOL
REMARK 923 INTER-LIGAND FREE ENERGY PREDICTED BY IDOCK:   -0.98 KCAL/MOL
REMARK 924 INTRA-LIGAND FREE ENERGY PREDICTED BY IDOCK:    6.12 KCAL/MOL
REMARK 927      BINDING AFFINITY PREDICTED BY RF-SCORE:    0.00 PKD
ROOT
HETATM    1  C   UNL     1     -11.418  11.215  63.322  1.00  0.00     0.397 C  
HETATM    2  C   UNL     1     -12.361  12.278  63.857  1.00  0.00    -0.509 C  
ENDROOT
BRANCH   2   3
HETATM    3  O   UNL     1     -11.908  13.568  63.440  1.00  0.00    -0.369 OA 
BRANCH   3   4
HETATM    4  C   UNL     1     -11.488  14.345  64.440  1.00  0.00    -0.288 A  
HETATM    5  N   UNL     1     -11.243  15.626  64.344  1.00  0.00    -0.321 NA 
HETATM    6  C   UNL     1     -10.859  16.009  65.599  1.00  0.00    -0.266 A  
HETATM    7  C   UNL     1     -10.853  14.935  66.499  1.00  0.00    -0.322 A  
HETATM    8  N   UNL     1     -11.310  13.881  65.724  1.00  0.00    -0.303 NA 
HETATM    9  C   UNL     1     -10.440  15.119  67.843  1.00  0.00    -0.245 A  
HETATM   10  C   UNL     1     -10.106  16.430  68.245  1.00  0.00    -0.248 A  
HETATM   11  C   UNL     1     -10.524  17.301  66.034  1.00  0.00    -0.285 A  
HETATM   12  C   UNL     1     -10.162  17.505  67.363  1.00  0.00    -0.337 A  
BRANCH   9  13
HETATM   13  C   UNL     1     -10.429  14.051  68.871  1.00  0.00    -0.200 C  
HETATM   14  O   UNL     1     -11.102  13.038  68.798  1.00  0.00    -0.249 OA 
BRANCH  13  15
HETATM   15  O   UNL     1      -9.629  14.404  69.913  1.00  0.00     0.473 OA 
BRANCH  15  16
HETATM   16  C   UNL     1     -10.296  14.581  71.174  1.00  0.00     1.831 C  
BRANCH  16  17
HETATM   17  C   UNL     1     -11.760  14.734  70.952  1.00  0.00    -0.307 C  
HETATM   18  O   UNL     1     -13.983  14.513  71.026  1.00  0.00    -0.274 OA 
HETATM   19  C   UNL     1     -12.763  14.061  71.473  1.00  0.00    -0.363 C  
HETATM   20  O   UNL     1     -12.221  15.694  70.066  1.00  0.00    -0.367 OA 
HETATM   21  C   UNL     1     -12.767  13.017  72.504  1.00  0.00     0.189 C  
HETATM   22  C   UNL     1     -13.599  15.534  70.174  1.00  0.00     0.777 C  
HETATM   23  O   UNL     1     -14.407  16.223  69.564  1.00  0.00     3.468 OA 
ENDBRANCH  16  17
ENDBRANCH  15  16
ENDBRANCH  13  15
ENDBRANCH   9  13
BRANCH   8  24
HETATM   24  C   UNL     1     -11.765  12.569  66.153  1.00  0.00    -0.409 C  
BRANCH  24  25
HETATM   25  C   UNL     1     -10.680  11.546  66.398  1.00  0.00    -0.320 A  
HETATM   26  C   UNL     1     -10.766  10.205  66.024  1.00  0.00     0.033 A  
HETATM   27  C   UNL     1      -8.464  11.082  67.320  1.00  0.00    -0.130 A  
HETATM   28  C   UNL     1      -8.540   9.726  66.965  1.00  0.00    -0.127 A  
HETATM   29  C   UNL     1      -9.505  11.975  67.031  1.00  0.00    -0.199 A  
HETATM   30  C   UNL     1      -9.691   9.336  66.249  1.00  0.00    -0.340 A  
BRANCH  28  31
HETATM   31  C   UNL     1      -7.428   8.765  67.255  1.00  0.00    -0.089 A  
HETATM   32  C   UNL     1      -5.218   7.902  66.563  1.00  0.00    -0.025 A  
HETATM   33  C   UNL     1      -6.194   8.905  66.568  1.00  0.00    -0.061 A  
HETATM   34  C   UNL     1      -5.408   6.751  67.308  1.00  0.00    -0.009 A  
HETATM   35  C   UNL     1      -6.555   6.626  68.084  1.00  0.00    -0.059 A  
HETATM   36  C   UNL     1      -7.551   7.625  68.081  1.00  0.00    -0.114 A  
BRANCH  36  37
HETATM   37  C   UNL     1      -8.669   7.384  69.012  1.00  0.00    -0.133 C  
HETATM   38  N   UNL     1      -9.191   8.273  69.791  1.00  0.00    -0.154 NA 
HETATM   39  O   UNL     1     -10.242   7.591  70.482  1.00  0.00    -0.199 OA 
HETATM   40  C   UNL     1     -10.242   6.305  70.008  1.00  0.00    -0.188 C  
HETATM   41  N   UNL     1      -9.274   6.192  69.086  1.00  0.00    -0.127 NA 
HETATM   42  O   UNL     1     -10.984   5.407  70.382  1.00  0.00    -0.212 OA 
ENDBRANCH  36  37
ENDBRANCH  28  31
ENDBRANCH  24  25
ENDBRANCH   8  24
ENDBRANCH   3   4
ENDBRANCH   2   3
TORSDOF 10
ENDMDL
MODEL      257
REMARK 921   NORMALIZED FREE ENERGY PREDICTED BY IDOCK:    5.90 KCAL/MOL
REMARK 922        TOTAL FREE ENERGY PREDICTED BY IDOCK:    6.43 KCAL/MOL
REMARK 923 INTER-LIGAND FREE ENERGY PREDICTED BY IDOCK:    5.48 KCAL/MOL
REMARK 924 INTRA-LIGAND FREE ENERGY PREDICTED BY IDOCK:    0.96 KCAL/MOL
REMARK 927      BINDING AFFINITY PREDICTED BY RF-SCORE:    0.00 PKD
ROOT
HETATM    1  C   UNL     1      -7.918  16.801  64.835  1.00  0.00     4.969 C  
HETATM    2  C   UNL     1      -8.019  15.657  65.829  1.00  0.00     1.901 C  
ENDROOT
BRANCH   2   3
HETATM    3  O   UNL     1      -6.773  15.511  66.514  1.00  0.00     0.178 OA 
BRANCH   3   4
HETATM    4  C   UNL     1      -6.651  14.363  67.182  1.00  0.00     0.573 A  
HETATM    5  N   UNL     1      -5.608  14.010  67.887  1.00  0.00    -0.220 NA 
HETATM    6  C   UNL     1      -5.924  12.784  68.401  1.00  0.00    -0.068 A  
HETATM    7  C   UNL     1      -7.196  12.354  67.995  1.00  0.00    -0.105 A  
HETATM    8  N   UNL     1      -7.655  13.423  67.243  1.00  0.00    -0.115 NA 
HETATM    9  C   UNL     1      -7.690  11.084  68.387  1.00  0.00    -0.119 A  
HETATM   10  C   UNL     1      -6.883  10.311  69.249  1.00  0.00    -0.068 A  
HETATM   11  C   UNL     1      -5.149  11.991  69.262  1.00  0.00    -0.052 A  
HETATM   12  C   UNL     1      -5.643  10.762  69.692  1.00  0.00    -0.041 A  
BRANCH   9  13
HETATM   13  C   UNL     1      -9.029  10.559  68.031  1.00  0.00    -0.135 C  
HETATM   14  O   UNL     1     -10.009  10.670  68.746  1.00  0.00    -0.176 OA 
BRANCH  13  15
HETATM   15  O   UNL     1      -8.978   9.889  66.848  1.00  0.00    -0.137 OA 
BRANCH  15  16
HETATM   16  C   UNL     1      -8.144   8.718  66.835  1.00  0.00    -0.101 C  
BRANCH  16  17
HETATM   17  C   UNL     1      -7.413   8.636  65.541  1.00  0.00    -0.085 C  
HETATM   18  O   UNL     1      -5.954   8.920  63.872  1.00  0.00    -0.071 OA 
HETATM   19  C   UNL     1      -6.340   9.285  65.141  1.00  0.00    -0.069 C  
HETATM   20  O   UNL     1      -7.872   7.787  64.548  1.00  0.00    -0.125 OA 
HETATM   21  C   UNL     1      -5.473  10.217  65.868  1.00  0.00    -0.071 C  
HETATM   22  C   UNL     1      -6.918   7.980  63.554  1.00  0.00    -0.077 C  
HETATM   23  O   UNL     1      -6.930   7.382  62.485  1.00  0.00    -0.067 OA 
ENDBRANCH  16  17
ENDBRANCH  15  16
ENDBRANCH  13  15
ENDBRANCH   9  13
BRANCH   8  24
HETATM   24  C   UNL     1      -9.005  13.687  66.771  1.00  0.00    -0.181 C  
BRANCH  24  25
HETATM   25  C   UNL     1     -10.056  13.847  67.846  1.00  0.00    -0.242 A  
HETATM   26  C   UNL     1     -11.357  13.355  67.752  1.00  0.00    -0.325 A  
HETATM   27  C   UNL     1     -10.619  14.740  70.051  1.00  0.00    -0.043 A  
HETATM   28  C   UNL     1     -11.938  14.265  69.967  1.00  0.00    -0.396 A  
HETATM   29  C   UNL     1      -9.695  14.525  69.019  1.00  0.00    -0.124 A  
HETATM   30  C   UNL     1     -12.252  13.509  68.819  1.00  0.00    -0.178 A  
BRANCH  28  31
HETATM   31  C   UNL     1     -12.930  14.476  71.069  1.00  0.00    -0.423 A  
HETATM   32  C   UNL     1     -13.957  16.087  72.637  1.00  0.00    -0.297 A  
HETATM   33  C   UNL     1     -13.273  15.799  71.451  1.00  0.00    -0.396 A  
HETATM   34  C   UNL     1     -14.393  15.054  73.450  1.00  0.00     2.446 A  
HETATM   35  C   UNL     1     -14.174  13.739  73.053  1.00  0.00     0.982 A  
HETATM   36  C   UNL     1     -13.470  13.441  71.868  1.00  0.00    -0.526 A  
BRANCH  36  37
HETATM   37  C   UNL     1     -13.386  12.005  71.543  1.00  0.00    -0.028 C  
HETATM   38  N   UNL     1     -12.564  11.483  70.694  1.00  0.00    -0.282 NA 
HETATM   39  O   UNL     1     -12.835  10.079  70.730  1.00  0.00    -0.321 OA 
HETATM   40  C   UNL     1     -13.834   9.904  71.652  1.00  0.00    -0.050 C  
HETATM   41  N   UNL     1     -14.156  11.102  72.162  1.00  0.00     0.544 NA 
HETATM   42  O   UNL     1     -14.358   8.837  71.942  1.00  0.00    -0.403 OA 
ENDBRANCH  36  37
ENDBRANCH  28  31
ENDBRANCH  24  25
ENDBRANCH   8  24
ENDBRANCH   3   4
ENDBRANCH   2   3
TORSDOF 10
ENDMDL
MODEL      258
REMARK 921   NORMALIZED FREE ENERGY PREDICTED BY IDOCK:    6.13 KCAL/MOL
REMARK 922        TOTAL FREE ENERGY PREDICTED BY IDOCK:    6.79 KCAL/MOL
REMARK 923 INTER-LIGAND FREE ENERGY PREDICTED BY IDOCK:   -0.92 KCAL/MOL
REMARK 924 INTRA-LIGAND FREE ENERGY PREDICTED BY IDOCK:    7.71 KCAL/MOL
REMARK 927      BINDING AFFINITY PREDICTED BY RF-SCORE:    0.00 PKD
ROOT
HETATM    1  C   UNL     1      -7.698  14.838  68.665  1.00  0.00    -0.130 C  
HETATM    2  C   UNL     1      -7.873  15.658  67.399  1.00  0.00    -0.182 C  
ENDROOT
BRANCH   2   3
HETATM    3  O   UNL     1      -8.658  14.919  66.460  1.00  0.00    -0.230 OA 
BRANCH   3   4
HETATM    4  C   UNL     1      -9.465  14.016  67.018  1.00  0.00    -0.250 A  
HETATM    5  N   UNL     1     -10.197  14.218  68.083  1.00  0.00    -0.226 NA 
HETATM    6  C   UNL     1     -10.867  13.043  68.282  1.00  0.00    -0.246 A  
HETATM    7  C   UNL     1     -10.533  12.077  67.322  1.00  0.00    -0.218 A  
HETATM    8  N   UNL     1      -9.656  12.758  66.493  1.00  0.00    -0.254 NA 
HETATM    9  C   UNL     1     -11.089  10.774  67.384  1.00  0.00    -0.363 A  
HETATM   10  C   UNL     1     -12.034  10.519  68.401  1.00  0.00     0.246 A  
HETATM   11  C   UNL     1     -11.813  12.756  69.278  1.00  0.00    -0.358 A  
HETATM   12  C   UNL     1     -12.402  11.495  69.322  1.00  0.00    -0.121 A  
BRANCH   9  13
HETATM   13  C   UNL     1     -10.818   9.700  66.400  1.00  0.00     0.230 C  
HETATM   14  O   UNL     1     -10.629   9.904  65.213  1.00  0.00     0.080 OA 
BRANCH  13  15
HETATM   15  O   UNL     1     -10.885   8.480  66.998  1.00  0.00    -0.211 OA 
BRANCH  15  16
HETATM   16  C   UNL     1     -11.203   7.380  66.129  1.00  0.00     2.682 C  
BRANCH  16  17
HETATM   17  C   UNL     1     -10.743   6.105  66.744  1.00  0.00    -0.299 C  
HETATM   18  O   UNL     1      -9.859   4.083  67.100  1.00  0.00    -0.202 OA 
HETATM   19  C   UNL     1     -10.137   5.076  66.190  1.00  0.00    -0.236 C  
HETATM   20  O   UNL     1     -10.962   5.877  68.092  1.00  0.00    -0.274 OA 
HETATM   21  C   UNL     1      -9.639   4.898  64.822  1.00  0.00     0.096 C  
HETATM   22  C   UNL     1     -10.370   4.630  68.264  1.00  0.00     0.177 C  
HETATM   23  O   UNL     1     -10.311   4.055  69.344  1.00  0.00     0.343 OA 
ENDBRANCH  16  17
ENDBRANCH  15  16
ENDBRANCH  13  15
ENDBRANCH   9  13
BRANCH   8  24
HETATM   24  C   UNL     1      -9.170  12.376  65.177  1.00  0.00     0.441 C  
BRANCH  24  25
HETATM   25  C   UNL     1      -8.451  11.048  65.103  1.00  0.00     0.038 A  
HETATM   26  C   UNL     1      -7.580  10.572  66.082  1.00  0.00    -0.135 A  
HETATM   27  C   UNL     1      -8.035   9.006  63.826  1.00  0.00    -0.147 A  
HETATM   28  C   UNL     1      -7.143   8.518  64.793  1.00  0.00    -0.080 A  
HETATM   29  C   UNL     1      -8.685  10.238  63.983  1.00  0.00    -0.211 A  
HETATM   30  C   UNL     1      -6.993   9.307  65.952  1.00  0.00    -0.089 A  
BRANCH  28  31
HETATM   31  C   UNL     1      -6.454   7.196  64.644  1.00  0.00    -0.037 A  
HETATM   32  C   UNL     1      -5.222   5.673  63.137  1.00  0.00    -0.013 A  
HETATM   33  C   UNL     1      -5.660   6.954  63.493  1.00  0.00    -0.035 A  
HETATM   34  C   UNL     1      -5.499   4.596  63.961  1.00  0.00    -0.013 A  
HETATM   35  C   UNL     1      -6.180   4.810  65.155  1.00  0.00    -0.034 A  
HETATM   36  C   UNL     1      -6.639   6.095  65.512  1.00  0.00    -0.047 A  
BRANCH  36  37
HETATM   37  C   UNL     1      -7.274   6.176  66.840  1.00  0.00    -0.074 C  
HETATM   38  N   UNL     1      -7.234   5.251  67.741  1.00  0.00    -0.070 NA 
HETATM   39  O   UNL     1      -7.964   5.780  68.851  1.00  0.00    -0.095 OA 
HETATM   40  C   UNL     1      -8.374   7.034  68.479  1.00  0.00    -0.121 C  
HETATM   41  N   UNL     1      -7.927   7.276  67.238  1.00  0.00    -0.110 NA 
HETATM   42  O   UNL     1      -9.052   7.793  69.157  1.00  0.00    -0.145 OA 
ENDBRANCH  36  37
ENDBRANCH  28  31
ENDBRANCH  24  25
ENDBRANCH   8  24
ENDBRANCH   3   4
ENDBRANCH   2   3
TORSDOF 10
ENDMDL
MODEL      259
REMARK 921   NORMALIZED FREE ENERGY PREDICTED BY IDOCK:    6.20 KCAL/MOL
REMARK 922        TOTAL FREE ENERGY PREDICTED BY IDOCK:    6.91 KCAL/MOL
REMARK 923 INTER-LIGAND FREE ENERGY PREDICTED BY IDOCK:    4.81 KCAL/MOL
REMARK 924 INTRA-LIGAND FREE ENERGY PREDICTED BY IDOCK:    2.10 KCAL/MOL
REMARK 927      BINDING AFFINITY PREDICTED BY RF-SCORE:    0.00 PKD
ROOT
HETATM    1  C   UNL     1      -7.650  18.122  69.379  1.00  0.00     0.190 C  
HETATM    2  C   UNL     1      -8.990  17.421  69.245  1.00  0.00     0.198 C  
ENDROOT
BRANCH   2   3
HETATM    3  O   UNL     1      -9.800  17.722  70.383  1.00  0.00     1.474 OA 
BRANCH   3   4
HETATM    4  C   UNL     1     -10.695  16.778  70.679  1.00  0.00     0.516 A  
HETATM    5  N   UNL     1     -11.868  16.995  71.214  1.00  0.00     0.982 NA 
HETATM    6  C   UNL     1     -12.443  15.760  71.322  1.00  0.00    -0.448 A  
HETATM    7  C   UNL     1     -11.600  14.743  70.853  1.00  0.00    -0.266 A  
HETATM    8  N   UNL     1     -10.494  15.445  70.402  1.00  0.00    -0.261 NA 
HETATM    9  C   UNL     1     -11.999  13.383  70.921  1.00  0.00    -0.129 A  
HETATM   10  C   UNL     1     -13.293  13.110  71.413  1.00  0.00    -0.216 A  
HETATM   11  C   UNL     1     -13.726  15.453  71.802  1.00  0.00    -0.610 A  
HETATM   12  C   UNL     1     -14.148  14.126  71.831  1.00  0.00    -0.566 A  
BRANCH   9  13
HETATM   13  C   UNL     1     -11.188  12.247  70.424  1.00  0.00     0.868 C  
HETATM   14  O   UNL     1     -10.057  12.006  70.807  1.00  0.00     4.048 OA 
BRANCH  13  15
HETATM   15  O   UNL     1     -11.858  11.577  69.447  1.00  0.00    -0.300 OA 
BRANCH  15  16
HETATM   16  C   UNL     1     -12.620  10.441  69.885  1.00  0.00     0.007 C  
BRANCH  16  17
HETATM   17  C   UNL     1     -11.803   9.614  70.814  1.00  0.00    -0.300 C  
HETATM   18  O   UNL     1     -11.121   8.255  72.453  1.00  0.00    -0.334 OA 
HETATM   19  C   UNL     1     -12.179   8.893  71.849  1.00  0.00    -0.374 C  
HETATM   20  O   UNL     1     -10.429   9.552  70.647  1.00  0.00    -0.264 OA 
HETATM   21  C   UNL     1     -13.524   8.599  72.357  1.00  0.00    -0.384 C  
HETATM   22  C   UNL     1     -10.064   8.677  71.665  1.00  0.00    -0.294 C  
HETATM   23  O   UNL     1      -8.910   8.315  71.860  1.00  0.00    -0.142 OA 
ENDBRANCH  16  17
ENDBRANCH  15  16
ENDBRANCH  13  15
ENDBRANCH   9  13
BRANCH   8  24
HETATM   24  C   UNL     1      -9.396  14.973  69.574  1.00  0.00    -0.062 C  
BRANCH  24  25
HETATM   25  C   UNL     1      -9.791  14.323  68.267  1.00  0.00    -0.235 A  
HETATM   26  C   UNL     1     -10.829  14.771  67.451  1.00  0.00    -0.300 A  
HETATM   27  C   UNL     1      -9.382  12.529  66.659  1.00  0.00    -0.236 A  
HETATM   28  C   UNL     1     -10.433  12.956  65.832  1.00  0.00    -0.294 A  
HETATM   29  C   UNL     1      -9.060  13.205  67.844  1.00  0.00    -0.207 A  
HETATM   30  C   UNL     1     -11.096  14.135  66.232  1.00  0.00    -0.318 A  
BRANCH  28  31
HETATM   31  C   UNL     1     -10.778  12.251  64.556  1.00  0.00    -0.358 A  
HETATM   32  C   UNL     1     -12.450  11.931  62.765  1.00  0.00     0.504 A  
HETATM   33  C   UNL     1     -11.893  12.692  63.799  1.00  0.00    -0.574 A  
HETATM   34  C   UNL     1     -11.864  10.730  62.401  1.00  0.00     2.791 A  
HETATM   35  C   UNL     1     -10.703  10.317  63.045  1.00  0.00     1.564 A  
HETATM   36  C   UNL     1     -10.146  11.071  64.099  1.00  0.00    -0.403 A  
BRANCH  36  37
HETATM   37  C   UNL     1      -8.874  10.545  64.630  1.00  0.00    -0.196 C  
HETATM   38  N   UNL     1      -7.703  10.821  64.161  1.00  0.00     0.186 NA 
HETATM   39  O   UNL     1      -6.789  10.106  64.998  1.00  0.00    -0.127 OA 
HETATM   40  C   UNL     1      -7.553   9.455  65.931  1.00  0.00    -0.099 C  
HETATM   41  N   UNL     1      -8.842   9.747  65.704  1.00  0.00    -0.146 NA 
HETATM   42  O   UNL     1      -7.129   8.714  66.808  1.00  0.00    -0.076 OA 
ENDBRANCH  36  37
ENDBRANCH  28  31
ENDBRANCH  24  25
ENDBRANCH   8  24
ENDBRANCH   3   4
ENDBRANCH   2   3
TORSDOF 10
ENDMDL
MODEL      260
REMARK 921   NORMALIZED FREE ENERGY PREDICTED BY IDOCK:    6.36 KCAL/MOL
REMARK 922        TOTAL FREE ENERGY PREDICTED BY IDOCK:    7.15 KCAL/MOL
REMARK 923 INTER-LIGAND FREE ENERGY PREDICTED BY IDOCK:    0.82 KCAL/MOL
REMARK 924 INTRA-LIGAND FREE ENERGY PREDICTED BY IDOCK:    6.33 KCAL/MOL
REMARK 927      BINDING AFFINITY PREDICTED BY RF-SCORE:    0.00 PKD
ROOT
HETATM    1  C   UNL     1      -6.446  19.315  65.772  1.00  0.00    -0.262 C  
HETATM    2  C   UNL     1      -7.249  18.031  65.887  1.00  0.00    -0.243 C  
ENDROOT
BRANCH   2   3
HETATM    3  O   UNL     1      -7.397  17.686  67.267  1.00  0.00    -0.176 OA 
BRANCH   3   4
HETATM    4  C   UNL     1      -8.574  17.135  67.566  1.00  0.00    -0.203 A  
HETATM    5  N   UNL     1      -9.617  17.785  68.012  1.00  0.00    -0.281 NA 
HETATM    6  C   UNL     1     -10.590  16.837  68.163  1.00  0.00    -0.350 A  
HETATM    7  C   UNL     1     -10.136  15.557  67.813  1.00  0.00    -0.232 A  
HETATM    8  N   UNL     1      -8.840  15.795  67.388  1.00  0.00    -0.182 NA 
HETATM    9  C   UNL     1     -10.985  14.428  67.943  1.00  0.00    -0.272 A  
HETATM   10  C   UNL     1     -12.311  14.658  68.370  1.00  0.00     0.009 A  
HETATM   11  C   UNL     1     -11.916  17.030  68.580  1.00  0.00     1.291 A  
HETATM   12  C   UNL     1     -12.774  15.936  68.667  1.00  0.00     1.319 A  
BRANCH   9  13
HETATM   13  C   UNL     1     -10.603  13.045  67.571  1.00  0.00    -0.230 C  
HETATM   14  O   UNL     1      -9.672  12.777  66.833  1.00  0.00    -0.222 OA 
BRANCH  13  15
HETATM   15  O   UNL     1     -11.476  12.151  68.109  1.00  0.00    -0.271 OA 
BRANCH  15  16
HETATM   16  C   UNL     1     -12.696  12.708  68.624  1.00  0.00     1.302 C  
BRANCH  16  17
HETATM   17  C   UNL     1     -12.900  12.261  70.029  1.00  0.00     0.534 C  
HETATM   18  O   UNL     1     -12.887  11.109  71.945  1.00  0.00    -0.411 OA 
HETATM   19  C   UNL     1     -12.521  11.148  70.619  1.00  0.00    -0.356 C  
HETATM   20  O   UNL     1     -13.598  13.070  70.911  1.00  0.00     0.313 OA 
HETATM   21  C   UNL     1     -11.700  10.042  70.113  1.00  0.00    -0.285 C  
HETATM   22  C   UNL     1     -13.533  12.325  72.083  1.00  0.00    -0.327 C  
HETATM   23  O   UNL     1     -14.012  12.700  73.147  1.00  0.00     0.386 OA 
ENDBRANCH  16  17
ENDBRANCH  15  16
ENDBRANCH  13  15
ENDBRANCH   9  13
BRANCH   8  24
HETATM   24  C   UNL     1      -7.945  14.909  66.662  1.00  0.00     0.270 C  
BRANCH  24  25
HETATM   25  C   UNL     1      -7.521  13.658  67.397  1.00  0.00    -0.139 A  
HETATM   26  C   UNL     1      -7.166  12.462  66.773  1.00  0.00     0.226 A  
HETATM   27  C   UNL     1      -7.116  12.581  69.554  1.00  0.00     0.265 A  
HETATM   28  C   UNL     1      -6.771  11.365  68.943  1.00  0.00    -0.080 A  
HETATM   29  C   UNL     1      -7.471  13.706  68.798  1.00  0.00    -0.088 A  
HETATM   30  C   UNL     1      -6.741  11.366  67.533  1.00  0.00    -0.078 A  
BRANCH  28  31
HETATM   31  C   UNL     1      -6.375  10.160  69.740  1.00  0.00    -0.064 A  
HETATM   32  C   UNL     1      -5.538   9.303  71.902  1.00  0.00    -0.072 A  
HETATM   33  C   UNL     1      -6.175  10.288  71.139  1.00  0.00     0.142 A  
HETATM   34  C   UNL     1      -5.145   8.116  71.306  1.00  0.00    -0.029 A  
HETATM   35  C   UNL     1      -5.425   7.906  69.960  1.00  0.00    -0.023 A  
HETATM   36  C   UNL     1      -6.051   8.902  69.181  1.00  0.00    -0.042 A  
BRANCH  36  37
HETATM   37  C   UNL     1      -6.350   8.503  67.793  1.00  0.00    -0.057 C  
HETATM   38  N   UNL     1      -7.535   8.367  67.298  1.00  0.00    -0.092 NA 
HETATM   39  O   UNL     1      -7.328   7.992  65.933  1.00  0.00    -0.073 OA 
HETATM   40  C   UNL     1      -5.970   7.953  65.748  1.00  0.00    -0.038 C  
HETATM   41  N   UNL     1      -5.374   8.287  66.902  1.00  0.00    -0.032 NA 
HETATM   42  O   UNL     1      -5.401   7.642  64.711  1.00  0.00    -0.029 OA 
ENDBRANCH  36  37
ENDBRANCH  28  31
ENDBRANCH  24  25
ENDBRANCH   8  24
ENDBRANCH   3   4
ENDBRANCH   2   3
TORSDOF 10
ENDMDL
MODEL      261
REMARK 921   NORMALIZED FREE ENERGY PREDICTED BY IDOCK:    6.73 KCAL/MOL
REMARK 922        TOTAL FREE ENERGY PREDICTED BY IDOCK:    7.75 KCAL/MOL
REMARK 923 INTER-LIGAND FREE ENERGY PREDICTED BY IDOCK:   -3.72 KCAL/MOL
REMARK 924 INTRA-LIGAND FREE ENERGY PREDICTED BY IDOCK:   11.47 KCAL/MOL
REMARK 927      BINDING AFFINITY PREDICTED BY RF-SCORE:    0.00 PKD
ROOT
HETATM    1  C   UNL     1     -10.092  18.425  66.101  1.00  0.00    -0.376 C  
HETATM    2  C   UNL     1      -9.334  19.432  65.255  1.00  0.00     1.406 C  
ENDROOT
BRANCH   2   3
HETATM    3  O   UNL     1      -8.504  20.233  66.099  1.00  0.00    -0.223 OA 
BRANCH   3   4
HETATM    4  C   UNL     1      -7.797  19.533  66.988  1.00  0.00    -0.260 A  
HETATM    5  N   UNL     1      -7.260  20.023  68.075  1.00  0.00    -0.289 NA 
HETATM    6  C   UNL     1      -6.655  18.959  68.684  1.00  0.00    -0.264 A  
HETATM    7  C   UNL     1      -6.809  17.775  67.949  1.00  0.00    -0.192 A  
HETATM    8  N   UNL     1      -7.593  18.176  66.880  1.00  0.00    -0.210 NA 
HETATM    9  C   UNL     1      -6.214  16.566  68.393  1.00  0.00    -0.128 A  
HETATM   10  C   UNL     1      -5.528  16.595  69.625  1.00  0.00    -0.160 A  
HETATM   11  C   UNL     1      -5.969  18.951  69.908  1.00  0.00    -0.266 A  
HETATM   12  C   UNL     1      -5.420  17.760  70.378  1.00  0.00    -0.255 A  
BRANCH   9  13
HETATM   13  C   UNL     1      -6.347  15.263  67.699  1.00  0.00    -0.146 C  
HETATM   14  O   UNL     1      -5.702  14.955  66.712  1.00  0.00     0.609 OA 
BRANCH  13  15
HETATM   15  O   UNL     1      -7.326  14.516  68.276  1.00  0.00    -0.103 OA 
BRANCH  15  16
HETATM   16  C   UNL     1      -6.913  13.701  69.385  1.00  0.00     0.021 C  
BRANCH  16  17
HETATM   17  C   UNL     1      -6.865  12.273  68.971  1.00  0.00    -0.094 C  
HETATM   18  O   UNL     1      -6.429  10.351  67.916  1.00  0.00    -0.060 OA 
HETATM   19  C   UNL     1      -6.240  11.713  67.957  1.00  0.00    -0.047 C  
HETATM   20  O   UNL     1      -7.571  11.326  69.695  1.00  0.00     0.034 OA 
HETATM   21  C   UNL     1      -5.320  12.297  66.976  1.00  0.00    -0.006 C  
HETATM   22  C   UNL     1      -7.241  10.156  69.019  1.00  0.00    -0.076 C  
HETATM   23  O   UNL     1      -7.640   9.048  69.357  1.00  0.00    -0.074 OA 
ENDBRANCH  16  17
ENDBRANCH  15  16
ENDBRANCH  13  15
ENDBRANCH   9  13
BRANCH   8  24
HETATM   24  C   UNL     1      -8.302  17.352  65.915  1.00  0.00     0.029 C  
BRANCH  24  25
HETATM   25  C   UNL     1      -8.937  16.095  66.466  1.00  0.00    -0.322 A  
HETATM   26  C   UNL     1      -8.989  14.878  65.787  1.00  0.00     0.386 A  
HETATM   27  C   UNL     1     -10.133  15.041  68.320  1.00  0.00    -0.222 A  
HETATM   28  C   UNL     1     -10.208  13.813  67.644  1.00  0.00    -0.242 A  
HETATM   29  C   UNL     1      -9.500  16.154  67.749  1.00  0.00    -0.217 A  
HETATM   30  C   UNL     1      -9.556  13.752  66.395  1.00  0.00    -0.285 A  
BRANCH  28  31
HETATM   31  C   UNL     1     -10.868  12.612  68.250  1.00  0.00    -0.261 A  
HETATM   32  C   UNL     1     -12.124  11.703  70.174  1.00  0.00    -0.414 A  
HETATM   33  C   UNL     1     -11.705  12.779  69.384  1.00  0.00    -0.380 A  
HETATM   34  C   UNL     1     -11.784  10.410  69.815  1.00  0.00    -0.310 A  
HETATM   35  C   UNL     1     -11.058  10.197  68.648  1.00  0.00    -0.254 A  
HETATM   36  C   UNL     1     -10.617  11.278  67.856  1.00  0.00    -0.231 A  
BRANCH  36  37
HETATM   37  C   UNL     1      -9.927  10.890  66.611  1.00  0.00    -0.208 C  
HETATM   38  N   UNL     1     -10.173   9.821  65.928  1.00  0.00    -0.228 NA 
HETATM   39  O   UNL     1      -9.283   9.883  64.810  1.00  0.00    -0.219 OA 
HETATM   40  C   UNL     1      -8.573  11.047  64.947  1.00  0.00     0.056 C  
HETATM   41  N   UNL     1      -8.992  11.671  66.058  1.00  0.00    -0.185 NA 
HETATM   42  O   UNL     1      -7.690  11.436  64.196  1.00  0.00     0.945 OA 
ENDBRANCH  36  37
ENDBRANCH  28  31
ENDBRANCH  24  25
ENDBRANCH   8  24
ENDBRANCH   3   4
ENDBRANCH   2   3
TORSDOF 10
ENDMDL
MODEL      262
REMARK 921   NORMALIZED FREE ENERGY PREDICTED BY IDOCK:    8.68 KCAL/MOL
REMARK 922        TOTAL FREE ENERGY PREDICTED BY IDOCK:   10.84 KCAL/MOL
REMARK 923 INTER-LIGAND FREE ENERGY PREDICTED BY IDOCK:    7.34 KCAL/MOL
REMARK 924 INTRA-LIGAND FREE ENERGY PREDICTED BY IDOCK:    3.51 KCAL/MOL
REMARK 927      BINDING AFFINITY PREDICTED BY RF-SCORE:    0.00 PKD
ROOT
HETATM    1  C   UNL     1     -11.811   6.587  69.173  1.00  0.00     0.349 C  
HETATM    2  C   UNL     1     -12.278   8.031  69.208  1.00  0.00     2.335 C  
ENDROOT
BRANCH   2   3
HETATM    3  O   UNL     1     -11.159   8.897  69.004  1.00  0.00    -0.017 OA 
BRANCH   3   4
HETATM    4  C   UNL     1     -10.260   8.428  68.139  1.00  0.00    -0.208 A  
HETATM    5  N   UNL     1      -9.373   7.504  68.404  1.00  0.00    -0.142 NA 
HETATM    6  C   UNL     1      -8.683   7.328  67.237  1.00  0.00    -0.121 A  
HETATM    7  C   UNL     1      -9.145   8.175  66.220  1.00  0.00    -0.185 A  
HETATM    8  N   UNL     1     -10.196   8.841  66.828  1.00  0.00    -0.285 NA 
HETATM    9  C   UNL     1      -8.527   8.175  64.943  1.00  0.00    -0.094 A  
HETATM   10  C   UNL     1      -7.486   7.247  64.725  1.00  0.00    -0.093 A  
HETATM   11  C   UNL     1      -7.647   6.415  66.985  1.00  0.00    -0.095 A  
HETATM   12  C   UNL     1      -7.063   6.372  65.721  1.00  0.00    -0.062 A  
BRANCH   9  13
HETATM   13  C   UNL     1      -8.964   9.012  63.801  1.00  0.00     0.141 C  
HETATM   14  O   UNL     1     -10.131   9.262  63.554  1.00  0.00     1.775 OA 
BRANCH  13  15
HETATM   15  O   UNL     1      -7.894   9.385  63.049  1.00  0.00    -0.122 OA 
BRANCH  15  16
HETATM   16  C   UNL     1      -6.936  10.229  63.709  1.00  0.00    -0.059 C  
BRANCH  16  17
HETATM   17  C   UNL     1      -7.645  11.267  64.507  1.00  0.00     1.138 C  
HETATM   18  O   UNL     1      -9.059  12.850  65.207  1.00  0.00     0.472 OA 
HETATM   19  C   UNL     1      -8.683  12.009  64.185  1.00  0.00     1.253 C  
HETATM   20  O   UNL     1      -7.200  11.572  65.783  1.00  0.00     0.305 OA 
HETATM   21  C   UNL     1      -9.526  11.985  62.985  1.00  0.00     0.265 C  
HETATM   22  C   UNL     1      -8.126  12.531  66.178  1.00  0.00     0.836 C  
HETATM   23  O   UNL     1      -8.117  13.060  67.283  1.00  0.00    -0.181 OA 
ENDBRANCH  16  17
ENDBRANCH  15  16
ENDBRANCH  13  15
ENDBRANCH   9  13
BRANCH   8  24
HETATM   24  C   UNL     1     -11.231   9.656  66.212  1.00  0.00     1.222 C  
BRANCH  24  25
HETATM   25  C   UNL     1     -11.269  11.104  66.645  1.00  0.00    -0.186 A  
HETATM   26  C   UNL     1     -11.809  12.138  65.881  1.00  0.00    -0.342 A  
HETATM   27  C   UNL     1     -10.708  12.750  68.363  1.00  0.00    -0.269 A  
HETATM   28  C   UNL     1     -11.233  13.805  67.601  1.00  0.00    -0.316 A  
HETATM   29  C   UNL     1     -10.737  11.427  67.901  1.00  0.00    -0.242 A  
HETATM   30  C   UNL     1     -11.843  13.446  66.382  1.00  0.00    -0.441 A  
BRANCH  28  31
HETATM   31  C   UNL     1     -11.221  15.221  68.090  1.00  0.00    -0.328 A  
HETATM   32  C   UNL     1     -10.448  17.534  67.690  1.00  0.00    -0.370 A  
HETATM   33  C   UNL     1     -10.758  16.250  67.229  1.00  0.00    -0.265 A  
HETATM   34  C   UNL     1     -10.662  17.861  69.018  1.00  0.00     0.239 A  
HETATM   35  C   UNL     1     -11.220  16.913  69.869  1.00  0.00     0.301 A  
HETATM   36  C   UNL     1     -11.520  15.612  69.416  1.00  0.00    -0.354 A  
BRANCH  36  37
HETATM   37  C   UNL     1     -12.177  14.747  70.414  1.00  0.00    -0.336 C  
HETATM   38  N   UNL     1     -13.344  14.210  70.277  1.00  0.00     0.238 NA 
HETATM   39  O   UNL     1     -13.548  13.453  71.474  1.00  0.00    -0.276 OA 
HETATM   40  C   UNL     1     -12.417  13.620  72.231  1.00  0.00     0.104 C  
HETATM   41  N   UNL     1     -11.568  14.410  71.557  1.00  0.00    -0.023 NA 
HETATM   42  O   UNL     1     -12.228  13.147  73.343  1.00  0.00     1.772 OA 
ENDBRANCH  36  37
ENDBRANCH  28  31
ENDBRANCH  24  25
ENDBRANCH   8  24
ENDBRANCH   3   4
ENDBRANCH   2   3
TORSDOF 10
ENDMDL
MODEL      263
REMARK 921   NORMALIZED FREE ENERGY PREDICTED BY IDOCK:   10.98 KCAL/MOL
REMARK 922        TOTAL FREE ENERGY PREDICTED BY IDOCK:   14.48 KCAL/MOL
REMARK 923 INTER-LIGAND FREE ENERGY PREDICTED BY IDOCK:   -1.28 KCAL/MOL
REMARK 924 INTRA-LIGAND FREE ENERGY PREDICTED BY IDOCK:   15.76 KCAL/MOL
REMARK 927      BINDING AFFINITY PREDICTED BY RF-SCORE:    0.00 PKD
ROOT
HETATM    1  C   UNL     1      -8.996   3.724  74.214  1.00  0.00    -0.092 C  
HETATM    2  C   UNL     1      -8.232   3.975  72.926  1.00  0.00    -0.092 C  
ENDROOT
BRANCH   2   3
HETATM    3  O   UNL     1      -9.116   3.824  71.812  1.00  0.00    -0.103 OA 
BRANCH   3   4
HETATM    4  C   UNL     1      -9.730   4.951  71.450  1.00  0.00    -0.175 A  
HETATM    5  N   UNL     1     -10.386   5.743  72.258  1.00  0.00    -0.196 NA 
HETATM    6  C   UNL     1     -10.828   6.768  71.470  1.00  0.00    -0.234 A  
HETATM    7  C   UNL     1     -10.449   6.604  70.130  1.00  0.00    -0.210 A  
HETATM    8  N   UNL     1      -9.700   5.439  70.163  1.00  0.00    -0.175 NA 
HETATM    9  C   UNL     1     -10.850   7.542  69.144  1.00  0.00    -0.105 A  
HETATM   10  C   UNL     1     -11.582   8.668  69.579  1.00  0.00     0.565 A  
HETATM   11  C   UNL     1     -11.553   7.903  71.868  1.00  0.00    -0.338 A  
HETATM   12  C   UNL     1     -11.913   8.855  70.917  1.00  0.00    -0.254 A  
BRANCH   9  13
HETATM   13  C   UNL     1     -10.474   7.466  67.713  1.00  0.00    -0.232 C  
HETATM   14  O   UNL     1     -10.634   8.380  66.924  1.00  0.00    -0.305 OA 
BRANCH  13  15
HETATM   15  O   UNL     1     -10.004   6.226  67.411  1.00  0.00    -0.123 OA 
BRANCH  15  16
HETATM   16  C   UNL     1     -10.883   5.404  66.625  1.00  0.00    -0.141 C  
BRANCH  16  17
HETATM   17  C   UNL     1     -10.216   5.030  65.348  1.00  0.00     0.102 C  
HETATM   18  O   UNL     1      -9.261   3.910  63.666  1.00  0.00    -0.118 OA 
HETATM   19  C   UNL     1      -9.834   3.848  64.915  1.00  0.00    -0.197 C  
HETATM   20  O   UNL     1      -9.896   6.016  64.429  1.00  0.00     1.619 OA 
HETATM   21  C   UNL     1     -10.029   2.518  65.503  1.00  0.00     0.631 C  
HETATM   22  C   UNL     1      -9.338   5.266  63.399  1.00  0.00     0.511 C  
HETATM   23  O   UNL     1      -8.938   5.756  62.350  1.00  0.00     0.033 OA 
ENDBRANCH  16  17
ENDBRANCH  15  16
ENDBRANCH  13  15
ENDBRANCH   9  13
BRANCH   8  24
HETATM   24  C   UNL     1      -8.824   4.894  69.138  1.00  0.00    -0.092 C  
BRANCH  24  25
HETATM   25  C   UNL     1      -8.309   5.885  68.120  1.00  0.00    -0.115 A  
HETATM   26  C   UNL     1      -8.285   5.658  66.745  1.00  0.00    -0.105 A  
HETATM   27  C   UNL     1      -7.313   8.080  67.712  1.00  0.00    -0.093 A  
HETATM   28  C   UNL     1      -7.267   7.862  66.326  1.00  0.00    -0.074 A  
HETATM   29  C   UNL     1      -7.834   7.118  68.589  1.00  0.00    -0.122 A  
HETATM   30  C   UNL     1      -7.832   6.653  65.870  1.00  0.00    -0.102 A  
BRANCH  28  31
HETATM   31  C   UNL     1      -6.727   8.888  65.378  1.00  0.00    -0.072 A  
HETATM   32  C   UNL     1      -5.475   9.306  63.289  1.00  0.00    -0.068 A  
HETATM   33  C   UNL     1      -6.246   8.474  64.108  1.00  0.00    -0.067 A  
HETATM   34  C   UNL     1      -5.220  10.611  63.675  1.00  0.00    -0.163 A  
HETATM   35  C   UNL     1      -5.769  11.088  64.860  1.00  0.00     0.280 A  
HETATM   36  C   UNL     1      -6.533  10.251  65.700  1.00  0.00    -0.118 A  
BRANCH  36  37
HETATM   37  C   UNL     1      -7.110  10.921  66.880  1.00  0.00    -0.120 C  
HETATM   38  N   UNL     1      -6.431  11.527  67.797  1.00  0.00    -0.060 NA 
HETATM   39  O   UNL     1      -7.408  12.029  68.712  1.00  0.00    -0.108 OA 
HETATM   40  C   UNL     1      -8.630  11.659  68.212  1.00  0.00    -0.162 C  
HETATM   41  N   UNL     1      -8.434  10.988  67.068  1.00  0.00    -0.137 NA 
HETATM   42  O   UNL     1      -9.712  11.885  68.736  1.00  0.00    -0.153 OA 
ENDBRANCH  36  37
ENDBRANCH  28  31
ENDBRANCH  24  25
ENDBRANCH   8  24
ENDBRANCH   3   4
ENDBRANCH   2   3
TORSDOF 10
ENDMDL
MODEL      264
REMARK 921   NORMALIZED FREE ENERGY PREDICTED BY IDOCK:   12.38 KCAL/MOL
REMARK 922        TOTAL FREE ENERGY PREDICTED BY IDOCK:   16.69 KCAL/MOL
REMARK 923 INTER-LIGAND FREE ENERGY PREDICTED BY IDOCK:    4.72 KCAL/MOL
REMARK 924 INTRA-LIGAND FREE ENERGY PREDICTED BY IDOCK:   11.97 KCAL/MOL
REMARK 927      BINDING AFFINITY PREDICTED BY RF-SCORE:    0.00 PKD
ROOT
HETATM    1  C   UNL     1      -6.622  15.070  68.088  1.00  0.00    -0.134 C  
HETATM    2  C   UNL     1      -5.277  15.285  67.417  1.00  0.00     0.235 C  
ENDROOT
BRANCH   2   3
HETATM    3  O   UNL     1      -5.150  14.387  66.312  1.00  0.00     2.756 OA 
BRANCH   3   4
HETATM    4  C   UNL     1      -5.343  13.106  66.627  1.00  0.00     1.727 A  
HETATM    5  N   UNL     1      -5.127  12.093  65.828  1.00  0.00     0.787 NA 
HETATM    6  C   UNL     1      -5.438  10.985  66.564  1.00  0.00    -0.107 A  
HETATM    7  C   UNL     1      -5.873  11.317  67.856  1.00  0.00    -0.043 A  
HETATM    8  N   UNL     1      -5.755  12.696  67.875  1.00  0.00    -0.096 NA 
HETATM    9  C   UNL     1      -6.287  10.306  68.761  1.00  0.00    -0.047 A  
HETATM   10  C   UNL     1      -6.177   8.966  68.332  1.00  0.00    -0.054 A  
HETATM   11  C   UNL     1      -5.338   9.641  66.172  1.00  0.00    -0.040 A  
HETATM   12  C   UNL     1      -5.697   8.637  67.069  1.00  0.00    -0.042 A  
BRANCH   9  13
HETATM   13  C   UNL     1      -6.733  10.558  70.152  1.00  0.00    -0.148 C  
HETATM   14  O   UNL     1      -6.167  11.321  70.914  1.00  0.00    -0.347 OA 
BRANCH  13  15
HETATM   15  O   UNL     1      -7.799   9.771  70.458  1.00  0.00    -0.214 OA 
BRANCH  15  16
HETATM   16  C   UNL     1      -9.089  10.327  70.153  1.00  0.00     0.292 C  
BRANCH  16  17
HETATM   17  C   UNL     1      -9.637   9.682  68.929  1.00  0.00    -0.161 C  
HETATM   18  O   UNL     1     -10.726   8.351  67.500  1.00  0.00    -0.240 OA 
HETATM   19  C   UNL     1     -10.424   8.634  68.812  1.00  0.00    -0.185 C  
HETATM   20  O   UNL     1      -9.306  10.187  67.682  1.00  0.00    -0.146 OA 
HETATM   21  C   UNL     1     -11.084   7.829  69.845  1.00  0.00    -0.142 C  
HETATM   22  C   UNL     1     -10.029   9.348  66.841  1.00  0.00    -0.229 C  
HETATM   23  O   UNL     1     -10.043   9.468  65.621  1.00  0.00    -0.285 OA 
ENDBRANCH  16  17
ENDBRANCH  15  16
ENDBRANCH  13  15
ENDBRANCH   9  13
BRANCH   8  24
HETATM   24  C   UNL     1      -5.808  13.596  69.017  1.00  0.00    -0.077 C  
BRANCH  24  25
HETATM   25  C   UNL     1      -7.185  14.085  69.403  1.00  0.00     0.030 A  
HETATM   26  C   UNL     1      -7.436  15.297  70.045  1.00  0.00     0.083 A  
HETATM   27  C   UNL     1      -9.589  13.643  69.434  1.00  0.00     0.721 A  
HETATM   28  C   UNL     1      -9.858  14.851  70.094  1.00  0.00     0.304 A  
HETATM   29  C   UNL     1      -8.283  13.273  69.084  1.00  0.00     0.497 A  
HETATM   30  C   UNL     1      -8.750  15.693  70.324  1.00  0.00     0.978 A  
BRANCH  28  31
HETATM   31  C   UNL     1     -11.252  15.264  70.460  1.00  0.00    -0.338 A  
HETATM   32  C   UNL     1     -12.838  15.772  72.285  1.00  0.00    -0.525 A  
HETATM   33  C   UNL     1     -11.533  15.651  71.796  1.00  0.00    -0.505 A  
HETATM   34  C   UNL     1     -13.914  15.585  71.433  1.00  0.00    -0.476 A  
HETATM   35  C   UNL     1     -13.678  15.315  70.089  1.00  0.00     0.744 A  
HETATM   36  C   UNL     1     -12.365  15.174  69.593  1.00  0.00    -0.242 A  
BRANCH  36  37
HETATM   37  C   UNL     1     -12.275  14.965  68.136  1.00  0.00     0.046 C  
HETATM   38  N   UNL     1     -12.688  13.913  67.509  1.00  0.00     0.424 NA 
HETATM   39  O   UNL     1     -12.411  14.170  66.130  1.00  0.00    -0.466 OA 
HETATM   40  C   UNL     1     -11.843  15.416  66.077  1.00  0.00     0.335 C  
HETATM   41  N   UNL     1     -11.778  15.906  67.324  1.00  0.00     0.221 NA 
HETATM   42  O   UNL     1     -11.441  15.974  65.066  1.00  0.00    -0.172 OA 
ENDBRANCH  36  37
ENDBRANCH  28  31
ENDBRANCH  24  25
ENDBRANCH   8  24
ENDBRANCH   3   4
ENDBRANCH   2   3
TORSDOF 10
ENDMDL
MODEL      265
REMARK 921   NORMALIZED FREE ENERGY PREDICTED BY IDOCK:   13.01 KCAL/MOL
REMARK 922        TOTAL FREE ENERGY PREDICTED BY IDOCK:   17.69 KCAL/MOL
REMARK 923 INTER-LIGAND FREE ENERGY PREDICTED BY IDOCK:   12.79 KCAL/MOL
REMARK 924 INTRA-LIGAND FREE ENERGY PREDICTED BY IDOCK:    4.89 KCAL/MOL
REMARK 927      BINDING AFFINITY PREDICTED BY RF-SCORE:    0.00 PKD
ROOT
HETATM    1  C   UNL     1     -11.811  11.285  63.966  1.00  0.00     0.278 C  
HETATM    2  C   UNL     1     -12.642  12.459  64.453  1.00  0.00    -0.399 C  
ENDROOT
BRANCH   2   3
HETATM    3  O   UNL     1     -12.065  13.678  63.978  1.00  0.00    -0.453 OA 
BRANCH   3   4
HETATM    4  C   UNL     1     -11.546  14.444  64.939  1.00  0.00    -0.395 A  
HETATM    5  N   UNL     1     -11.096  15.660  64.770  1.00  0.00    -0.444 NA 
HETATM    6  C   UNL     1     -10.681  16.061  66.009  1.00  0.00    -0.267 A  
HETATM    7  C   UNL     1     -10.864  15.061  66.975  1.00  0.00    -0.311 A  
HETATM    8  N   UNL     1     -11.468  14.044  66.254  1.00  0.00    -0.339 NA 
HETATM    9  C   UNL     1     -10.453  15.267  68.317  1.00  0.00    -0.244 A  
HETATM   10  C   UNL     1      -9.920  16.532  68.645  1.00  0.00    -0.248 A  
HETATM   11  C   UNL     1     -10.151  17.309  66.372  1.00  0.00    -0.321 A  
HETATM   12  C   UNL     1      -9.786  17.541  67.696  1.00  0.00    -0.291 A  
BRANCH   9  13
HETATM   13  C   UNL     1     -10.632  14.282  69.409  1.00  0.00    -0.081 C  
HETATM   14  O   UNL     1     -11.482  13.409  69.397  1.00  0.00    -0.272 OA 
BRANCH  13  15
HETATM   15  O   UNL     1      -9.773  14.544  70.430  1.00  0.00     0.821 OA 
BRANCH  15  16
HETATM   16  C   UNL     1     -10.377  14.689  71.727  1.00  0.00     2.592 C  
BRANCH  16  17
HETATM   17  C   UNL     1     -10.785  16.105  71.935  1.00  0.00     1.431 C  
HETATM   18  O   UNL     1     -11.933  17.971  72.378  1.00  0.00     2.913 OA 
HETATM   19  C   UNL     1     -11.959  16.600  72.265  1.00  0.00    -0.085 C  
HETATM   20  O   UNL     1      -9.856  17.118  71.761  1.00  0.00     5.317 OA 
HETATM   21  C   UNL     1     -13.207  15.916  72.621  1.00  0.00    -0.555 C  
HETATM   22  C   UNL     1     -10.610  18.243  72.076  1.00  0.00     3.648 C  
HETATM   23  O   UNL     1     -10.154  19.380  72.078  1.00  0.00     2.447 OA 
ENDBRANCH  16  17
ENDBRANCH  15  16
ENDBRANCH  13  15
ENDBRANCH   9  13
BRANCH   8  24
HETATM   24  C   UNL     1     -12.137  12.852  66.751  1.00  0.00    -0.265 C  
BRANCH  24  25
HETATM   25  C   UNL     1     -11.232  11.698  67.118  1.00  0.00    -0.371 A  
HETATM   26  C   UNL     1     -10.244  11.757  68.100  1.00  0.00    -0.210 A  
HETATM   27  C   UNL     1     -10.588   9.378  66.697  1.00  0.00    -0.170 A  
HETATM   28  C   UNL     1      -9.578   9.424  67.671  1.00  0.00    -0.163 A  
HETATM   29  C   UNL     1     -11.405  10.486  66.435  1.00  0.00     0.500 A  
HETATM   30  C   UNL     1      -9.482  10.623  68.407  1.00  0.00    -0.165 A  
BRANCH  28  31
HETATM   31  C   UNL     1      -8.708   8.242  67.970  1.00  0.00    -0.135 A  
HETATM   32  C   UNL     1      -8.305   6.302  69.447  1.00  0.00    -0.121 A  
HETATM   33  C   UNL     1      -9.156   7.269  68.901  1.00  0.00    -0.132 A  
HETATM   34  C   UNL     1      -6.989   6.223  69.024  1.00  0.00    -0.068 A  
HETATM   35  C   UNL     1      -6.542   7.088  68.030  1.00  0.00    -0.056 A  
HETATM   36  C   UNL     1      -7.390   8.076  67.488  1.00  0.00    -0.089 A  
BRANCH  36  37
HETATM   37  C   UNL     1      -6.797   8.864  66.391  1.00  0.00    -0.075 C  
HETATM   38  N   UNL     1      -5.728   9.584  66.487  1.00  0.00    -0.053 NA 
HETATM   39  O   UNL     1      -5.534  10.137  65.182  1.00  0.00    -0.064 OA 
HETATM   40  C   UNL     1      -6.554   9.653  64.404  1.00  0.00    -0.107 C  
HETATM   41  N   UNL     1      -7.320   8.853  65.159  1.00  0.00    -0.090 NA 
HETATM   42  O   UNL     1      -6.743   9.926  63.227  1.00  0.00    -0.114 OA 
ENDBRANCH  36  37
ENDBRANCH  28  31
ENDBRANCH  24  25
ENDBRANCH   8  24
ENDBRANCH   3   4
ENDBRANCH   2   3
TORSDOF 10
ENDMDL
MODEL      266
REMARK 921   NORMALIZED FREE ENERGY PREDICTED BY IDOCK:   13.48 KCAL/MOL
REMARK 922        TOTAL FREE ENERGY PREDICTED BY IDOCK:   18.43 KCAL/MOL
REMARK 923 INTER-LIGAND FREE ENERGY PREDICTED BY IDOCK:    4.17 KCAL/MOL
REMARK 924 INTRA-LIGAND FREE ENERGY PREDICTED BY IDOCK:   14.27 KCAL/MOL
REMARK 927      BINDING AFFINITY PREDICTED BY RF-SCORE:    0.00 PKD
ROOT
HETATM    1  C   UNL     1     -12.825   7.231  71.401  1.00  0.00    -0.425 C  
HETATM    2  C   UNL     1     -13.428   6.448  72.554  1.00  0.00     0.647 C  
ENDROOT
BRANCH   2   3
HETATM    3  O   UNL     1     -12.722   5.215  72.712  1.00  0.00     0.220 OA 
BRANCH   3   4
HETATM    4  C   UNL     1     -11.405   5.316  72.524  1.00  0.00    -0.179 A  
HETATM    5  N   UNL     1     -10.656   4.409  71.952  1.00  0.00    -0.025 NA 
HETATM    6  C   UNL     1      -9.394   4.934  71.959  1.00  0.00    -0.141 A  
HETATM    7  C   UNL     1      -9.353   6.198  72.564  1.00  0.00    -0.140 A  
HETATM    8  N   UNL     1     -10.682   6.432  72.877  1.00  0.00    -0.237 NA 
HETATM    9  C   UNL     1      -8.124   6.891  72.709  1.00  0.00    -0.114 A  
HETATM   10  C   UNL     1      -6.970   6.288  72.163  1.00  0.00    -0.074 A  
HETATM   11  C   UNL     1      -8.228   4.366  71.422  1.00  0.00    -0.091 A  
HETATM   12  C   UNL     1      -7.023   5.057  71.517  1.00  0.00    -0.053 A  
BRANCH   9  13
HETATM   13  C   UNL     1      -7.988   8.240  73.308  1.00  0.00    -0.149 C  
HETATM   14  O   UNL     1      -8.638   8.622  74.264  1.00  0.00    -0.065 OA 
BRANCH  13  15
HETATM   15  O   UNL     1      -7.103   8.988  72.595  1.00  0.00    -0.328 OA 
BRANCH  15  16
HETATM   16  C   UNL     1      -6.309   8.267  71.639  1.00  0.00    -0.049 C  
BRANCH  16  17
HETATM   17  C   UNL     1      -6.848   8.489  70.269  1.00  0.00    -0.039 C  
HETATM   18  O   UNL     1      -7.444   8.258  68.127  1.00  0.00    -0.093 OA 
HETATM   19  C   UNL     1      -6.822   7.697  69.218  1.00  0.00    -0.052 C  
HETATM   20  O   UNL     1      -7.471   9.688  69.964  1.00  0.00    -0.103 OA 
HETATM   21  C   UNL     1      -6.343   6.317  69.086  1.00  0.00    -0.041 C  
HETATM   22  C   UNL     1      -7.845   9.479  68.641  1.00  0.00    -0.084 C  
HETATM   23  O   UNL     1      -8.465  10.302  67.979  1.00  0.00    -0.116 OA 
ENDBRANCH  16  17
ENDBRANCH  15  16
ENDBRANCH  13  15
ENDBRANCH   9  13
BRANCH   8  24
HETATM   24  C   UNL     1     -11.312   7.678  73.284  1.00  0.00     0.001 C  
BRANCH  24  25
HETATM   25  C   UNL     1     -11.134   8.843  72.337  1.00  0.00    -0.122 A  
HETATM   26  C   UNL     1     -10.008   9.664  72.306  1.00  0.00     2.105 A  
HETATM   27  C   UNL     1     -12.088  10.187  70.532  1.00  0.00    -0.380 A  
HETATM   28  C   UNL     1     -10.968  11.033  70.497  1.00  0.00     0.376 A  
HETATM   29  C   UNL     1     -12.164   9.108  71.423  1.00  0.00    -0.407 A  
HETATM   30  C   UNL     1      -9.908  10.694  71.362  1.00  0.00     4.322 A  
BRANCH  28  31
HETATM   31  C   UNL     1     -10.869  12.180  69.538  1.00  0.00     0.068 A  
HETATM   32  C   UNL     1     -10.037  12.970  67.349  1.00  0.00    -0.231 A  
HETATM   33  C   UNL     1     -10.427  11.939  68.211  1.00  0.00    -0.221 A  
HETATM   34  C   UNL     1     -10.146  14.289  67.757  1.00  0.00    -0.231 A  
HETATM   35  C   UNL     1     -10.680  14.570  69.011  1.00  0.00    -0.258 A  
HETATM   36  C   UNL     1     -11.060  13.536  69.891  1.00  0.00     0.127 A  
BRANCH  36  37
HETATM   37  C   UNL     1     -11.679  13.993  71.149  1.00  0.00     0.106 C  
HETATM   38  N   UNL     1     -12.942  13.936  71.419  1.00  0.00    -0.344 NA 
HETATM   39  O   UNL     1     -13.064  14.467  72.741  1.00  0.00    -0.454 OA 
HETATM   40  C   UNL     1     -11.794  14.790  73.144  1.00  0.00    -0.057 C  
HETATM   41  N   UNL     1     -10.942  14.476  72.157  1.00  0.00     1.226 NA 
HETATM   42  O   UNL     1     -11.494  15.300  74.215  1.00  0.00     0.275 OA 
ENDBRANCH  36  37
ENDBRANCH  28  31
ENDBRANCH  24  25
ENDBRANCH   8  24
ENDBRANCH   3   4
ENDBRANCH   2   3
TORSDOF 10
ENDMDL
MODEL      267
REMARK 921   NORMALIZED FREE ENERGY PREDICTED BY IDOCK:   13.68 KCAL/MOL
REMARK 922        TOTAL FREE ENERGY PREDICTED BY IDOCK:   18.76 KCAL/MOL
REMARK 923 INTER-LIGAND FREE ENERGY PREDICTED BY IDOCK:    3.42 KCAL/MOL
REMARK 924 INTRA-LIGAND FREE ENERGY PREDICTED BY IDOCK:   15.35 KCAL/MOL
REMARK 927      BINDING AFFINITY PREDICTED BY RF-SCORE:    0.00 PKD
ROOT
HETATM    1  C   UNL     1      -7.677  14.953  68.722  1.00  0.00    -0.139 C  
HETATM    2  C   UNL     1      -8.180  15.348  67.345  1.00  0.00    -0.183 C  
ENDROOT
BRANCH   2   3
HETATM    3  O   UNL     1      -8.734  14.202  66.695  1.00  0.00    -0.169 OA 
BRANCH   3   4
HETATM    4  C   UNL     1      -9.097  13.227  67.529  1.00  0.00    -0.208 A  
HETATM    5  N   UNL     1      -9.641  13.407  68.705  1.00  0.00    -0.039 NA 
HETATM    6  C   UNL     1      -9.858  12.149  69.193  1.00  0.00     0.361 A  
HETATM    7  C   UNL     1      -9.426  11.156  68.301  1.00  0.00    -0.182 A  
HETATM    8  N   UNL     1      -8.980  11.892  67.216  1.00  0.00    -0.171 NA 
HETATM    9  C   UNL     1      -9.524   9.783  68.644  1.00  0.00    -0.151 A  
HETATM   10  C   UNL     1     -10.131   9.464  69.878  1.00  0.00    -0.243 A  
HETATM   11  C   UNL     1     -10.461  11.795  70.410  1.00  0.00     2.194 A  
HETATM   12  C   UNL     1     -10.606  10.449  70.738  1.00  0.00     0.301 A  
BRANCH   9  13
HETATM   13  C   UNL     1      -9.121   8.667  67.757  1.00  0.00    -0.135 C  
HETATM   14  O   UNL     1      -9.016   8.771  66.547  1.00  0.00    -0.133 OA 
BRANCH  13  15
HETATM   15  O   UNL     1      -8.964   7.523  68.475  1.00  0.00    -0.130 OA 
BRANCH  15  16
HETATM   16  C   UNL     1      -9.620   6.361  67.941  1.00  0.00    -0.121 C  
BRANCH  16  17
HETATM   17  C   UNL     1     -10.266   5.597  69.043  1.00  0.00    -0.222 C  
HETATM   18  O   UNL     1     -11.077   3.976  70.351  1.00  0.00     2.158 OA 
HETATM   19  C   UNL     1     -10.445   4.299  69.172  1.00  0.00     0.903 C  
HETATM   20  O   UNL     1     -10.801   6.276  70.125  1.00  0.00    -0.254 OA 
HETATM   21  C   UNL     1      -9.985   3.193  68.326  1.00  0.00     0.497 C  
HETATM   22  C   UNL     1     -11.260   5.226  70.913  1.00  0.00     0.372 C  
HETATM   23  O   UNL     1     -11.790   5.387  72.006  1.00  0.00     0.055 OA 
ENDBRANCH  16  17
ENDBRANCH  15  16
ENDBRANCH  13  15
ENDBRANCH   9  13
BRANCH   8  24
HETATM   24  C   UNL     1      -8.657  11.427  65.876  1.00  0.00    -0.049 C  
BRANCH  24  25
HETATM   25  C   UNL     1      -7.968  10.084  65.796  1.00  0.00    -0.126 A  
HETATM   26  C   UNL     1      -6.878   9.713  66.583  1.00  0.00    -0.084 A  
HETATM   27  C   UNL     1      -7.863   7.890  64.725  1.00  0.00    -0.125 A  
HETATM   28  C   UNL     1      -6.756   7.505  65.497  1.00  0.00    -0.045 A  
HETATM   29  C   UNL     1      -8.464   9.146  64.879  1.00  0.00    -0.191 A  
HETATM   30  C   UNL     1      -6.331   8.428  66.474  1.00  0.00    -0.055 A  
BRANCH  28  31
HETATM   31  C   UNL     1      -6.115   6.159  65.351  1.00  0.00    -0.030 A  
HETATM   32  C   UNL     1      -5.478   4.336  63.808  1.00  0.00    -0.013 A  
HETATM   33  C   UNL     1      -5.807   5.674  64.053  1.00  0.00    -0.021 A  
HETATM   34  C   UNL     1      -5.371   3.448  64.864  1.00  0.00    -0.009 A  
HETATM   35  C   UNL     1      -5.555   3.911  66.163  1.00  0.00    -0.018 A  
HETATM   36  C   UNL     1      -5.903   5.254  66.416  1.00  0.00    -0.018 A  
BRANCH  36  37
HETATM   37  C   UNL     1      -5.988   5.611  67.845  1.00  0.00    -0.017 C  
HETATM   38  N   UNL     1      -5.651   4.839  68.825  1.00  0.00    -0.012 NA 
HETATM   39  O   UNL     1      -5.887   5.613  70.005  1.00  0.00    -0.021 OA 
HETATM   40  C   UNL     1      -6.353   6.829  69.580  1.00  0.00    -0.042 C  
HETATM   41  N   UNL     1      -6.396   6.823  68.240  1.00  0.00    -0.030 NA 
HETATM   42  O   UNL     1      -6.694   7.754  70.304  1.00  0.00    -0.038 OA 
ENDBRANCH  36  37
ENDBRANCH  28  31
ENDBRANCH  24  25
ENDBRANCH   8  24
ENDBRANCH   3   4
ENDBRANCH   2   3
TORSDOF 10
ENDMDL
MODEL      268
REMARK 921   NORMALIZED FREE ENERGY PREDICTED BY IDOCK:   17.16 KCAL/MOL
REMARK 922        TOTAL FREE ENERGY PREDICTED BY IDOCK:   24.28 KCAL/MOL
REMARK 923 INTER-LIGAND FREE ENERGY PREDICTED BY IDOCK:   11.94 KCAL/MOL
REMARK 924 INTRA-LIGAND FREE ENERGY PREDICTED BY IDOCK:   12.34 KCAL/MOL
REMARK 927      BINDING AFFINITY PREDICTED BY RF-SCORE:    0.00 PKD
ROOT
HETATM    1  C   UNL     1     -12.909   9.786  69.525  1.00  0.00     1.501 C  
HETATM    2  C   UNL     1     -13.035  11.236  69.091  1.00  0.00     1.437 C  
ENDROOT
BRANCH   2   3
HETATM    3  O   UNL     1     -12.205  11.464  67.949  1.00  0.00    -0.592 OA 
BRANCH   3   4
HETATM    4  C   UNL     1     -10.904  11.543  68.231  1.00  0.00    -0.216 A  
HETATM    5  N   UNL     1     -10.048  10.563  68.109  1.00  0.00    -0.154 NA 
HETATM    6  C   UNL     1      -8.845  11.092  68.486  1.00  0.00    -0.159 A  
HETATM    7  C   UNL     1      -8.957  12.437  68.866  1.00  0.00     0.304 A  
HETATM    8  N   UNL     1     -10.298  12.708  68.645  1.00  0.00    -0.212 NA 
HETATM    9  C   UNL     1      -7.826  13.153  69.334  1.00  0.00     0.686 A  
HETATM   10  C   UNL     1      -6.586  12.479  69.334  1.00  0.00    -0.073 A  
HETATM   11  C   UNL     1      -7.595  10.454  68.496  1.00  0.00    -0.095 A  
HETATM   12  C   UNL     1      -6.468  11.160  68.908  1.00  0.00    -0.056 A  
BRANCH   9  13
HETATM   13  C   UNL     1      -7.843  14.581  69.728  1.00  0.00     0.280 C  
HETATM   14  O   UNL     1      -7.088  15.418  69.266  1.00  0.00    -0.149 OA 
BRANCH  13  15
HETATM   15  O   UNL     1      -8.757  14.791  70.714  1.00  0.00     1.529 OA 
BRANCH  15  16
HETATM   16  C   UNL     1      -9.693  13.722  70.929  1.00  0.00     5.190 C  
BRANCH  16  17
HETATM   17  C   UNL     1     -10.869  14.227  71.688  1.00  0.00     2.212 C  
HETATM   18  O   UNL     1     -12.893  14.485  72.602  1.00  0.00    -0.380 OA 
HETATM   19  C   UNL     1     -12.083  13.729  71.786  1.00  0.00     0.274 C  
HETATM   20  O   UNL     1     -10.761  15.402  72.415  1.00  0.00     0.276 OA 
HETATM   21  C   UNL     1     -12.635  12.476  71.260  1.00  0.00    -0.332 C  
HETATM   22  C   UNL     1     -12.028  15.496  72.981  1.00  0.00    -0.461 C  
HETATM   23  O   UNL     1     -12.360  16.398  73.741  1.00  0.00    -0.502 OA 
ENDBRANCH  16  17
ENDBRANCH  15  16
ENDBRANCH  13  15
ENDBRANCH   9  13
BRANCH   8  24
HETATM   24  C   UNL     1     -10.968  13.997  68.604  1.00  0.00    -0.263 C  
BRANCH  24  25
HETATM   25  C   UNL     1     -10.076  15.193  68.359  1.00  0.00    -0.225 A  
HETATM   26  C   UNL     1      -9.950  16.272  69.234  1.00  0.00    -0.259 A  
HETATM   27  C   UNL     1      -8.487  16.298  66.866  1.00  0.00    -0.257 A  
HETATM   28  C   UNL     1      -8.360  17.400  67.727  1.00  0.00    -0.218 A  
HETATM   29  C   UNL     1      -9.316  15.213  67.181  1.00  0.00    -0.223 A  
HETATM   30  C   UNL     1      -9.063  17.317  68.947  1.00  0.00    -0.172 A  
BRANCH  28  31
HETATM   31  C   UNL     1      -7.466  18.558  67.409  1.00  0.00    -0.223 A  
HETATM   32  C   UNL     1      -5.266  19.624  67.774  1.00  0.00    -0.180 A  
HETATM   33  C   UNL     1      -6.095  18.497  67.773  1.00  0.00    -0.189 A  
HETATM   34  C   UNL     1      -5.758  20.843  67.339  1.00  0.00    -0.301 A  
HETATM   35  C   UNL     1      -7.065  20.919  66.868  1.00  0.00    -0.333 A  
HETATM   36  C   UNL     1      -7.912  19.792  66.880  1.00  0.00    -0.322 A  
BRANCH  36  37
HETATM   37  C   UNL     1      -9.241  20.011  66.280  1.00  0.00    -0.334 C  
HETATM   38  N   UNL     1     -10.341  20.149  66.942  1.00  0.00    -0.421 NA 
HETATM   39  O   UNL     1     -11.350  20.356  65.949  1.00  0.00     0.580 OA 
HETATM   40  C   UNL     1     -10.708  20.327  64.738  1.00  0.00     1.251 C  
HETATM   41  N   UNL     1      -9.399  20.130  64.955  1.00  0.00     0.657 NA 
HETATM   42  O   UNL     1     -11.244  20.440  63.644  1.00  0.00     3.062 OA 
ENDBRANCH  36  37
ENDBRANCH  28  31
ENDBRANCH  24  25
ENDBRANCH   8  24
ENDBRANCH   3   4
ENDBRANCH   2   3
TORSDOF 10
ENDMDL
MODEL      269
REMARK 921   NORMALIZED FREE ENERGY PREDICTED BY IDOCK:   17.71 KCAL/MOL
REMARK 922        TOTAL FREE ENERGY PREDICTED BY IDOCK:   25.14 KCAL/MOL
REMARK 923 INTER-LIGAND FREE ENERGY PREDICTED BY IDOCK:   13.16 KCAL/MOL
REMARK 924 INTRA-LIGAND FREE ENERGY PREDICTED BY IDOCK:   11.98 KCAL/MOL
REMARK 927      BINDING AFFINITY PREDICTED BY RF-SCORE:    0.00 PKD
ROOT
HETATM    1  C   UNL     1      -6.688  19.221  64.701  1.00  0.00     0.341 C  
HETATM    2  C   UNL     1      -7.529  18.012  65.072  1.00  0.00     2.067 C  
ENDROOT
BRANCH   2   3
HETATM    3  O   UNL     1      -7.609  17.907  66.495  1.00  0.00    -0.216 OA 
BRANCH   3   4
HETATM    4  C   UNL     1      -8.788  17.475  66.943  1.00  0.00    -0.251 A  
HETATM    5  N   UNL     1      -9.796  18.242  67.269  1.00  0.00    -0.310 NA 
HETATM    6  C   UNL     1     -10.788  17.384  67.652  1.00  0.00    -0.233 A  
HETATM    7  C   UNL     1     -10.383  16.043  67.575  1.00  0.00    -0.287 A  
HETATM    8  N   UNL     1      -9.097  16.139  67.069  1.00  0.00    -0.201 NA 
HETATM    9  C   UNL     1     -11.257  15.000  67.974  1.00  0.00    -0.324 A  
HETATM   10  C   UNL     1     -12.558  15.363  68.381  1.00  0.00     0.815 A  
HETATM   11  C   UNL     1     -12.091  17.709  68.058  1.00  0.00     2.616 A  
HETATM   12  C   UNL     1     -12.975  16.690  68.408  1.00  0.00     3.724 A  
BRANCH   9  13
HETATM   13  C   UNL     1     -10.927  13.557  67.901  1.00  0.00    -0.256 C  
HETATM   14  O   UNL     1     -10.193  13.074  67.057  1.00  0.00    -0.241 OA 
BRANCH  13  15
HETATM   15  O   UNL     1     -11.612  12.864  68.851  1.00  0.00    -0.273 OA 
BRANCH  15  16
HETATM   16  C   UNL     1     -12.741  13.546  69.422  1.00  0.00     0.516 C  
BRANCH  16  17
HETATM   17  C   UNL     1     -12.327  14.251  70.665  1.00  0.00    -0.361 C  
HETATM   18  O   UNL     1     -11.745  14.749  72.766  1.00  0.00    -0.188 OA 
HETATM   19  C   UNL     1     -12.147  13.776  71.879  1.00  0.00     0.373 C  
HETATM   20  O   UNL     1     -12.091  15.616  70.633  1.00  0.00    -0.352 OA 
HETATM   21  C   UNL     1     -12.204  12.396  72.372  1.00  0.00     1.954 C  
HETATM   22  C   UNL     1     -11.707  15.863  71.946  1.00  0.00    -0.499 C  
HETATM   23  O   UNL     1     -11.373  16.970  72.353  1.00  0.00     0.165 OA 
ENDBRANCH  16  17
ENDBRANCH  15  16
ENDBRANCH  13  15
ENDBRANCH   9  13
BRANCH   8  24
HETATM   24  C   UNL     1      -8.254  15.086  66.526  1.00  0.00     0.150 C  
BRANCH  24  25
HETATM   25  C   UNL     1      -8.038  13.890  67.425  1.00  0.00    -0.190 A  
HETATM   26  C   UNL     1      -7.736  12.608  66.967  1.00  0.00    -0.021 A  
HETATM   27  C   UNL     1      -7.978  13.021  69.709  1.00  0.00     1.666 A  
HETATM   28  C   UNL     1      -7.689  11.721  69.265  1.00  0.00     0.217 A  
HETATM   29  C   UNL     1      -8.137  14.084  68.810  1.00  0.00    -0.065 A  
HETATM   30  C   UNL     1      -7.506  11.567  67.875  1.00  0.00    -0.103 A  
BRANCH  28  31
HETATM   31  C   UNL     1      -7.503  10.579  70.217  1.00  0.00     0.278 A  
HETATM   32  C   UNL     1      -6.530   9.819  72.358  1.00  0.00     0.882 A  
HETATM   33  C   UNL     1      -6.998  10.836  71.518  1.00  0.00     2.792 A  
HETATM   34  C   UNL     1      -6.620   8.497  71.956  1.00  0.00    -0.080 A  
HETATM   35  C   UNL     1      -7.212   8.197  70.734  1.00  0.00    -0.050 A  
HETATM   36  C   UNL     1      -7.670   9.217  69.875  1.00  0.00    -0.101 A  
BRANCH  36  37
HETATM   37  C   UNL     1      -8.343   8.740  68.652  1.00  0.00    -0.128 C  
HETATM   38  N   UNL     1      -8.809   9.498  67.716  1.00  0.00    -0.119 NA 
HETATM   39  O   UNL     1      -9.345   8.599  66.742  1.00  0.00    -0.156 OA 
HETATM   40  C   UNL     1      -9.120   7.335  67.220  1.00  0.00    -0.123 C  
HETATM   41  N   UNL     1      -8.484   7.433  68.397  1.00  0.00    -0.125 NA 
HETATM   42  O   UNL     1      -9.464   6.295  66.676  1.00  0.00    -0.146 OA 
ENDBRANCH  36  37
ENDBRANCH  28  31
ENDBRANCH  24  25
ENDBRANCH   8  24
ENDBRANCH   3   4
ENDBRANCH   2   3
TORSDOF 10
ENDMDL
MODEL      270
REMARK 921   NORMALIZED FREE ENERGY PREDICTED BY IDOCK:   18.34 KCAL/MOL
REMARK 922        TOTAL FREE ENERGY PREDICTED BY IDOCK:   26.13 KCAL/MOL
REMARK 923 INTER-LIGAND FREE ENERGY PREDICTED BY IDOCK:   23.22 KCAL/MOL
REMARK 924 INTRA-LIGAND FREE ENERGY PREDICTED BY IDOCK:    2.91 KCAL/MOL
REMARK 927      BINDING AFFINITY PREDICTED BY RF-SCORE:    0.00 PKD
ROOT
HETATM    1  C   UNL     1     -10.941  14.338  66.849  1.00  0.00    -0.304 C  
HETATM    2  C   UNL     1     -11.853  15.463  67.304  1.00  0.00     0.142 C  
ENDROOT
BRANCH   2   3
HETATM    3  O   UNL     1     -11.086  16.657  67.474  1.00  0.00    -0.207 OA 
BRANCH   3   4
HETATM    4  C   UNL     1      -9.836  16.446  67.888  1.00  0.00    -0.238 A  
HETATM    5  N   UNL     1      -8.774  17.041  67.410  1.00  0.00    -0.200 NA 
HETATM    6  C   UNL     1      -7.729  16.537  68.132  1.00  0.00    -0.166 A  
HETATM    7  C   UNL     1      -8.149  15.592  69.078  1.00  0.00    -0.220 A  
HETATM    8  N   UNL     1      -9.525  15.591  68.922  1.00  0.00    -0.208 NA 
HETATM    9  C   UNL     1      -7.206  14.920  69.897  1.00  0.00    -0.069 A  
HETATM   10  C   UNL     1      -5.850  15.291  69.765  1.00  0.00    -0.128 A  
HETATM   11  C   UNL     1      -6.373  16.886  68.030  1.00  0.00    -0.151 A  
HETATM   12  C   UNL     1      -5.442  16.267  68.861  1.00  0.00    -0.116 A  
BRANCH   9  13
HETATM   13  C   UNL     1      -7.558  13.930  70.941  1.00  0.00     3.077 C  
HETATM   14  O   UNL     1      -7.978  14.232  72.044  1.00  0.00     4.015 OA 
BRANCH  13  15
HETATM   15  O   UNL     1      -7.276  12.669  70.515  1.00  0.00     1.374 OA 
BRANCH  15  16
HETATM   16  C   UNL     1      -6.221  11.996  71.221  1.00  0.00     1.456 C  
BRANCH  16  17
HETATM   17  C   UNL     1      -6.666  10.630  71.609  1.00  0.00     2.138 C  
HETATM   18  O   UNL     1      -7.158   8.768  72.743  1.00  0.00    -0.319 OA 
HETATM   19  C   UNL     1      -6.639  10.041  72.786  1.00  0.00     1.895 C  
HETATM   20  O   UNL     1      -7.183   9.779  70.646  1.00  0.00    -0.211 OA 
HETATM   21  C   UNL     1      -6.253  10.570  74.098  1.00  0.00     1.652 C  
HETATM   22  C   UNL     1      -7.497   8.658  71.406  1.00  0.00    -0.105 C  
HETATM   23  O   UNL     1      -8.019   7.653  70.939  1.00  0.00    -0.092 OA 
ENDBRANCH  16  17
ENDBRANCH  15  16
ENDBRANCH  13  15
ENDBRANCH   9  13
BRANCH   8  24
HETATM   24  C   UNL     1     -10.537  15.014  69.792  1.00  0.00    -0.215 C  
BRANCH  24  25
HETATM   25  C   UNL     1     -10.798  13.537  69.604  1.00  0.00     0.155 A  
HETATM   26  C   UNL     1     -11.920  12.869  70.093  1.00  0.00    -0.373 A  
HETATM   27  C   UNL     1     -10.011  11.412  68.687  1.00  0.00    -0.209 A  
HETATM   28  C   UNL     1     -11.127  10.721  69.186  1.00  0.00    -0.304 A  
HETATM   29  C   UNL     1      -9.856  12.792  68.881  1.00  0.00     0.140 A  
HETATM   30  C   UNL     1     -12.104  11.506  69.831  1.00  0.00    -0.389 A  
BRANCH  28  31
HETATM   31  C   UNL     1     -11.311   9.250  68.972  1.00  0.00     0.246 A  
HETATM   32  C   UNL     1     -12.099   7.472  67.448  1.00  0.00     4.004 A  
HETATM   33  C   UNL     1     -11.636   8.772  67.676  1.00  0.00     1.920 A  
HETATM   34  C   UNL     1     -12.182   6.575  68.499  1.00  0.00     2.819 A  
HETATM   35  C   UNL     1     -11.766   6.972  69.766  1.00  0.00    -0.049 A  
HETATM   36  C   UNL     1     -11.314   8.286  70.006  1.00  0.00    -0.001 A  
BRANCH  36  37
HETATM   37  C   UNL     1     -10.836   8.532  71.380  1.00  0.00    -0.260 C  
HETATM   38  N   UNL     1     -10.510   9.688  71.856  1.00  0.00     0.355 NA 
HETATM   39  O   UNL     1     -10.132   9.437  73.213  1.00  0.00     2.384 OA 
HETATM   40  C   UNL     1     -10.290   8.090  73.413  1.00  0.00     0.064 C  
HETATM   41  N   UNL     1     -10.743   7.542  72.276  1.00  0.00    -0.235 NA 
HETATM   42  O   UNL     1     -10.039   7.489  74.449  1.00  0.00     0.156 OA 
ENDBRANCH  36  37
ENDBRANCH  28  31
ENDBRANCH  24  25
ENDBRANCH   8  24
ENDBRANCH   3   4
ENDBRANCH   2   3
TORSDOF 10
ENDMDL
MODEL      271
REMARK 921   NORMALIZED FREE ENERGY PREDICTED BY IDOCK:   19.42 KCAL/MOL
REMARK 922        TOTAL FREE ENERGY PREDICTED BY IDOCK:   27.86 KCAL/MOL
REMARK 923 INTER-LIGAND FREE ENERGY PREDICTED BY IDOCK:   13.72 KCAL/MOL
REMARK 924 INTRA-LIGAND FREE ENERGY PREDICTED BY IDOCK:   14.14 KCAL/MOL
REMARK 927      BINDING AFFINITY PREDICTED BY RF-SCORE:    0.00 PKD
ROOT
HETATM    1  C   UNL     1     -12.052   6.841  68.812  1.00  0.00     1.620 C  
HETATM    2  C   UNL     1     -12.811   8.091  68.404  1.00  0.00     8.856 C  
ENDROOT
BRANCH   2   3
HETATM    3  O   UNL     1     -11.967   9.234  68.568  1.00  0.00     1.176 OA 
BRANCH   3   4
HETATM    4  C   UNL     1     -10.690   9.016  68.251  1.00  0.00    -0.103 A  
HETATM    5  N   UNL     1      -9.835   8.355  68.988  1.00  0.00    -0.178 NA 
HETATM    6  C   UNL     1      -8.669   8.366  68.275  1.00  0.00    -0.143 A  
HETATM    7  C   UNL     1      -8.797   9.064  67.066  1.00  0.00    -0.119 A  
HETATM    8  N   UNL     1     -10.132   9.433  67.064  1.00  0.00    -0.222 NA 
HETATM    9  C   UNL     1      -7.683   9.227  66.203  1.00  0.00    -0.096 A  
HETATM   10  C   UNL     1      -6.474   8.603  66.580  1.00  0.00    -0.059 A  
HETATM   11  C   UNL     1      -7.452   7.755  68.617  1.00  0.00    -0.100 A  
HETATM   12  C   UNL     1      -6.363   7.868  67.756  1.00  0.00    -0.052 A  
BRANCH   9  13
HETATM   13  C   UNL     1      -7.730   9.922  64.896  1.00  0.00    -0.134 C  
HETATM   14  O   UNL     1      -8.765  10.260  64.348  1.00  0.00    -0.175 OA 
BRANCH  13  15
HETATM   15  O   UNL     1      -6.477  10.053  64.382  1.00  0.00    -0.119 OA 
BRANCH  15  16
HETATM   16  C   UNL     1      -5.435  10.290  65.342  1.00  0.00    -0.088 C  
BRANCH  16  17
HETATM   17  C   UNL     1      -6.018  10.858  66.588  1.00  0.00    -0.097 C  
HETATM   18  O   UNL     1      -7.253  11.999  68.062  1.00  0.00    -0.082 OA 
HETATM   19  C   UNL     1      -6.988  11.735  66.738  1.00  0.00    -0.047 C  
HETATM   20  O   UNL     1      -5.512  10.472  67.819  1.00  0.00    -0.043 OA 
HETATM   21  C   UNL     1      -7.861  12.358  65.737  1.00  0.00     1.740 C  
HETATM   22  C   UNL     1      -6.330  11.182  68.691  1.00  0.00    -0.044 C  
HETATM   23  O   UNL     1      -6.240  11.106  69.911  1.00  0.00    -0.101 OA 
ENDBRANCH  16  17
ENDBRANCH  15  16
ENDBRANCH  13  15
ENDBRANCH   9  13
BRANCH   8  24
HETATM   24  C   UNL     1     -10.929   9.951  65.963  1.00  0.00     0.613 C  
BRANCH  24  25
HETATM   25  C   UNL     1     -11.104  11.452  65.930  1.00  0.00    -0.225 A  
HETATM   26  C   UNL     1     -11.986  12.121  65.082  1.00  0.00    -0.324 A  
HETATM   27  C   UNL     1     -10.423  13.620  66.830  1.00  0.00    -0.272 A  
HETATM   28  C   UNL     1     -11.293  14.311  65.973  1.00  0.00    -0.335 A  
HETATM   29  C   UNL     1     -10.339  12.221  66.818  1.00  0.00    -0.238 A  
HETATM   30  C   UNL     1     -12.118  13.513  65.152  1.00  0.00    -0.432 A  
BRANCH  28  31
HETATM   31  C   UNL     1     -11.403  15.805  65.987  1.00  0.00     0.139 A  
HETATM   32  C   UNL     1     -11.304  17.890  64.665  1.00  0.00     2.422 A  
HETATM   33  C   UNL     1     -11.485  16.506  64.756  1.00  0.00     0.042 A  
HETATM   34  C   UNL     1     -11.108  18.637  65.814  1.00  0.00     0.376 A  
HETATM   35  C   UNL     1     -11.132  18.001  67.051  1.00  0.00     0.237 A  
HETATM   36  C   UNL     1     -11.297  16.604  67.149  1.00  0.00     0.392 A  
BRANCH  36  37
HETATM   37  C   UNL     1     -11.379  16.087  68.528  1.00  0.00    -0.382 C  
HETATM   38  N   UNL     1     -12.366  15.407  69.009  1.00  0.00    -0.106 NA 
HETATM   39  O   UNL     1     -11.993  15.114  70.358  1.00  0.00    -0.274 OA 
HETATM   40  C   UNL     1     -10.754  15.671  70.544  1.00  0.00    -0.273 C  
HETATM   41  N   UNL     1     -10.376  16.256  69.398  1.00  0.00    -0.262 NA 
HETATM   42  O   UNL     1     -10.114  15.655  71.586  1.00  0.00     1.235 OA 
ENDBRANCH  36  37
ENDBRANCH  28  31
ENDBRANCH  24  25
ENDBRANCH   8  24
ENDBRANCH   3   4
ENDBRANCH   2   3
TORSDOF 10
ENDMDL
MODEL      272
REMARK 921   NORMALIZED FREE ENERGY PREDICTED BY IDOCK:   22.13 KCAL/MOL
REMARK 922        TOTAL FREE ENERGY PREDICTED BY IDOCK:   32.15 KCAL/MOL
REMARK 923 INTER-LIGAND FREE ENERGY PREDICTED BY IDOCK:   16.99 KCAL/MOL
REMARK 924 INTRA-LIGAND FREE ENERGY PREDICTED BY IDOCK:   15.16 KCAL/MOL
REMARK 927      BINDING AFFINITY PREDICTED BY RF-SCORE:    0.00 PKD
ROOT
HETATM    1  C   UNL     1      -6.725  19.223  64.653  1.00  0.00     0.341 C  
HETATM    2  C   UNL     1      -7.667  18.048  64.847  1.00  0.00     3.136 C  
ENDROOT
BRANCH   2   3
HETATM    3  O   UNL     1      -7.780  17.754  66.242  1.00  0.00    -0.257 OA 
BRANCH   3   4
HETATM    4  C   UNL     1      -9.011  17.419  66.629  1.00  0.00    -0.252 A  
HETATM    5  N   UNL     1      -9.867  18.228  67.197  1.00  0.00    -0.311 NA 
HETATM    6  C   UNL     1     -10.988  17.473  67.402  1.00  0.00    -0.050 A  
HETATM    7  C   UNL     1     -10.822  16.153  66.960  1.00  0.00    -0.194 A  
HETATM    8  N   UNL     1      -9.545  16.167  66.425  1.00  0.00    -0.266 NA 
HETATM    9  C   UNL     1     -11.859  15.199  67.125  1.00  0.00    -0.052 A  
HETATM   10  C   UNL     1     -13.073  15.651  67.684  1.00  0.00     3.487 A  
HETATM   11  C   UNL     1     -12.212  17.890  67.950  1.00  0.00     3.467 A  
HETATM   12  C   UNL     1     -13.254  16.974  68.074  1.00  0.00     5.913 A  
BRANCH   9  13
HETATM   13  C   UNL     1     -11.784  13.792  66.665  1.00  0.00    -0.394 C  
HETATM   14  O   UNL     1     -11.218  13.446  65.644  1.00  0.00    -0.292 OA 
BRANCH  13  15
HETATM   15  O   UNL     1     -12.490  12.982  67.499  1.00  0.00    -0.126 OA 
BRANCH  15  16
HETATM   16  C   UNL     1     -13.388  13.651  68.401  1.00  0.00     4.167 C  
BRANCH  16  17
HETATM   17  C   UNL     1     -12.673  13.991  69.661  1.00  0.00     0.167 C  
HETATM   18  O   UNL     1     -11.687  13.911  71.665  1.00  0.00     0.222 OA 
HETATM   19  C   UNL     1     -12.371  13.226  70.688  1.00  0.00    -0.339 C  
HETATM   20  O   UNL     1     -12.242  15.290  69.874  1.00  0.00    -0.329 OA 
HETATM   21  C   UNL     1     -12.556  11.783  70.877  1.00  0.00    -0.384 C  
HETATM   22  C   UNL     1     -11.614  15.176  71.110  1.00  0.00    -0.360 C  
HETATM   23  O   UNL     1     -11.054  16.111  71.669  1.00  0.00    -0.075 OA 
ENDBRANCH  16  17
ENDBRANCH  15  16
ENDBRANCH  13  15
ENDBRANCH   9  13
BRANCH   8  24
HETATM   24  C   UNL     1      -8.903  15.170  65.583  1.00  0.00     0.783 C  
BRANCH  24  25
HETATM   25  C   UNL     1      -9.079  13.733  66.017  1.00  0.00     0.192 A  
HETATM   26  C   UNL     1      -8.804  13.261  67.300  1.00  0.00    -0.216 A  
HETATM   27  C   UNL     1      -9.725  11.461  65.387  1.00  0.00    -0.265 A  
HETATM   28  C   UNL     1      -9.439  10.965  66.669  1.00  0.00    -0.204 A  
HETATM   29  C   UNL     1      -9.562  12.817  65.072  1.00  0.00     0.161 A  
HETATM   30  C   UNL     1      -9.041  11.920  67.628  1.00  0.00    -0.179 A  
BRANCH  28  31
HETATM   31  C   UNL     1      -9.624   9.521  67.023  1.00  0.00    -0.214 A  
HETATM   32  C   UNL     1     -11.048   7.513  66.805  1.00  0.00     0.448 A  
HETATM   33  C   UNL     1     -10.618   8.765  66.350  1.00  0.00     0.163 A  
HETATM   34  C   UNL     1     -10.445   6.938  67.911  1.00  0.00    -0.262 A  
HETATM   35  C   UNL     1      -9.390   7.599  68.531  1.00  0.00    -0.147 A  
HETATM   36  C   UNL     1      -8.963   8.867  68.088  1.00  0.00    -0.137 A  
BRANCH  36  37
HETATM   37  C   UNL     1      -7.786   9.405  68.796  1.00  0.00    -0.084 C  
HETATM   38  N   UNL     1      -7.252  10.561  68.578  1.00  0.00    -0.082 NA 
HETATM   39  O   UNL     1      -6.164  10.648  69.503  1.00  0.00    -0.046 OA 
HETATM   40  C   UNL     1      -6.173   9.479  70.218  1.00  0.00    -0.061 C  
HETATM   41  N   UNL     1      -7.192   8.723  69.783  1.00  0.00    -0.050 NA 
HETATM   42  O   UNL     1      -5.371   9.169  71.088  1.00  0.00    -0.033 OA 
ENDBRANCH  36  37
ENDBRANCH  28  31
ENDBRANCH  24  25
ENDBRANCH   8  24
ENDBRANCH   3   4
ENDBRANCH   2   3
TORSDOF 10
ENDMDL
MODEL      273
REMARK 921   NORMALIZED FREE ENERGY PREDICTED BY IDOCK:   22.80 KCAL/MOL
REMARK 922        TOTAL FREE ENERGY PREDICTED BY IDOCK:   33.20 KCAL/MOL
REMARK 923 INTER-LIGAND FREE ENERGY PREDICTED BY IDOCK:    6.02 KCAL/MOL
REMARK 924 INTRA-LIGAND FREE ENERGY PREDICTED BY IDOCK:   27.18 KCAL/MOL
REMARK 927      BINDING AFFINITY PREDICTED BY RF-SCORE:    0.00 PKD
ROOT
HETATM    1  C   UNL     1     -10.091  18.418  66.031  1.00  0.00    -0.293 C  
HETATM    2  C   UNL     1      -9.274  19.452  65.276  1.00  0.00     1.440 C  
ENDROOT
BRANCH   2   3
HETATM    3  O   UNL     1      -8.365  20.089  66.177  1.00  0.00    -0.337 OA 
BRANCH   3   4
HETATM    4  C   UNL     1      -7.744  19.250  67.006  1.00  0.00    -0.244 A  
HETATM    5  N   UNL     1      -7.149  19.594  68.119  1.00  0.00    -0.282 NA 
HETATM    6  C   UNL     1      -6.673  18.426  68.644  1.00  0.00    -0.256 A  
HETATM    7  C   UNL     1      -6.968  17.323  67.830  1.00  0.00    -0.166 A  
HETATM    8  N   UNL     1      -7.702  17.889  66.801  1.00  0.00    -0.211 NA 
HETATM    9  C   UNL     1      -6.519  16.024  68.181  1.00  0.00    -0.132 A  
HETATM   10  C   UNL     1      -5.831  15.884  69.405  1.00  0.00    -0.127 A  
HETATM   11  C   UNL     1      -5.989  18.250  69.857  1.00  0.00    -0.205 A  
HETATM   12  C   UNL     1      -5.583  16.972  70.237  1.00  0.00    -0.212 A  
BRANCH   9  13
HETATM   13  C   UNL     1      -6.808  14.799  67.400  1.00  0.00    -0.070 C  
HETATM   14  O   UNL     1      -6.177  14.464  66.412  1.00  0.00     2.218 OA 
BRANCH  13  15
HETATM   15  O   UNL     1      -7.902  14.163  67.900  1.00  0.00    -0.126 OA 
BRANCH  15  16
HETATM   16  C   UNL     1      -7.658  13.296  69.020  1.00  0.00     0.119 C  
BRANCH  16  17
HETATM   17  C   UNL     1      -7.222  14.101  70.193  1.00  0.00     0.437 C  
HETATM   18  O   UNL     1      -7.077  15.617  71.829  1.00  0.00     2.857 OA 
HETATM   19  C   UNL     1      -7.779  15.162  70.737  1.00  0.00     1.572 C  
HETATM   20  O   UNL     1      -6.056  13.762  70.861  1.00  0.00    -0.165 OA 
HETATM   21  C   UNL     1      -9.047  15.828  70.424  1.00  0.00     1.199 C  
HETATM   22  C   UNL     1      -6.033  14.711  71.878  1.00  0.00     0.286 C  
HETATM   23  O   UNL     1      -5.161  14.753  72.738  1.00  0.00    -0.179 OA 
ENDBRANCH  16  17
ENDBRANCH  15  16
ENDBRANCH  13  15
ENDBRANCH   9  13
BRANCH   8  24
HETATM   24  C   UNL     1      -8.507  17.225  65.788  1.00  0.00     0.248 C  
BRANCH  24  25
HETATM   25  C   UNL     1      -9.112  15.900  66.196  1.00  0.00    -0.385 A  
HETATM   26  C   UNL     1      -9.292  14.820  65.333  1.00  0.00     0.335 A  
HETATM   27  C   UNL     1     -10.101  14.558  67.983  1.00  0.00    -0.226 A  
HETATM   28  C   UNL     1     -10.305  13.466  67.124  1.00  0.00    -0.246 A  
HETATM   29  C   UNL     1      -9.506  15.744  67.532  1.00  0.00    -0.218 A  
HETATM   30  C   UNL     1      -9.818  13.613  65.809  1.00  0.00    -0.230 A  
BRANCH  28  31
HETATM   31  C   UNL     1     -10.926  12.188  67.598  1.00  0.00    -0.289 A  
HETATM   32  C   UNL     1     -11.902  10.953  69.503  1.00  0.00    -0.404 A  
HETATM   33  C   UNL     1     -11.556  12.152  68.869  1.00  0.00    -0.377 A  
HETATM   34  C   UNL     1     -11.701   9.747  68.855  1.00  0.00     0.359 A  
HETATM   35  C   UNL     1     -11.188   9.747  67.562  1.00  0.00     0.080 A  
HETATM   36  C   UNL     1     -10.821  10.949  66.923  1.00  0.00    -0.307 A  
BRANCH  36  37
HETATM   37  C   UNL     1     -10.367  10.794  65.529  1.00  0.00    -0.241 C  
HETATM   38  N   UNL     1     -10.763   9.870  64.717  1.00  0.00     1.089 NA 
HETATM   39  O   UNL     1     -10.074  10.132  63.491  1.00  0.00     0.003 OA 
HETATM   40  C   UNL     1      -9.309  11.248  63.711  1.00  0.00    -0.146 C  
HETATM   41  N   UNL     1      -9.511  11.659  64.971  1.00  0.00    -0.165 NA 
HETATM   42  O   UNL     1      -8.553  11.765  62.900  1.00  0.00     0.014 OA 
ENDBRANCH  36  37
ENDBRANCH  28  31
ENDBRANCH  24  25
ENDBRANCH   8  24
ENDBRANCH   3   4
ENDBRANCH   2   3
TORSDOF 10
ENDMDL
MODEL      274
REMARK 921   NORMALIZED FREE ENERGY PREDICTED BY IDOCK:   26.43 KCAL/MOL
REMARK 922        TOTAL FREE ENERGY PREDICTED BY IDOCK:   38.95 KCAL/MOL
REMARK 923 INTER-LIGAND FREE ENERGY PREDICTED BY IDOCK:   35.01 KCAL/MOL
REMARK 924 INTRA-LIGAND FREE ENERGY PREDICTED BY IDOCK:    3.94 KCAL/MOL
REMARK 927      BINDING AFFINITY PREDICTED BY RF-SCORE:    0.00 PKD
ROOT
HETATM    1  C   UNL     1      -6.876  11.527  65.801  1.00  0.00     0.666 C  
HETATM    2  C   UNL     1      -6.768  10.057  66.168  1.00  0.00    -0.100 C  
ENDROOT
BRANCH   2   3
HETATM    3  O   UNL     1      -5.494   9.810  66.767  1.00  0.00    -0.044 OA 
BRANCH   3   4
HETATM    4  C   UNL     1      -5.545   9.045  67.858  1.00  0.00    -0.035 A  
HETATM    5  N   UNL     1      -5.162   9.413  69.053  1.00  0.00    -0.037 NA 
HETATM    6  C   UNL     1      -5.409   8.333  69.854  1.00  0.00    -0.023 A  
HETATM    7  C   UNL     1      -5.948   7.257  69.135  1.00  0.00    -0.026 A  
HETATM    8  N   UNL     1      -6.064   7.770  67.854  1.00  0.00    -0.044 NA 
HETATM    9  C   UNL     1      -6.232   6.026  69.780  1.00  0.00    -0.027 A  
HETATM   10  C   UNL     1      -6.013   5.957  71.173  1.00  0.00    -0.029 A  
HETATM   11  C   UNL     1      -5.207   8.232  71.239  1.00  0.00    -0.029 A  
HETATM   12  C   UNL     1      -5.525   7.044  71.893  1.00  0.00    -0.036 A  
BRANCH   9  13
HETATM   13  C   UNL     1      -6.828   4.846  69.110  1.00  0.00    -0.050 C  
HETATM   14  O   UNL     1      -6.318   3.740  69.113  1.00  0.00    -0.028 OA 
BRANCH  13  15
HETATM   15  O   UNL     1      -7.962   5.200  68.448  1.00  0.00    -0.086 OA 
BRANCH  15  16
HETATM   16  C   UNL     1      -9.060   4.279  68.563  1.00  0.00    -0.128 C  
BRANCH  16  17
HETATM   17  C   UNL     1      -9.872   4.614  69.765  1.00  0.00    -0.226 C  
HETATM   18  O   UNL     1     -11.281   4.541  71.499  1.00  0.00     0.552 OA 
HETATM   19  C   UNL     1     -10.742   3.876  70.422  1.00  0.00     1.845 C  
HETATM   20  O   UNL     1      -9.771   5.874  70.330  1.00  0.00    -0.167 OA 
HETATM   21  C   UNL     1     -11.117   2.470  70.241  1.00  0.00     5.007 C  
HETATM   22  C   UNL     1     -10.637   5.764  71.413  1.00  0.00    -0.253 C  
HETATM   23  O   UNL     1     -10.828   6.668  72.218  1.00  0.00    -0.216 OA 
ENDBRANCH  16  17
ENDBRANCH  15  16
ENDBRANCH  13  15
ENDBRANCH   9  13
BRANCH   8  24
HETATM   24  C   UNL     1      -6.796   7.225  66.721  1.00  0.00    -0.065 C  
BRANCH  24  25
HETATM   25  C   UNL     1      -7.989   8.032  66.262  1.00  0.00    -0.105 A  
HETATM   26  C   UNL     1      -8.192   8.457  64.950  1.00  0.00    -0.155 A  
HETATM   27  C   UNL     1     -10.084   9.132  66.876  1.00  0.00    -0.328 A  
HETATM   28  C   UNL     1     -10.296   9.582  65.564  1.00  0.00     0.308 A  
HETATM   29  C   UNL     1      -8.962   8.363  67.216  1.00  0.00    -0.142 A  
HETATM   30  C   UNL     1      -9.352   9.161  64.604  1.00  0.00     0.094 A  
BRANCH  28  31
HETATM   31  C   UNL     1     -11.498  10.392  65.186  1.00  0.00     1.835 A  
HETATM   32  C   UNL     1     -13.849  10.358  64.424  1.00  0.00     9.710 A  
HETATM   33  C   UNL     1     -12.753   9.745  65.042  1.00  0.00    12.882 A  
HETATM   34  C   UNL     1     -13.754  11.671  63.995  1.00  0.00     1.786 A  
HETATM   35  C   UNL     1     -12.575  12.375  64.220  1.00  0.00    -0.494 A  
HETATM   36  C   UNL     1     -11.461  11.759  64.826  1.00  0.00    -0.281 A  
BRANCH  36  37
HETATM   37  C   UNL     1     -10.315  12.655  65.067  1.00  0.00    -0.299 C  
HETATM   38  N   UNL     1      -9.199  12.624  64.415  1.00  0.00     0.706 NA 
HETATM   39  O   UNL     1      -8.411  13.677  64.979  1.00  0.00     3.534 OA 
HETATM   40  C   UNL     1      -9.185  14.259  65.949  1.00  0.00     0.095 C  
HETATM   41  N   UNL     1     -10.368  13.629  65.983  1.00  0.00    -0.297 NA 
HETATM   42  O   UNL     1      -8.842  15.182  66.675  1.00  0.00    -0.258 OA 
ENDBRANCH  36  37
ENDBRANCH  28  31
ENDBRANCH  24  25
ENDBRANCH   8  24
ENDBRANCH   3   4
ENDBRANCH   2   3
TORSDOF 10
ENDMDL
MODEL      275
REMARK 921   NORMALIZED FREE ENERGY PREDICTED BY IDOCK:   38.31 KCAL/MOL
REMARK 922        TOTAL FREE ENERGY PREDICTED BY IDOCK:   57.78 KCAL/MOL
REMARK 923 INTER-LIGAND FREE ENERGY PREDICTED BY IDOCK:   51.75 KCAL/MOL
REMARK 924 INTRA-LIGAND FREE ENERGY PREDICTED BY IDOCK:    6.04 KCAL/MOL
REMARK 927      BINDING AFFINITY PREDICTED BY RF-SCORE:    0.00 PKD
ROOT
HETATM    1  C   UNL     1      -6.876  11.529  65.809  1.00  0.00     0.666 C  
HETATM    2  C   UNL     1      -6.828  10.228  66.591  1.00  0.00    -0.091 C  
ENDROOT
BRANCH   2   3
HETATM    3  O   UNL     1      -5.599  10.156  67.318  1.00  0.00    -0.042 OA 
BRANCH   3   4
HETATM    4  C   UNL     1      -5.754  10.019  68.636  1.00  0.00    -0.038 A  
HETATM    5  N   UNL     1      -5.347  10.877  69.534  1.00  0.00    -0.038 NA 
HETATM    6  C   UNL     1      -5.728  10.345  70.734  1.00  0.00    -0.099 A  
HETATM    7  C   UNL     1      -6.380   9.114  70.580  1.00  0.00    -0.053 A  
HETATM    8  N   UNL     1      -6.419   8.956  69.204  1.00  0.00    -0.043 NA 
HETATM    9  C   UNL     1      -6.815   8.378  71.713  1.00  0.00    -0.084 A  
HETATM   10  C   UNL     1      -6.624   8.967  72.981  1.00  0.00     0.225 A  
HETATM   11  C   UNL     1      -5.558  10.903  72.010  1.00  0.00     0.554 A  
HETATM   12  C   UNL     1      -6.022  10.213  73.128  1.00  0.00     1.032 A  
BRANCH   9  13
HETATM   13  C   UNL     1      -7.536   7.086  71.646  1.00  0.00    -0.089 C  
HETATM   14  O   UNL     1      -7.113   6.051  72.130  1.00  0.00    -0.080 OA 
BRANCH  13  15
HETATM   15  O   UNL     1      -8.677   7.215  70.916  1.00  0.00    -0.143 OA 
BRANCH  15  16
HETATM   16  C   UNL     1      -9.840   6.575  71.465  1.00  0.00    -0.168 C  
BRANCH  16  17
HETATM   17  C   UNL     1     -10.499   7.481  72.445  1.00  0.00    -0.243 C  
HETATM   18  O   UNL     1     -11.746   8.322  74.098  1.00  0.00     3.163 OA 
HETATM   19  C   UNL     1     -11.387   7.207  73.377  1.00  0.00     0.165 C  
HETATM   20  O   UNL     1     -10.202   8.834  72.433  1.00  0.00    -0.293 OA 
HETATM   21  C   UNL     1     -11.937   5.918  73.808  1.00  0.00     2.193 C  
HETATM   22  C   UNL     1     -10.975   9.298  73.492  1.00  0.00     5.089 C  
HETATM   23  O   UNL     1     -10.987  10.469  73.854  1.00  0.00    11.845 OA 
ENDBRANCH  16  17
ENDBRANCH  15  16
ENDBRANCH  13  15
ENDBRANCH   9  13
BRANCH   8  24
HETATM   24  C   UNL     1      -7.194   8.007  68.421  1.00  0.00    -0.089 C  
BRANCH  24  25
HETATM   25  C   UNL     1      -8.146   8.611  67.414  1.00  0.00    -0.102 A  
HETATM   26  C   UNL     1      -8.454   8.036  66.181  1.00  0.00    -0.141 A  
HETATM   27  C   UNL     1      -9.642  10.462  66.854  1.00  0.00    -0.207 A  
HETATM   28  C   UNL     1      -9.951   9.905  65.603  1.00  0.00    -0.353 A  
HETATM   29  C   UNL     1      -8.768   9.823  67.745  1.00  0.00    -0.129 A  
HETATM   30  C   UNL     1      -9.385   8.643  65.329  1.00  0.00     0.073 A  
BRANCH  28  31
HETATM   31  C   UNL     1     -10.894  10.571  64.648  1.00  0.00     0.345 A  
HETATM   32  C   UNL     1     -13.244  10.863  63.940  1.00  0.00     3.588 A  
HETATM   33  C   UNL     1     -12.289  10.524  64.905  1.00  0.00     5.017 A  
HETATM   34  C   UNL     1     -12.837  11.334  62.703  1.00  0.00     1.857 A  
HETATM   35  C   UNL     1     -11.479  11.500  62.452  1.00  0.00     1.798 A  
HETATM   36  C   UNL     1     -10.511  11.145  63.414  1.00  0.00    -0.382 A  
BRANCH  36  37
HETATM   37  C   UNL     1      -9.119  11.451  63.032  1.00  0.00    -0.191 C  
HETATM   38  N   UNL     1      -8.221  10.572  62.732  1.00  0.00    -0.159 NA 
HETATM   39  O   UNL     1      -7.051  11.330  62.415  1.00  0.00     0.068 OA 
HETATM   40  C   UNL     1      -7.397  12.649  62.557  1.00  0.00     5.968 C  
HETATM   41  N   UNL     1      -8.685  12.713  62.924  1.00  0.00     2.670 NA 
HETATM   42  O   UNL     1      -6.648  13.603  62.399  1.00  0.00     8.684 OA 
ENDBRANCH  36  37
ENDBRANCH  28  31
ENDBRANCH  24  25
ENDBRANCH   8  24
ENDBRANCH   3   4
ENDBRANCH   2   3
TORSDOF 10
ENDMDL
MODEL      276
REMARK 921   NORMALIZED FREE ENERGY PREDICTED BY IDOCK:   40.18 KCAL/MOL
REMARK 922        TOTAL FREE ENERGY PREDICTED BY IDOCK:   60.74 KCAL/MOL
REMARK 923 INTER-LIGAND FREE ENERGY PREDICTED BY IDOCK:   23.92 KCAL/MOL
REMARK 924 INTRA-LIGAND FREE ENERGY PREDICTED BY IDOCK:   36.83 KCAL/MOL
REMARK 927      BINDING AFFINITY PREDICTED BY RF-SCORE:    0.00 PKD
ROOT
HETATM    1  C   UNL     1      -8.696   4.073  74.160  1.00  0.00    -0.096 C  
HETATM    2  C   UNL     1      -8.026   4.421  72.843  1.00  0.00    -0.091 C  
ENDROOT
BRANCH   2   3
HETATM    3  O   UNL     1      -8.978   4.313  71.782  1.00  0.00    -0.115 OA 
BRANCH   3   4
HETATM    4  C   UNL     1      -9.681   5.426  71.568  1.00  0.00    -0.159 A  
HETATM    5  N   UNL     1     -10.284   6.125  72.494  1.00  0.00    -0.182 NA 
HETATM    6  C   UNL     1     -10.857   7.175  71.832  1.00  0.00    -0.226 A  
HETATM    7  C   UNL     1     -10.615   7.122  70.452  1.00  0.00    -0.224 A  
HETATM    8  N   UNL     1      -9.812   6.000  70.323  1.00  0.00    -0.174 NA 
HETATM    9  C   UNL     1     -11.164   8.099  69.583  1.00  0.00     0.085 A  
HETATM   10  C   UNL     1     -11.897   9.152  70.172  1.00  0.00     0.125 A  
HETATM   11  C   UNL     1     -11.588   8.238  72.384  1.00  0.00    -0.464 A  
HETATM   12  C   UNL     1     -12.093   9.230  71.547  1.00  0.00    -0.435 A  
BRANCH   9  13
HETATM   13  C   UNL     1     -10.939   8.140  68.119  1.00  0.00     0.213 C  
HETATM   14  O   UNL     1     -11.296   9.062  67.407  1.00  0.00     0.383 OA 
BRANCH  13  15
HETATM   15  O   UNL     1     -10.354   6.987  67.696  1.00  0.00    -0.175 OA 
BRANCH  15  16
HETATM   16  C   UNL     1     -11.213   6.083  66.981  1.00  0.00    -0.002 C  
BRANCH  16  17
HETATM   17  C   UNL     1     -10.603   4.725  66.955  1.00  0.00     0.046 C  
HETATM   18  O   UNL     1     -10.264   2.521  66.812  1.00  0.00     1.211 OA 
HETATM   19  C   UNL     1     -11.174   3.552  66.788  1.00  0.00     5.376 C  
HETATM   20  O   UNL     1      -9.238   4.584  67.143  1.00  0.00    -0.121 OA 
HETATM   21  C   UNL     1     -12.569   3.215  66.482  1.00  0.00    19.093 C  
HETATM   22  C   UNL     1      -9.080   3.208  67.014  1.00  0.00    -0.175 C  
HETATM   23  O   UNL     1      -7.994   2.646  67.084  1.00  0.00    -0.073 OA 
ENDBRANCH  16  17
ENDBRANCH  15  16
ENDBRANCH  13  15
ENDBRANCH   9  13
BRANCH   8  24
HETATM   24  C   UNL     1      -9.026   5.573  69.177  1.00  0.00    -0.108 C  
BRANCH  24  25
HETATM   25  C   UNL     1      -8.927   6.568  68.043  1.00  0.00    -0.116 A  
HETATM   26  C   UNL     1      -9.109   6.246  66.699  1.00  0.00    -0.152 A  
HETATM   27  C   UNL     1      -8.508   8.880  67.369  1.00  0.00    -0.115 A  
HETATM   28  C   UNL     1      -8.673   8.571  66.010  1.00  0.00    -0.188 A  
HETATM   29  C   UNL     1      -8.645   7.903  68.365  1.00  0.00    -0.128 A  
HETATM   30  C   UNL     1      -9.045   7.242  65.717  1.00  0.00     0.005 A  
BRANCH  28  31
HETATM   31  C   UNL     1      -8.545   9.609  64.937  1.00  0.00    -0.188 A  
HETATM   32  C   UNL     1      -7.821  10.108  62.628  1.00  0.00    -0.148 A  
HETATM   33  C   UNL     1      -8.235   9.204  63.613  1.00  0.00    -0.174 A  
HETATM   34  C   UNL     1      -7.774  11.462  62.910  1.00  0.00     0.670 A  
HETATM   35  C   UNL     1      -8.178  11.910  64.163  1.00  0.00     2.000 A  
HETATM   36  C   UNL     1      -8.580  11.004  65.167  1.00  0.00    -0.015 A  
BRANCH  36  37
HETATM   37  C   UNL     1      -9.052  11.634  66.414  1.00  0.00    -0.206 C  
HETATM   38  N   UNL     1      -8.862  11.163  67.602  1.00  0.00    -0.135 NA 
HETATM   39  O   UNL     1      -9.473  12.112  68.480  1.00  0.00    -0.193 OA 
HETATM   40  C   UNL     1      -9.980  13.104  67.682  1.00  0.00    -0.219 C  
HETATM   41  N   UNL     1      -9.699  12.806  66.405  1.00  0.00    -0.257 NA 
HETATM   42  O   UNL     1     -10.603  14.082  68.069  1.00  0.00    -0.239 OA 
ENDBRANCH  36  37
ENDBRANCH  28  31
ENDBRANCH  24  25
ENDBRANCH   8  24
ENDBRANCH   3   4
ENDBRANCH   2   3
TORSDOF 10
ENDMDL
MODEL      277
REMARK 921   NORMALIZED FREE ENERGY PREDICTED BY IDOCK:   40.64 KCAL/MOL
REMARK 922        TOTAL FREE ENERGY PREDICTED BY IDOCK:   61.48 KCAL/MOL
REMARK 923 INTER-LIGAND FREE ENERGY PREDICTED BY IDOCK:   19.10 KCAL/MOL
REMARK 924 INTRA-LIGAND FREE ENERGY PREDICTED BY IDOCK:   42.38 KCAL/MOL
REMARK 927      BINDING AFFINITY PREDICTED BY RF-SCORE:    0.00 PKD
ROOT
HETATM    1  C   UNL     1     -13.182   8.929  69.210  1.00  0.00     5.277 C  
HETATM    2  C   UNL     1     -13.316  10.370  68.750  1.00  0.00     4.814 C  
ENDROOT
BRANCH   2   3
HETATM    3  O   UNL     1     -12.843  10.485  67.406  1.00  0.00     4.216 OA 
BRANCH   3   4
HETATM    4  C   UNL     1     -11.547  10.781  67.309  1.00  0.00     0.259 A  
HETATM    5  N   UNL     1     -10.583   9.905  67.188  1.00  0.00    -0.244 NA 
HETATM    6  C   UNL     1      -9.437  10.646  67.107  1.00  0.00    -0.156 A  
HETATM    7  C   UNL     1      -9.693  12.022  67.193  1.00  0.00    -0.197 A  
HETATM    8  N   UNL     1     -11.074  12.074  67.278  1.00  0.00    -0.268 NA 
HETATM    9  C   UNL     1      -8.627  12.959  67.174  1.00  0.00    -0.198 A  
HETATM   10  C   UNL     1      -7.322  12.453  66.997  1.00  0.00    -0.016 A  
HETATM   11  C   UNL     1      -8.126  10.178  66.928  1.00  0.00    -0.121 A  
HETATM   12  C   UNL     1      -7.075  11.090  66.860  1.00  0.00    -0.125 A  
BRANCH   9  13
HETATM   13  C   UNL     1      -8.803  14.429  67.231  1.00  0.00    -0.213 C  
HETATM   14  O   UNL     1      -8.161  15.212  66.553  1.00  0.00    -0.150 OA 
BRANCH  13  15
HETATM   15  O   UNL     1      -9.714  14.762  68.185  1.00  0.00    -0.209 OA 
BRANCH  15  16
HETATM   16  C   UNL     1      -9.762  13.890  69.327  1.00  0.00     0.362 C  
BRANCH  16  17
HETATM   17  C   UNL     1     -11.155  13.822  69.849  1.00  0.00     0.103 C  
HETATM   18  O   UNL     1     -13.030  13.219  70.904  1.00  0.00    -0.214 OA 
HETATM   19  C   UNL     1     -11.715  12.923  70.629  1.00  0.00     0.254 C  
HETATM   20  O   UNL     1     -12.067  14.802  69.495  1.00  0.00    -0.307 OA 
HETATM   21  C   UNL     1     -11.129  11.761  71.306  1.00  0.00     3.225 C  
HETATM   22  C   UNL     1     -13.197  14.398  70.198  1.00  0.00     0.335 C  
HETATM   23  O   UNL     1     -14.253  15.018  70.189  1.00  0.00     1.042 OA 
ENDBRANCH  16  17
ENDBRANCH  15  16
ENDBRANCH  13  15
ENDBRANCH   9  13
BRANCH   8  24
HETATM   24  C   UNL     1     -11.951  13.224  67.130  1.00  0.00    -0.348 C  
BRANCH  24  25
HETATM   25  C   UNL     1     -11.310  14.572  67.370  1.00  0.00    -0.370 A  
HETATM   26  C   UNL     1     -10.681  14.942  68.558  1.00  0.00    -0.245 A  
HETATM   27  C   UNL     1     -10.792  16.788  66.479  1.00  0.00     0.006 A  
HETATM   28  C   UNL     1     -10.170  17.184  67.673  1.00  0.00    -0.329 A  
HETATM   29  C   UNL     1     -11.339  15.507  66.326  1.00  0.00    -0.004 A  
HETATM   30  C   UNL     1     -10.072  16.198  68.677  1.00  0.00    -0.231 A  
BRANCH  28  31
HETATM   31  C   UNL     1      -9.568  18.545  67.843  1.00  0.00    -0.323 A  
HETATM   32  C   UNL     1      -9.964  20.915  68.423  1.00  0.00     0.374 A  
HETATM   33  C   UNL     1     -10.326  19.564  68.477  1.00  0.00    -0.436 A  
HETATM   34  C   UNL     1      -8.788  21.289  67.797  1.00  0.00     0.410 A  
HETATM   35  C   UNL     1      -7.961  20.307  67.260  1.00  0.00    -0.378 A  
HETATM   36  C   UNL     1      -8.327  18.946  67.296  1.00  0.00    -0.288 A  
BRANCH  36  37
HETATM   37  C   UNL     1      -7.314  18.019  66.757  1.00  0.00    -0.204 C  
HETATM   38  N   UNL     1      -6.738  17.077  67.428  1.00  0.00    -0.139 NA 
HETATM   39  O   UNL     1      -5.860  16.441  66.496  1.00  0.00    -0.267 OA 
HETATM   40  C   UNL     1      -6.021  17.099  65.304  1.00  0.00     1.725 C  
HETATM   41  N   UNL     1      -6.937  18.064  65.474  1.00  0.00    -0.484 NA 
HETATM   42  O   UNL     1      -5.415  16.860  64.270  1.00  0.00     3.159 OA 
ENDBRANCH  36  37
ENDBRANCH  28  31
ENDBRANCH  24  25
ENDBRANCH   8  24
ENDBRANCH   3   4
ENDBRANCH   2   3
TORSDOF 10
ENDMDL
MODEL      278
REMARK 921   NORMALIZED FREE ENERGY PREDICTED BY IDOCK:   47.84 KCAL/MOL
REMARK 922        TOTAL FREE ENERGY PREDICTED BY IDOCK:   72.88 KCAL/MOL
REMARK 923 INTER-LIGAND FREE ENERGY PREDICTED BY IDOCK:   58.47 KCAL/MOL
REMARK 924 INTRA-LIGAND FREE ENERGY PREDICTED BY IDOCK:   14.41 KCAL/MOL
REMARK 927      BINDING AFFINITY PREDICTED BY RF-SCORE:    0.00 PKD
ROOT
HETATM    1  C   UNL     1      -6.780  19.239  64.621  1.00  0.00     0.341 C  
HETATM    2  C   UNL     1      -7.895  18.232  64.844  1.00  0.00     3.012 C  
ENDROOT
BRANCH   2   3
HETATM    3  O   UNL     1      -8.079  18.031  66.247  1.00  0.00    -0.337 OA 
BRANCH   3   4
HETATM    4  C   UNL     1      -9.357  17.948  66.620  1.00  0.00    -0.286 A  
HETATM    5  N   UNL     1     -10.080  18.947  67.056  1.00  0.00    -0.332 NA 
HETATM    6  C   UNL     1     -11.313  18.413  67.301  1.00  0.00     0.672 A  
HETATM    7  C   UNL     1     -11.358  17.039  67.023  1.00  0.00     0.582 A  
HETATM    8  N   UNL     1     -10.085  16.782  66.542  1.00  0.00    -0.303 NA 
HETATM    9  C   UNL     1     -12.540  16.291  67.256  1.00  0.00     2.809 A  
HETATM   10  C   UNL     1     -13.676  16.997  67.709  1.00  0.00     8.280 A  
HETATM   11  C   UNL     1     -12.463  19.084  67.747  1.00  0.00     4.793 A  
HETATM   12  C   UNL     1     -13.644  18.370  67.936  1.00  0.00     9.676 A  
BRANCH   9  13
HETATM   13  C   UNL     1     -12.689  14.846  66.966  1.00  0.00     1.183 C  
HETATM   14  O   UNL     1     -12.172  14.293  66.011  1.00  0.00    -0.421 OA 
BRANCH  13  15
HETATM   15  O   UNL     1     -13.529  14.265  67.864  1.00  0.00     3.033 OA 
BRANCH  15  16
HETATM   16  C   UNL     1     -14.244  15.171  68.721  1.00  0.00     8.568 C  
BRANCH  16  17
HETATM   17  C   UNL     1     -13.419  15.488  69.918  1.00  0.00     0.994 C  
HETATM   18  O   UNL     1     -12.389  15.423  71.901  1.00  0.00    -0.313 OA 
HETATM   19  C   UNL     1     -13.247  14.798  71.026  1.00  0.00    -0.380 C  
HETATM   20  O   UNL     1     -12.707  16.675  69.964  1.00  0.00     1.118 OA 
HETATM   21  C   UNL     1     -13.732  13.464  71.393  1.00  0.00     0.018 C  
HETATM   22  C   UNL     1     -12.066  16.568  71.194  1.00  0.00     0.463 C  
HETATM   23  O   UNL     1     -11.293  17.415  71.626  1.00  0.00     0.726 OA 
ENDBRANCH  16  17
ENDBRANCH  15  16
ENDBRANCH  13  15
ENDBRANCH   9  13
BRANCH   8  24
HETATM   24  C   UNL     1      -9.599  15.600  65.847  1.00  0.00    -0.350 C  
BRANCH  24  25
HETATM   25  C   UNL     1     -10.022  14.273  66.435  1.00  0.00    -0.302 A  
HETATM   26  C   UNL     1      -9.874  13.926  67.778  1.00  0.00    -0.237 A  
HETATM   27  C   UNL     1     -11.007  12.072  66.039  1.00  0.00    -0.346 A  
HETATM   28  C   UNL     1     -10.851  11.699  67.383  1.00  0.00    -0.298 A  
HETATM   29  C   UNL     1     -10.613  13.335  65.577  1.00  0.00    -0.295 A  
HETATM   30  C   UNL     1     -10.339  12.690  68.245  1.00  0.00    -0.246 A  
BRANCH  28  31
HETATM   31  C   UNL     1     -11.283  10.357  67.891  1.00  0.00    -0.332 A  
HETATM   32  C   UNL     1     -11.964   9.019  69.853  1.00  0.00     0.530 A  
HETATM   33  C   UNL     1     -11.807  10.249  69.205  1.00  0.00    -0.081 A  
HETATM   34  C   UNL     1     -11.672   7.843  69.182  1.00  0.00     1.130 A  
HETATM   35  C   UNL     1     -11.262   7.903  67.854  1.00  0.00     0.490 A  
HETATM   36  C   UNL     1     -11.086   9.140  67.200  1.00  0.00     0.309 A  
BRANCH  36  37
HETATM   37  C   UNL     1     -10.722   9.038  65.774  1.00  0.00     1.653 C  
HETATM   38  N   UNL     1     -10.014   8.091  65.254  1.00  0.00     1.426 NA 
HETATM   39  O   UNL     1      -9.943   8.403  63.860  1.00  0.00     3.155 OA 
HETATM   40  C   UNL     1     -10.662   9.556  63.687  1.00  0.00     4.714 C  
HETATM   41  N   UNL     1     -11.155   9.932  64.876  1.00  0.00     2.105 NA 
HETATM   42  O   UNL     1     -10.809  10.153  62.629  1.00  0.00     1.555 OA 
ENDBRANCH  36  37
ENDBRANCH  28  31
ENDBRANCH  24  25
ENDBRANCH   8  24
ENDBRANCH   3   4
ENDBRANCH   2   3
TORSDOF 10
ENDMDL
MODEL      279
REMARK 921   NORMALIZED FREE ENERGY PREDICTED BY IDOCK:   50.57 KCAL/MOL
REMARK 922        TOTAL FREE ENERGY PREDICTED BY IDOCK:   77.21 KCAL/MOL
REMARK 923 INTER-LIGAND FREE ENERGY PREDICTED BY IDOCK:   33.07 KCAL/MOL
REMARK 924 INTRA-LIGAND FREE ENERGY PREDICTED BY IDOCK:   44.14 KCAL/MOL
REMARK 927      BINDING AFFINITY PREDICTED BY RF-SCORE:    0.00 PKD
ROOT
HETATM    1  C   UNL     1     -13.168   9.697  67.847  1.00  0.00    11.200 C  
HETATM    2  C   UNL     1     -11.757   9.823  68.396  1.00  0.00     0.728 C  
ENDROOT
BRANCH   2   3
HETATM    3  O   UNL     1     -11.091  10.910  67.749  1.00  0.00    -0.265 OA 
BRANCH   3   4
HETATM    4  C   UNL     1     -10.261  10.537  66.774  1.00  0.00    -0.234 A  
HETATM    5  N   UNL     1      -9.869   9.309  66.550  1.00  0.00    -0.241 NA 
HETATM    6  C   UNL     1      -9.050   9.392  65.458  1.00  0.00    -0.218 A  
HETATM    7  C   UNL     1      -8.918  10.709  64.998  1.00  0.00    -0.199 A  
HETATM    8  N   UNL     1      -9.752  11.417  65.847  1.00  0.00    -0.218 NA 
HETATM    9  C   UNL     1      -8.073  11.010  63.899  1.00  0.00     0.419 A  
HETATM   10  C   UNL     1      -7.433   9.928  63.257  1.00  0.00    -0.131 A  
HETATM   11  C   UNL     1      -8.403   8.339  64.793  1.00  0.00    -0.129 A  
HETATM   12  C   UNL     1      -7.607   8.615  63.684  1.00  0.00    -0.127 A  
BRANCH   9  13
HETATM   13  C   UNL     1      -7.894  12.364  63.325  1.00  0.00     4.772 C  
HETATM   14  O   UNL     1      -7.174  12.604  62.372  1.00  0.00     3.134 OA 
BRANCH  13  15
HETATM   15  O   UNL     1      -8.579  13.284  64.057  1.00  0.00     3.538 OA 
BRANCH  15  16
HETATM   16  C   UNL     1      -8.081  13.518  65.384  1.00  0.00     4.340 C  
BRANCH  16  17
HETATM   17  C   UNL     1      -8.872  14.597  66.036  1.00  0.00     0.327 C  
HETATM   18  O   UNL     1     -10.527  15.880  66.817  1.00  0.00    -0.301 OA 
HETATM   19  C   UNL     1     -10.177  14.753  66.111  1.00  0.00    -0.297 C  
HETATM   20  O   UNL     1      -8.216  15.642  66.666  1.00  0.00    -0.257 OA 
HETATM   21  C   UNL     1     -11.261  13.871  65.664  1.00  0.00    -0.306 C  
HETATM   22  C   UNL     1      -9.284  16.386  67.155  1.00  0.00    -0.213 C  
HETATM   23  O   UNL     1      -9.146  17.407  67.819  1.00  0.00    -0.238 OA 
ENDBRANCH  16  17
ENDBRANCH  15  16
ENDBRANCH  13  15
ENDBRANCH   9  13
BRANCH   8  24
HETATM   24  C   UNL     1     -10.238  12.781  65.712  1.00  0.00    -0.289 C  
BRANCH  24  25
HETATM   25  C   UNL     1     -10.962  13.341  66.916  1.00  0.00    -0.298 A  
HETATM   26  C   UNL     1     -11.748  14.493  66.893  1.00  0.00    -0.399 A  
HETATM   27  C   UNL     1     -11.464  13.120  69.298  1.00  0.00    -0.348 A  
HETATM   28  C   UNL     1     -12.245  14.286  69.297  1.00  0.00    -0.289 A  
HETATM   29  C   UNL     1     -10.847  12.650  68.130  1.00  0.00    -0.250 A  
HETATM   30  C   UNL     1     -12.421  14.914  68.047  1.00  0.00     0.434 A  
BRANCH  28  31
HETATM   31  C   UNL     1     -12.922  14.789  70.536  1.00  0.00    -0.336 A  
HETATM   32  C   UNL     1     -13.628  16.766  71.839  1.00  0.00     4.055 A  
HETATM   33  C   UNL     1     -13.262  16.163  70.631  1.00  0.00     1.352 A  
HETATM   34  C   UNL     1     -13.741  15.999  72.986  1.00  0.00    -0.470 A  
HETATM   35  C   UNL     1     -13.524  14.627  72.910  1.00  0.00    -0.528 A  
HETATM   36  C   UNL     1     -13.138  14.016  71.699  1.00  0.00    -0.435 A  
BRANCH  36  37
HETATM   37  C   UNL     1     -13.021  12.547  71.760  1.00  0.00    -0.313 C  
HETATM   38  N   UNL     1     -13.834  11.713  71.199  1.00  0.00     1.229 NA 
HETATM   39  O   UNL     1     -13.312  10.418  71.512  1.00  0.00    -0.361 OA 
HETATM   40  C   UNL     1     -12.180  10.629  72.254  1.00  0.00     1.060 C  
HETATM   41  N   UNL     1     -12.000  11.951  72.388  1.00  0.00     2.586 NA 
HETATM   42  O   UNL     1     -11.469   9.757  72.733  1.00  0.00     1.589 OA 
ENDBRANCH  36  37
ENDBRANCH  28  31
ENDBRANCH  24  25
ENDBRANCH   8  24
ENDBRANCH   3   4
ENDBRANCH   2   3
TORSDOF 10
ENDMDL
MODEL      280
REMARK 921   NORMALIZED FREE ENERGY PREDICTED BY IDOCK:   51.08 KCAL/MOL
REMARK 922        TOTAL FREE ENERGY PREDICTED BY IDOCK:   78.02 KCAL/MOL
REMARK 923 INTER-LIGAND FREE ENERGY PREDICTED BY IDOCK:   71.48 KCAL/MOL
REMARK 924 INTRA-LIGAND FREE ENERGY PREDICTED BY IDOCK:    6.54 KCAL/MOL
REMARK 927      BINDING AFFINITY PREDICTED BY RF-SCORE:    0.00 PKD
ROOT
HETATM    1  C   UNL     1      -7.018  18.252  72.213  1.00  0.00     5.853 C  
HETATM    2  C   UNL     1      -8.022  17.182  71.821  1.00  0.00    10.954 C  
ENDROOT
BRANCH   2   3
HETATM    3  O   UNL     1      -8.892  16.919  72.925  1.00  0.00    14.135 OA 
BRANCH   3   4
HETATM    4  C   UNL     1      -9.971  16.203  72.607  1.00  0.00     6.678 A  
HETATM    5  N   UNL     1     -11.207  16.609  72.737  1.00  0.00     0.799 NA 
HETATM    6  C   UNL     1     -11.972  15.572  72.280  1.00  0.00    -0.450 A  
HETATM    7  C   UNL     1     -11.190  14.485  71.865  1.00  0.00     0.865 A  
HETATM    8  N   UNL     1      -9.898  14.947  72.049  1.00  0.00     3.047 NA 
HETATM    9  C   UNL     1     -11.800  13.291  71.399  1.00  0.00     0.779 A  
HETATM   10  C   UNL     1     -13.208  13.275  71.309  1.00  0.00    -0.226 A  
HETATM   11  C   UNL     1     -13.371  15.523  72.173  1.00  0.00    -0.561 A  
HETATM   12  C   UNL     1     -13.980  14.374  71.673  1.00  0.00    -0.506 A  
BRANCH   9  13
HETATM   13  C   UNL     1     -11.057  12.105  70.914  1.00  0.00     2.498 C  
HETATM   14  O   UNL     1      -9.925  11.826  71.268  1.00  0.00     6.204 OA 
BRANCH  13  15
HETATM   15  O   UNL     1     -11.787  11.436  69.981  1.00  0.00    -0.305 OA 
BRANCH  15  16
HETATM   16  C   UNL     1     -12.743  10.497  70.499  1.00  0.00    -0.305 C  
BRANCH  16  17
HETATM   17  C   UNL     1     -12.033   9.369  71.163  1.00  0.00    -0.337 C  
HETATM   18  O   UNL     1     -10.877   8.096  72.591  1.00  0.00    -0.337 OA 
HETATM   19  C   UNL     1     -11.395   9.340  72.313  1.00  0.00     0.182 C  
HETATM   20  O   UNL     1     -11.971   8.136  70.536  1.00  0.00    -0.114 OA 
HETATM   21  C   UNL     1     -11.262  10.373  73.346  1.00  0.00    10.083 C  
HETATM   22  C   UNL     1     -11.274   7.382  71.474  1.00  0.00    -0.243 C  
HETATM   23  O   UNL     1     -11.020   6.192  71.327  1.00  0.00    -0.260 OA 
ENDBRANCH  16  17
ENDBRANCH  15  16
ENDBRANCH  13  15
ENDBRANCH   9  13
BRANCH   8  24
HETATM   24  C   UNL     1      -8.652  14.379  71.559  1.00  0.00     5.656 C  
BRANCH  24  25
HETATM   25  C   UNL     1      -8.646  13.970  70.103  1.00  0.00     2.104 A  
HETATM   26  C   UNL     1      -9.286  14.678  69.086  1.00  0.00    -0.051 A  
HETATM   27  C   UNL     1      -7.911  12.349  68.428  1.00  0.00    -0.149 A  
HETATM   28  C   UNL     1      -8.563  13.040  67.394  1.00  0.00    -0.199 A  
HETATM   29  C   UNL     1      -7.942  12.811  69.751  1.00  0.00     1.733 A  
HETATM   30  C   UNL     1      -9.189  14.251  67.756  1.00  0.00    -0.194 A  
BRANCH  28  31
HETATM   31  C   UNL     1      -8.525  12.565  65.974  1.00  0.00     0.611 A  
HETATM   32  C   UNL     1      -9.326  12.914  63.662  1.00  0.00     1.921 A  
HETATM   33  C   UNL     1      -9.063  13.389  64.952  1.00  0.00     1.593 A  
HETATM   34  C   UNL     1      -8.990  11.614  63.324  1.00  0.00     0.135 A  
HETATM   35  C   UNL     1      -8.358  10.809  64.266  1.00  0.00     0.065 A  
HETATM   36  C   UNL     1      -8.105  11.275  65.573  1.00  0.00     0.250 A  
BRANCH  36  37
HETATM   37  C   UNL     1      -7.361  10.335  66.431  1.00  0.00    -0.114 C  
HETATM   38  N   UNL     1      -6.994   9.145  66.086  1.00  0.00    -0.084 NA 
HETATM   39  O   UNL     1      -6.296   8.627  67.221  1.00  0.00    -0.055 OA 
HETATM   40  C   UNL     1      -6.313   9.618  68.168  1.00  0.00    -0.056 C  
HETATM   41  N   UNL     1      -6.961  10.677  67.662  1.00  0.00    -0.078 NA 
HETATM   42  O   UNL     1      -5.838   9.538  69.292  1.00  0.00    -0.035 OA 
ENDBRANCH  36  37
ENDBRANCH  28  31
ENDBRANCH  24  25
ENDBRANCH   8  24
ENDBRANCH   3   4
ENDBRANCH   2   3
TORSDOF 10
ENDMDL
MODEL      281
REMARK 921   NORMALIZED FREE ENERGY PREDICTED BY IDOCK:   51.53 KCAL/MOL
REMARK 922        TOTAL FREE ENERGY PREDICTED BY IDOCK:   78.73 KCAL/MOL
REMARK 923 INTER-LIGAND FREE ENERGY PREDICTED BY IDOCK:   29.21 KCAL/MOL
REMARK 924 INTRA-LIGAND FREE ENERGY PREDICTED BY IDOCK:   49.52 KCAL/MOL
REMARK 927      BINDING AFFINITY PREDICTED BY RF-SCORE:    0.00 PKD
ROOT
HETATM    1  C   UNL     1      -6.876  11.529  65.809  1.00  0.00     0.666 C  
HETATM    2  C   UNL     1      -6.828  10.228  66.591  1.00  0.00    -0.091 C  
ENDROOT
BRANCH   2   3
HETATM    3  O   UNL     1      -5.599  10.156  67.318  1.00  0.00    -0.042 OA 
BRANCH   3   4
HETATM    4  C   UNL     1      -5.754  10.019  68.636  1.00  0.00    -0.038 A  
HETATM    5  N   UNL     1      -5.347  10.877  69.534  1.00  0.00    -0.038 NA 
HETATM    6  C   UNL     1      -5.728  10.345  70.734  1.00  0.00    -0.099 A  
HETATM    7  C   UNL     1      -6.380   9.114  70.580  1.00  0.00    -0.053 A  
HETATM    8  N   UNL     1      -6.419   8.956  69.204  1.00  0.00    -0.043 NA 
HETATM    9  C   UNL     1      -6.815   8.378  71.713  1.00  0.00    -0.084 A  
HETATM   10  C   UNL     1      -6.624   8.967  72.981  1.00  0.00     0.225 A  
HETATM   11  C   UNL     1      -5.558  10.903  72.010  1.00  0.00     0.554 A  
HETATM   12  C   UNL     1      -6.022  10.213  73.128  1.00  0.00     1.032 A  
BRANCH   9  13
HETATM   13  C   UNL     1      -7.536   7.086  71.646  1.00  0.00    -0.089 C  
HETATM   14  O   UNL     1      -7.113   6.051  72.130  1.00  0.00    -0.080 OA 
BRANCH  13  15
HETATM   15  O   UNL     1      -8.677   7.215  70.916  1.00  0.00    -0.143 OA 
BRANCH  15  16
HETATM   16  C   UNL     1      -8.508   7.744  69.591  1.00  0.00    -0.133 C  
BRANCH  16  17
HETATM   17  C   UNL     1      -8.165   6.643  68.650  1.00  0.00    -0.119 C  
HETATM   18  O   UNL     1      -7.463   5.454  66.892  1.00  0.00    -0.085 OA 
HETATM   19  C   UNL     1      -7.647   6.702  67.442  1.00  0.00    -0.104 C  
HETATM   20  O   UNL     1      -8.413   5.330  69.014  1.00  0.00    -0.094 OA 
HETATM   21  C   UNL     1      -7.156   7.855  66.680  1.00  0.00    -0.076 C  
HETATM   22  C   UNL     1      -7.932   4.639  67.907  1.00  0.00    -0.089 C  
HETATM   23  O   UNL     1      -7.932   3.416  67.824  1.00  0.00    -0.078 OA 
ENDBRANCH  16  17
ENDBRANCH  15  16
ENDBRANCH  13  15
ENDBRANCH   9  13
BRANCH   8  24
HETATM   24  C   UNL     1      -7.194   8.007  68.421  1.00  0.00    -0.089 C  
BRANCH  24  25
HETATM   25  C   UNL     1      -8.146   8.611  67.414  1.00  0.00    -0.102 A  
HETATM   26  C   UNL     1      -8.454   8.036  66.181  1.00  0.00    -0.141 A  
HETATM   27  C   UNL     1      -9.642  10.462  66.854  1.00  0.00    -0.207 A  
HETATM   28  C   UNL     1      -9.951   9.905  65.603  1.00  0.00    -0.353 A  
HETATM   29  C   UNL     1      -8.768   9.823  67.745  1.00  0.00    -0.129 A  
HETATM   30  C   UNL     1      -9.385   8.643  65.329  1.00  0.00     0.073 A  
BRANCH  28  31
HETATM   31  C   UNL     1     -10.894  10.571  64.648  1.00  0.00     0.345 A  
HETATM   32  C   UNL     1     -13.244  10.863  63.940  1.00  0.00     3.588 A  
HETATM   33  C   UNL     1     -12.289  10.524  64.905  1.00  0.00     5.017 A  
HETATM   34  C   UNL     1     -12.837  11.334  62.703  1.00  0.00     1.857 A  
HETATM   35  C   UNL     1     -11.479  11.500  62.452  1.00  0.00     1.798 A  
HETATM   36  C   UNL     1     -10.511  11.145  63.414  1.00  0.00    -0.382 A  
BRANCH  36  37
HETATM   37  C   UNL     1      -9.119  11.451  63.032  1.00  0.00    -0.191 C  
HETATM   38  N   UNL     1      -8.221  10.572  62.732  1.00  0.00    -0.159 NA 
HETATM   39  O   UNL     1      -7.051  11.330  62.415  1.00  0.00     0.068 OA 
HETATM   40  C   UNL     1      -7.397  12.649  62.557  1.00  0.00     5.968 C  
HETATM   41  N   UNL     1      -8.685  12.713  62.924  1.00  0.00     2.670 NA 
HETATM   42  O   UNL     1      -6.648  13.603  62.399  1.00  0.00     8.684 OA 
ENDBRANCH  36  37
ENDBRANCH  28  31
ENDBRANCH  24  25
ENDBRANCH   8  24
ENDBRANCH   3   4
ENDBRANCH   2   3
TORSDOF 10
ENDMDL
MODEL      282
REMARK 921   NORMALIZED FREE ENERGY PREDICTED BY IDOCK:   55.75 KCAL/MOL
REMARK 922        TOTAL FREE ENERGY PREDICTED BY IDOCK:   85.41 KCAL/MOL
REMARK 923 INTER-LIGAND FREE ENERGY PREDICTED BY IDOCK:   50.39 KCAL/MOL
REMARK 924 INTRA-LIGAND FREE ENERGY PREDICTED BY IDOCK:   35.02 KCAL/MOL
REMARK 927      BINDING AFFINITY PREDICTED BY RF-SCORE:    0.00 PKD
ROOT
HETATM    1  C   UNL     1      -6.817  19.444  64.492  1.00  0.00     0.666 C  
HETATM    2  C   UNL     1      -7.924  18.443  64.771  1.00  0.00     3.772 C  
ENDROOT
BRANCH   2   3
HETATM    3  O   UNL     1      -8.072  18.280  66.184  1.00  0.00    -0.410 OA 
BRANCH   3   4
HETATM    4  C   UNL     1      -9.289  17.887  66.561  1.00  0.00    -0.280 A  
HETATM    5  N   UNL     1     -10.210  18.668  67.062  1.00  0.00    -0.359 NA 
HETATM    6  C   UNL     1     -11.285  17.853  67.283  1.00  0.00     0.402 A  
HETATM    7  C   UNL     1     -11.022  16.524  66.922  1.00  0.00     0.023 A  
HETATM    8  N   UNL     1      -9.735  16.592  66.417  1.00  0.00    -0.270 NA 
HETATM    9  C   UNL     1     -12.000  15.514  67.118  1.00  0.00     0.438 A  
HETATM   10  C   UNL     1     -13.255  15.916  67.622  1.00  0.00     4.322 A  
HETATM   11  C   UNL     1     -12.547  18.218  67.778  1.00  0.00     5.546 A  
HETATM   12  C   UNL     1     -13.531  17.244  67.931  1.00  0.00     7.642 A  
BRANCH   9  13
HETATM   13  C   UNL     1     -11.822  14.093  66.741  1.00  0.00    -0.425 C  
HETATM   14  O   UNL     1     -11.497  13.726  65.625  1.00  0.00    -0.304 OA 
BRANCH  13  15
HETATM   15  O   UNL     1     -12.143  13.281  67.784  1.00  0.00    -0.331 OA 
BRANCH  15  16
HETATM   16  C   UNL     1     -11.323  13.425  68.956  1.00  0.00    -0.287 C  
BRANCH  16  17
HETATM   17  C   UNL     1     -10.397  12.265  69.069  1.00  0.00     0.038 C  
HETATM   18  O   UNL     1      -9.517  10.238  69.404  1.00  0.00    -0.207 OA 
HETATM   19  C   UNL     1     -10.642  11.029  69.447  1.00  0.00    -0.174 C  
HETATM   20  O   UNL     1      -9.056  12.429  68.764  1.00  0.00    -0.022 OA 
HETATM   21  C   UNL     1     -11.912  10.379  69.787  1.00  0.00    -0.242 C  
HETATM   22  C   UNL     1      -8.567  11.141  68.959  1.00  0.00    -0.024 C  
HETATM   23  O   UNL     1      -7.399  10.828  68.766  1.00  0.00    -0.088 OA 
ENDBRANCH  16  17
ENDBRANCH  15  16
ENDBRANCH  13  15
ENDBRANCH   9  13
BRANCH   8  24
HETATM   24  C   UNL     1      -9.008  15.594  65.648  1.00  0.00     0.234 C  
BRANCH  24  25
HETATM   25  C   UNL     1      -9.550  14.185  65.723  1.00  0.00    -0.165 A  
HETATM   26  C   UNL     1     -10.760  13.841  66.325  1.00  0.00    -0.285 A  
HETATM   27  C   UNL     1      -9.213  11.824  65.190  1.00  0.00     0.062 A  
HETATM   28  C   UNL     1     -10.420  11.456  65.806  1.00  0.00    -0.314 A  
HETATM   29  C   UNL     1      -8.794  13.160  65.138  1.00  0.00     1.765 A  
HETATM   30  C   UNL     1     -11.207  12.514  66.307  1.00  0.00    -0.359 A  
BRANCH  28  31
HETATM   31  C   UNL     1     -10.887  10.034  65.854  1.00  0.00     0.317 A  
HETATM   32  C   UNL     1     -12.816   8.504  66.066  1.00  0.00    16.977 A  
HETATM   33  C   UNL     1     -12.274   9.754  65.749  1.00  0.00     7.976 A  
HETATM   34  C   UNL     1     -11.979   7.461  66.428  1.00  0.00     5.162 A  
HETATM   35  C   UNL     1     -10.603   7.665  66.434  1.00  0.00     0.400 A  
HETATM   36  C   UNL     1     -10.051   8.927  66.133  1.00  0.00    -0.209 A  
BRANCH  36  37
HETATM   37  C   UNL     1      -8.577   8.966  66.106  1.00  0.00    -0.140 C  
HETATM   38  N   UNL     1      -7.801   8.125  66.706  1.00  0.00    -0.094 NA 
HETATM   39  O   UNL     1      -6.474   8.548  66.381  1.00  0.00    -0.057 OA 
HETATM   40  C   UNL     1      -6.607   9.646  65.573  1.00  0.00    -0.080 C  
HETATM   41  N   UNL     1      -7.914   9.886  65.395  1.00  0.00    -0.128 NA 
HETATM   42  O   UNL     1      -5.687  10.308  65.112  1.00  0.00    -0.098 OA 
ENDBRANCH  36  37
ENDBRANCH  28  31
ENDBRANCH  24  25
ENDBRANCH   8  24
ENDBRANCH   3   4
ENDBRANCH   2   3
TORSDOF 10
ENDMDL
MODEL      283
REMARK 921   NORMALIZED FREE ENERGY PREDICTED BY IDOCK:   63.84 KCAL/MOL
REMARK 922        TOTAL FREE ENERGY PREDICTED BY IDOCK:   98.25 KCAL/MOL
REMARK 923 INTER-LIGAND FREE ENERGY PREDICTED BY IDOCK:   34.31 KCAL/MOL
REMARK 924 INTRA-LIGAND FREE ENERGY PREDICTED BY IDOCK:   63.94 KCAL/MOL
REMARK 927      BINDING AFFINITY PREDICTED BY RF-SCORE:    0.00 PKD
ROOT
HETATM    1  C   UNL     1     -13.187   8.925  69.205  1.00  0.00     5.277 C  
HETATM    2  C   UNL     1     -13.327  10.350  68.700  1.00  0.00     5.463 C  
ENDROOT
BRANCH   2   3
HETATM    3  O   UNL     1     -12.888  10.417  67.341  1.00  0.00     4.625 OA 
BRANCH   3   4
HETATM    4  C   UNL     1     -11.593  10.701  67.201  1.00  0.00     0.496 A  
HETATM    5  N   UNL     1     -10.635   9.816  67.102  1.00  0.00    -0.248 NA 
HETATM    6  C   UNL     1      -9.489  10.546  66.960  1.00  0.00    -0.163 A  
HETATM    7  C   UNL     1      -9.737  11.926  66.984  1.00  0.00    -0.194 A  
HETATM    8  N   UNL     1     -11.116  11.988  67.097  1.00  0.00    -0.272 NA 
HETATM    9  C   UNL     1      -8.668  12.854  66.896  1.00  0.00    -0.164 A  
HETATM   10  C   UNL     1      -7.369  12.334  66.716  1.00  0.00     0.133 A  
HETATM   11  C   UNL     1      -8.184  10.063  66.775  1.00  0.00    -0.121 A  
HETATM   12  C   UNL     1      -7.131  10.965  66.640  1.00  0.00    -0.135 A  
BRANCH   9  13
HETATM   13  C   UNL     1      -8.836  14.327  66.885  1.00  0.00    -0.213 C  
HETATM   14  O   UNL     1      -8.195  15.074  66.167  1.00  0.00     0.300 OA 
BRANCH  13  15
HETATM   15  O   UNL     1      -9.740  14.708  67.827  1.00  0.00    -0.211 OA 
BRANCH  15  16
HETATM   16  C   UNL     1      -9.791  13.888  69.006  1.00  0.00     0.059 C  
BRANCH  16  17
HETATM   17  C   UNL     1      -8.542  13.086  69.115  1.00  0.00     0.669 C  
HETATM   18  O   UNL     1      -6.617  12.182  69.804  1.00  0.00    -0.091 OA 
HETATM   19  C   UNL     1      -7.625  13.083  70.059  1.00  0.00     1.782 C  
HETATM   20  O   UNL     1      -8.210  12.196  68.106  1.00  0.00    -0.148 OA 
HETATM   21  C   UNL     1      -7.588  13.794  71.342  1.00  0.00     5.011 C  
HETATM   22  C   UNL     1      -7.031  11.646  68.598  1.00  0.00    -0.088 C  
HETATM   23  O   UNL     1      -6.403  10.770  68.015  1.00  0.00    -0.057 OA 
ENDBRANCH  16  17
ENDBRANCH  15  16
ENDBRANCH  13  15
ENDBRANCH   9  13
BRANCH   8  24
HETATM   24  C   UNL     1     -11.991  13.135  66.912  1.00  0.00    -0.362 C  
BRANCH  24  25
HETATM   25  C   UNL     1     -11.333  14.490  67.047  1.00  0.00    -0.359 A  
HETATM   26  C   UNL     1     -10.651  14.922  68.183  1.00  0.00    -0.244 A  
HETATM   27  C   UNL     1     -10.846  16.648  66.009  1.00  0.00    -0.041 A  
HETATM   28  C   UNL     1     -10.169  17.106  67.150  1.00  0.00    -0.316 A  
HETATM   29  C   UNL     1     -11.404  15.364  65.953  1.00  0.00    -0.104 A  
HETATM   30  C   UNL     1     -10.032  16.178  68.203  1.00  0.00    -0.230 A  
BRANCH  28  31
HETATM   31  C   UNL     1      -9.554  18.471  67.216  1.00  0.00    -0.305 A  
HETATM   32  C   UNL     1      -9.910  20.870  67.688  1.00  0.00    -0.255 A  
HETATM   33  C   UNL     1     -10.274  19.527  67.832  1.00  0.00    -0.550 A  
HETATM   34  C   UNL     1      -8.766  21.203  66.983  1.00  0.00     0.275 A  
HETATM   35  C   UNL     1      -7.972  20.188  66.458  1.00  0.00    -0.317 A  
HETATM   36  C   UNL     1      -8.342  18.833  66.585  1.00  0.00    -0.296 A  
BRANCH  36  37
HETATM   37  C   UNL     1      -7.361  17.872  66.046  1.00  0.00    -0.271 C  
HETATM   38  N   UNL     1      -6.753  16.965  66.737  1.00  0.00    -0.210 NA 
HETATM   39  O   UNL     1      -5.927  16.274  65.796  1.00  0.00     1.485 OA 
HETATM   40  C   UNL     1      -6.150  16.866  64.580  1.00  0.00     5.959 C  
HETATM   41  N   UNL     1      -7.053  17.844  64.744  1.00  0.00     1.485 NA 
HETATM   42  O   UNL     1      -5.600  16.566  63.529  1.00  0.00     7.256 OA 
ENDBRANCH  36  37
ENDBRANCH  28  31
ENDBRANCH  24  25
ENDBRANCH   8  24
ENDBRANCH   3   4
ENDBRANCH   2   3
TORSDOF 10
ENDMDL
