MODEL        1
REMARK 921   NORMALIZED FREE ENERGY PREDICTED BY IDOCK:   -5.87 KCAL/MOL
REMARK 922        TOTAL FREE ENERGY PREDICTED BY IDOCK:  -10.85 KCAL/MOL
REMARK 923 INTER-LIGAND FREE ENERGY PREDICTED BY IDOCK:   -8.27 KCAL/MOL
REMARK 924 INTRA-LIGAND FREE ENERGY PREDICTED BY IDOCK:   -2.58 KCAL/MOL
REMARK 927      BINDING AFFINITY PREDICTED BY RF-SCORE:    0.00 PKD
ROOT
HETATM    1  C   UNL     1      -5.143   4.751  71.067  1.00  0.00    -0.004 C  
HETATM    2  C   UNL     1      -5.751   5.189  69.742  1.00  0.00    -0.016 C  
ENDROOT
BRANCH   2   3
HETATM    3  C   UNL     1      -7.228   4.758  69.548  1.00  0.00    -0.055 C  
HETATM    4  O   UNL     1      -8.282   5.774  69.730  1.00  0.00    -0.105 OA 
HETATM    5  C   UNL     1      -8.125   7.081  69.427  1.00  0.00    -0.130 C  
HETATM    6  C   UNL     1      -9.399   7.913  69.665  1.00  0.00    -0.153 C  
HETATM    7  O   UNL     1      -7.068   7.563  69.060  1.00  0.00    -0.074 OA 
HETATM    8  C   UNL     1     -10.604   7.014  69.979  1.00  0.00    -0.251 C  
HETATM    9  C   UNL     1      -9.755   9.035  68.574  1.00  0.00    -0.159 C  
HETATM   10  C   UNL     1      -6.541   4.241  63.777  1.00  0.00    -0.042 C  
HETATM   11  C   UNL     1      -8.485   9.627  67.809  1.00  0.00    -0.125 C  
HETATM   12  C   UNL     1      -9.369   5.421  65.988  1.00  0.00    -0.167 C  
HETATM   13  C   UNL     1      -8.759  10.532  66.491  1.00  0.00    -0.139 C  
HETATM   14  C   UNL     1      -7.677  10.300  68.942  1.00  0.00    -0.098 C  
HETATM   15  C   UNL     1      -8.088   4.648  65.656  1.00  0.00    -0.107 C  
HETATM   16  C   UNL     1      -7.092   4.564  66.883  1.00  0.00    -0.068 C  
HETATM   17  C   UNL     1      -8.824  10.015  64.924  1.00  0.00    -0.192 C  
HETATM   18  C   UNL     1      -8.892   8.490  64.611  1.00  0.00     0.066 C  
HETATM   19  C   UNL     1      -7.566   3.937  68.246  1.00  0.00    -0.066 C  
HETATM   20  C   UNL     1      -7.965  10.713  63.862  1.00  0.00     0.092 C  
HETATM   21  H   UNL     1      -9.191   3.203  67.467  1.00  0.00     0.000 HD 
HETATM   22  O   UNL     1     -10.159  10.507  64.504  1.00  0.00    -0.334 OA 
HETATM   23  C   UNL     1      -7.627   7.738  64.079  1.00  0.00    -0.113 C  
HETATM   24  H   UNL     1      -5.888   5.783  67.826  1.00  0.00     0.000 HD 
HETATM   25  N   UNL     1      -7.338   5.223  64.507  1.00  0.00    -0.058 NA 
HETATM   26  C   UNL     1      -6.380   7.864  64.942  1.00  0.00    -0.048 C  
HETATM   27  H   UNL     1     -10.197  10.208  63.602  1.00  0.00     0.000 HD 
HETATM   28  C   UNL     1      -6.972   2.520  68.360  1.00  0.00    -0.047 C  
HETATM   29  C   UNL     1      -7.903   6.260  63.641  1.00  0.00    -0.113 C  
HETATM   30  O   UNL     1      -8.987   3.698  68.252  1.00  0.00    -0.107 OA 
HETATM   31  O   UNL     1      -6.485   5.833  67.089  1.00  0.00    -0.044 OA 
BRANCH   9  32
HETATM   32  O   UNL     1     -10.435  10.044  69.383  1.00  0.00    -0.202 OA 
BRANCH  32  33
HETATM   33  C   UNL     1     -11.769  10.423  69.061  1.00  0.00    -0.096 C  
HETATM   34  O   UNL     1     -13.185  12.162  72.663  1.00  0.00    -0.444 OA 
HETATM   35  C   UNL     1     -13.091  11.627  71.342  1.00  0.00    -0.243 C  
HETATM   36  H   UNL     1     -13.320  13.102  72.669  1.00  0.00     0.000 HD 
HETATM   37  C   UNL     1     -12.870  10.091  71.333  1.00  0.00    -0.417 C  
HETATM   38  O   UNL     1     -11.961  11.839  69.175  1.00  0.00    -0.314 OA 
HETATM   39  C   UNL     1     -12.266  13.832  70.423  1.00  0.00    -0.433 C  
HETATM   40  C   UNL     1     -11.997  12.330  70.511  1.00  0.00    -0.205 C  
HETATM   41  C   UNL     1     -12.841   9.669  69.849  1.00  0.00     0.909 C  
HETATM   42  C   UNL     1     -14.010   9.322  72.012  1.00  0.00    -0.392 C  
BRANCH  37  43
HETATM   43  O   UNL     1     -11.599   9.701  71.885  1.00  0.00    -0.339 OA 
HETATM   44  C   UNL     1     -11.535   8.536  72.687  1.00  0.00    -0.197 C  
ENDBRANCH  37  43
ENDBRANCH  32  33
ENDBRANCH   9  32
BRANCH  13  45
HETATM   45  O   UNL     1      -8.436  11.949  66.567  1.00  0.00    -0.173 OA 
BRANCH  45  46
HETATM   46  C   UNL     1      -9.433  12.911  66.945  1.00  0.00    -0.237 C  
HETATM   47  C   UNL     1     -12.584  13.756  65.318  1.00  0.00    -0.510 C  
HETATM   48  C   UNL     1      -9.849  15.433  67.535  1.00  0.00    -0.217 C  
HETATM   49  C   UNL     1      -8.860  14.259  67.379  1.00  0.00    -0.205 C  
HETATM   50  C   UNL     1     -10.946  15.320  66.457  1.00  0.00    -0.295 C  
HETATM   51  H   UNL     1      -7.772  14.889  68.859  1.00  0.00     0.000 HD 
HETATM   52  O   UNL     1      -8.128  14.051  68.589  1.00  0.00    -0.140 OA 
HETATM   53  O   UNL     1     -10.375  13.065  65.886  1.00  0.00    -0.277 OA 
HETATM   54  C   UNL     1     -11.461  13.886  66.327  1.00  0.00    -0.339 C  
BRANCH  48  55
HETATM   55  N   UNL     1      -9.131  16.752  67.442  1.00  0.00    -0.215 NA 
HETATM   56  C   UNL     1      -8.265  16.857  66.270  1.00  0.00    -0.309 C  
HETATM   57  C   UNL     1      -9.970  17.940  67.554  1.00  0.00    -0.322 C  
ENDBRANCH  48  55
ENDBRANCH  45  46
ENDBRANCH  13  45
ENDBRANCH   2   3
TORSDOF 7
ENDMDL
MODEL        2
REMARK 921   NORMALIZED FREE ENERGY PREDICTED BY IDOCK:   -5.65 KCAL/MOL
REMARK 922        TOTAL FREE ENERGY PREDICTED BY IDOCK:  -10.54 KCAL/MOL
REMARK 923 INTER-LIGAND FREE ENERGY PREDICTED BY IDOCK:   -9.17 KCAL/MOL
REMARK 924 INTRA-LIGAND FREE ENERGY PREDICTED BY IDOCK:   -1.36 KCAL/MOL
REMARK 927      BINDING AFFINITY PREDICTED BY RF-SCORE:    0.00 PKD
ROOT
HETATM    1  C   UNL     1      -9.510   1.468  67.759  1.00  0.00    -0.122 C  
HETATM    2  C   UNL     1      -9.521   2.067  69.158  1.00  0.00    -0.147 C  
ENDROOT
BRANCH   2   3
HETATM    3  C   UNL     1      -8.142   2.593  69.635  1.00  0.00    -0.041 C  
HETATM    4  O   UNL     1      -7.520   3.701  68.887  1.00  0.00    -0.053 OA 
HETATM    5  C   UNL     1      -8.221   4.686  68.284  1.00  0.00    -0.090 C  
HETATM    6  C   UNL     1      -7.322   5.745  67.617  1.00  0.00    -0.077 C  
HETATM    7  O   UNL     1      -9.437   4.703  68.222  1.00  0.00    -0.132 OA 
HETATM    8  C   UNL     1      -5.847   5.542  67.990  1.00  0.00    -0.017 C  
HETATM    9  C   UNL     1      -7.772   7.279  67.758  1.00  0.00    -0.112 C  
HETATM   10  C   UNL     1     -10.481   5.038  74.389  1.00  0.00    -0.270 C  
HETATM   11  C   UNL     1      -9.346   7.485  67.926  1.00  0.00    -0.144 C  
HETATM   12  C   UNL     1      -7.690   6.018  72.035  1.00  0.00    -0.098 C  
HETATM   13  C   UNL     1      -9.866   8.954  68.376  1.00  0.00    -0.174 C  
HETATM   14  C   UNL     1      -9.913   6.941  66.595  1.00  0.00    -0.211 C  
HETATM   15  C   UNL     1      -8.647   5.046  72.737  1.00  0.00    -0.119 C  
HETATM   16  C   UNL     1      -9.079   3.840  71.809  1.00  0.00    -0.111 C  
HETATM   17  C   UNL     1     -10.147   9.482  69.916  1.00  0.00    -0.232 C  
HETATM   18  C   UNL     1      -9.653   8.639  71.129  1.00  0.00    -0.281 C  
HETATM   19  C   UNL     1      -7.989   2.901  71.173  1.00  0.00    -0.053 C  
HETATM   20  C   UNL     1     -11.499  10.120  70.259  1.00  0.00    -0.381 C  
HETATM   21  H   UNL     1      -6.569   3.607  72.299  1.00  0.00     0.000 HD 
HETATM   22  O   UNL     1      -9.295  10.694  69.975  1.00  0.00    -0.311 OA 
HETATM   23  C   UNL     1     -10.669   7.799  71.972  1.00  0.00    -0.282 C  
HETATM   24  H   UNL     1     -10.249   3.580  70.263  1.00  0.00     0.000 HD 
HETATM   25  N   UNL     1      -9.889   5.701  73.230  1.00  0.00    -0.165 NA 
HETATM   26  C   UNL     1     -11.516   6.812  71.181  1.00  0.00    -0.361 C  
HETATM   27  H   UNL     1      -9.457  10.997  70.861  1.00  0.00     0.000 HD 
HETATM   28  C   UNL     1      -7.969   1.579  71.965  1.00  0.00    -0.041 C  
HETATM   29  C   UNL     1     -10.050   7.156  73.259  1.00  0.00    -0.276 C  
HETATM   30  O   UNL     1      -6.660   3.422  71.372  1.00  0.00    -0.024 OA 
HETATM   31  O   UNL     1      -9.990   4.305  70.820  1.00  0.00    -0.200 OA 
BRANCH   9  32
HETATM   32  O   UNL     1      -7.266   7.862  66.517  1.00  0.00    -0.079 OA 
BRANCH  32  33
HETATM   33  C   UNL     1      -5.863   8.027  66.337  1.00  0.00    -0.041 C  
HETATM   34  O   UNL     1      -5.607  11.166  63.494  1.00  0.00    -0.382 OA 
HETATM   35  C   UNL     1      -5.297  10.097  64.390  1.00  0.00    -0.111 C  
HETATM   36  H   UNL     1      -5.285  12.006  63.800  1.00  0.00     0.000 HD 
HETATM   37  C   UNL     1      -5.823   8.726  63.889  1.00  0.00    -0.071 C  
HETATM   38  O   UNL     1      -5.429   9.338  66.719  1.00  0.00    -0.038 OA 
HETATM   39  C   UNL     1      -5.208  11.672  66.365  1.00  0.00    -0.006 C  
HETATM   40  C   UNL     1      -5.807  10.376  65.820  1.00  0.00    -0.108 C  
HETATM   41  C   UNL     1      -5.367   7.684  64.932  1.00  0.00    -0.029 C  
HETATM   42  C   UNL     1      -5.228   8.319  62.535  1.00  0.00    -0.069 C  
BRANCH  37  43
HETATM   43  O   UNL     1      -7.260   8.653  63.851  1.00  0.00    -0.093 OA 
HETATM   44  C   UNL     1      -7.869   7.660  63.047  1.00  0.00    -0.133 C  
ENDBRANCH  37  43
ENDBRANCH  32  33
ENDBRANCH   9  32
BRANCH  13  45
HETATM   45  O   UNL     1     -10.624   9.729  67.405  1.00  0.00    -0.251 OA 
BRANCH  45  46
HETATM   46  C   UNL     1     -10.090  10.942  66.853  1.00  0.00    -0.212 C  
HETATM   47  C   UNL     1      -9.540  14.175  68.444  1.00  0.00    -0.225 C  
HETATM   48  C   UNL     1     -10.344  12.701  64.924  1.00  0.00    -0.308 C  
HETATM   49  C   UNL     1     -10.643  11.290  65.472  1.00  0.00    -0.246 C  
HETATM   50  C   UNL     1     -10.356  13.712  66.089  1.00  0.00    -0.297 C  
HETATM   51  H   UNL     1     -10.539  10.504  63.700  1.00  0.00     0.000 HD 
HETATM   52  O   UNL     1     -10.195  10.288  64.558  1.00  0.00    -0.314 OA 
HETATM   53  O   UNL     1     -10.284  12.012  67.775  1.00  0.00    -0.195 OA 
HETATM   54  C   UNL     1      -9.599  13.177  67.305  1.00  0.00    -0.233 C  
BRANCH  48  55
HETATM   55  N   UNL     1     -11.340  13.084  63.864  1.00  0.00    -0.409 NA 
HETATM   56  C   UNL     1     -12.376  12.076  63.652  1.00  0.00    -0.539 C  
HETATM   57  C   UNL     1     -11.947  14.403  64.009  1.00  0.00    -0.258 C  
ENDBRANCH  48  55
ENDBRANCH  45  46
ENDBRANCH  13  45
ENDBRANCH   2   3
TORSDOF 7
ENDMDL
MODEL        3
REMARK 921   NORMALIZED FREE ENERGY PREDICTED BY IDOCK:   -5.41 KCAL/MOL
REMARK 922        TOTAL FREE ENERGY PREDICTED BY IDOCK:  -10.21 KCAL/MOL
REMARK 923 INTER-LIGAND FREE ENERGY PREDICTED BY IDOCK:   -9.47 KCAL/MOL
REMARK 924 INTRA-LIGAND FREE ENERGY PREDICTED BY IDOCK:   -0.74 KCAL/MOL
REMARK 927      BINDING AFFINITY PREDICTED BY RF-SCORE:    0.00 PKD
ROOT
HETATM    1  C   UNL     1     -12.362  14.356  64.212  1.00  0.00    -0.402 C  
HETATM    2  C   UNL     1     -11.102  14.482  65.057  1.00  0.00    -0.393 C  
ENDROOT
BRANCH   2   3
HETATM    3  C   UNL     1     -11.355  14.987  66.502  1.00  0.00    -0.280 C  
HETATM    4  O   UNL     1     -11.735  14.002  67.531  1.00  0.00    -0.343 OA 
HETATM    5  C   UNL     1     -11.297  12.724  67.545  1.00  0.00    -0.312 C  
HETATM    6  C   UNL     1     -11.808  11.925  68.759  1.00  0.00    -0.371 C  
HETATM    7  O   UNL     1     -10.619  12.237  66.658  1.00  0.00    -0.223 OA 
HETATM    8  C   UNL     1     -12.510  12.837  69.775  1.00  0.00     0.049 C  
HETATM    9  C   UNL     1     -10.769  10.926  69.466  1.00  0.00    -0.206 C  
HETATM   10  C   UNL     1      -5.675  16.019  67.358  1.00  0.00    -0.088 C  
HETATM   11  C   UNL     1      -9.641  10.359  68.489  1.00  0.00    -0.161 C  
HETATM   12  C   UNL     1      -8.474  14.749  69.558  1.00  0.00     0.087 C  
HETATM   13  C   UNL     1      -8.381   9.593  69.164  1.00  0.00    -0.130 C  
HETATM   14  C   UNL     1     -10.453   9.549  67.451  1.00  0.00    -0.336 C  
HETATM   15  C   UNL     1      -7.867  15.499  68.366  1.00  0.00    -0.126 C  
HETATM   16  C   UNL     1      -8.778  15.427  67.075  1.00  0.00    -0.229 C  
HETATM   17  C   UNL     1      -6.938  10.258  69.615  1.00  0.00    -0.114 C  
HETATM   18  C   UNL     1      -6.778  11.807  69.666  1.00  0.00    -0.034 C  
HETATM   19  C   UNL     1     -10.264  15.940  67.124  1.00  0.00    -0.278 C  
HETATM   20  C   UNL     1      -5.629   9.630  69.118  1.00  0.00    -0.035 C  
HETATM   21  H   UNL     1     -10.020  16.809  68.847  1.00  0.00     0.000 HD 
HETATM   22  O   UNL     1      -6.860   9.862  71.042  1.00  0.00    -0.320 OA 
HETATM   23  C   UNL     1      -5.982  12.555  68.545  1.00  0.00    -0.056 C  
HETATM   24  H   UNL     1      -9.256  14.077  65.741  1.00  0.00     0.000 HD 
HETATM   25  N   UNL     1      -6.515  15.005  67.991  1.00  0.00    -0.133 NA 
HETATM   26  C   UNL     1      -6.459  12.298  67.123  1.00  0.00    -0.118 C  
HETATM   27  H   UNL     1      -6.030  10.245  71.301  1.00  0.00     0.000 HD 
HETATM   28  C   UNL     1     -10.324  17.316  66.431  1.00  0.00    -0.316 C  
HETATM   29  C   UNL     1      -5.756  14.078  68.833  1.00  0.00    -0.082 C  
HETATM   30  O   UNL     1     -10.677  16.234  68.473  1.00  0.00    -0.273 OA 
HETATM   31  O   UNL     1      -8.709  14.120  66.517  1.00  0.00    -0.122 OA 
BRANCH   9  32
HETATM   32  O   UNL     1     -11.650   9.873  69.967  1.00  0.00    -0.238 OA 
BRANCH  32  33
HETATM   33  C   UNL     1     -11.914   9.781  71.363  1.00  0.00    -0.411 C  
HETATM   34  O   UNL     1     -10.915   5.760  72.281  1.00  0.00    -0.238 OA 
HETATM   35  C   UNL     1     -11.380   7.109  72.352  1.00  0.00    -0.274 C  
HETATM   36  H   UNL     1     -10.134   5.613  72.802  1.00  0.00     0.000 HD 
HETATM   37  C   UNL     1     -12.654   7.348  71.500  1.00  0.00    -0.367 C  
HETATM   38  O   UNL     1     -10.731   9.463  72.107  1.00  0.00    -0.066 OA 
HETATM   39  C   UNL     1      -9.058   7.965  72.869  1.00  0.00    -0.281 C  
HETATM   40  C   UNL     1     -10.280   8.120  71.963  1.00  0.00    -0.249 C  
HETATM   41  C   UNL     1     -13.050   8.823  71.723  1.00  0.00    -0.406 C  
HETATM   42  C   UNL     1     -13.838   6.478  71.943  1.00  0.00     0.094 C  
BRANCH  37  43
HETATM   43  O   UNL     1     -12.424   7.204  70.087  1.00  0.00     0.090 OA 
HETATM   44  C   UNL     1     -11.415   6.315  69.649  1.00  0.00    -0.355 C  
ENDBRANCH  37  43
ENDBRANCH  32  33
ENDBRANCH   9  32
BRANCH  13  45
HETATM   45  O   UNL     1      -8.252   8.163  68.924  1.00  0.00    -0.121 OA 
BRANCH  45  46
HETATM   46  C   UNL     1      -7.664   7.671  67.711  1.00  0.00    -0.122 C  
HETATM   47  C   UNL     1      -6.870   9.444  64.626  1.00  0.00    -0.096 C  
HETATM   48  C   UNL     1      -7.874   5.869  65.817  1.00  0.00    -0.103 C  
HETATM   49  C   UNL     1      -8.239   6.337  67.241  1.00  0.00    -0.109 C  
HETATM   50  C   UNL     1      -7.787   7.096  64.885  1.00  0.00    -0.126 C  
HETATM   51  H   UNL     1      -8.239   4.515  67.913  1.00  0.00     0.000 HD 
HETATM   52  O   UNL     1      -7.882   5.345  68.205  1.00  0.00    -0.087 OA 
HETATM   53  O   UNL     1      -7.763   8.666  66.694  1.00  0.00    -0.094 OA 
HETATM   54  C   UNL     1      -7.025   8.247  65.542  1.00  0.00    -0.066 C  
BRANCH  48  55
HETATM   55  N   UNL     1      -8.879   4.872  65.308  1.00  0.00    -0.148 NA 
HETATM   56  C   UNL     1      -8.345   3.515  65.202  1.00  0.00    -0.097 C  
HETATM   57  C   UNL     1     -10.162   4.853  66.001  1.00  0.00    -0.257 C  
ENDBRANCH  48  55
ENDBRANCH  45  46
ENDBRANCH  13  45
ENDBRANCH   2   3
TORSDOF 7
ENDMDL
MODEL        4
REMARK 921   NORMALIZED FREE ENERGY PREDICTED BY IDOCK:   -4.66 KCAL/MOL
REMARK 922        TOTAL FREE ENERGY PREDICTED BY IDOCK:   -9.15 KCAL/MOL
REMARK 923 INTER-LIGAND FREE ENERGY PREDICTED BY IDOCK:   -9.03 KCAL/MOL
REMARK 924 INTRA-LIGAND FREE ENERGY PREDICTED BY IDOCK:   -0.12 KCAL/MOL
REMARK 927      BINDING AFFINITY PREDICTED BY RF-SCORE:    0.00 PKD
ROOT
HETATM    1  C   UNL     1     -12.102  15.085  64.400  1.00  0.00    -0.373 C  
HETATM    2  C   UNL     1     -11.192  14.373  65.391  1.00  0.00    -0.335 C  
ENDROOT
BRANCH   2   3
HETATM    3  C   UNL     1     -11.386  14.817  66.864  1.00  0.00    -0.355 C  
HETATM    4  O   UNL     1     -11.667  13.782  67.876  1.00  0.00    -0.319 OA 
HETATM    5  C   UNL     1     -11.174  12.525  67.820  1.00  0.00    -0.269 C  
HETATM    6  C   UNL     1     -11.582  11.663  69.030  1.00  0.00    -0.379 C  
HETATM    7  O   UNL     1     -10.525  12.099  66.882  1.00  0.00    -0.220 OA 
HETATM    8  C   UNL     1     -12.266  12.508  70.115  1.00  0.00    -0.307 C  
HETATM    9  C   UNL     1     -10.464  10.689  69.644  1.00  0.00    -0.179 C  
HETATM   10  C   UNL     1      -5.718  16.074  67.453  1.00  0.00    -0.088 C  
HETATM   11  C   UNL     1      -9.368  10.206  68.588  1.00  0.00    -0.161 C  
HETATM   12  C   UNL     1      -8.334  14.606  69.752  1.00  0.00     0.366 C  
HETATM   13  C   UNL     1      -8.040   9.475  69.167  1.00  0.00    -0.103 C  
HETATM   14  C   UNL     1     -10.200   9.396  67.567  1.00  0.00    -0.288 C  
HETATM   15  C   UNL     1      -7.827  15.422  68.557  1.00  0.00    -0.134 C  
HETATM   16  C   UNL     1      -8.803  15.353  67.314  1.00  0.00    -0.195 C  
HETATM   17  C   UNL     1      -6.605  10.189  69.563  1.00  0.00    -0.060 C  
HETATM   18  C   UNL     1      -6.509  11.741  69.662  1.00  0.00    -0.113 C  
HETATM   19  C   UNL     1     -10.305  15.797  67.462  1.00  0.00    -0.280 C  
HETATM   20  C   UNL     1      -5.300   9.637  68.975  1.00  0.00    -0.036 C  
HETATM   21  H   UNL     1     -10.004  16.616  69.200  1.00  0.00     0.000 HD 
HETATM   22  O   UNL     1      -6.432   9.749  70.969  1.00  0.00    -0.201 OA 
HETATM   23  C   UNL     1      -5.809  12.561  68.528  1.00  0.00    -0.055 C  
HETATM   24  H   UNL     1      -9.295  14.029  65.960  1.00  0.00     0.000 HD 
HETATM   25  N   UNL     1      -6.477  15.002  68.092  1.00  0.00    -0.118 NA 
HETATM   26  C   UNL     1      -6.353  12.332  67.125  1.00  0.00    -0.117 C  
HETATM   27  H   UNL     1      -5.606  10.160  71.197  1.00  0.00     0.000 HD 
HETATM   28  C   UNL     1     -10.462  17.191  66.823  1.00  0.00    -0.263 C  
HETATM   29  C   UNL     1      -5.634  14.082  68.858  1.00  0.00    -0.082 C  
HETATM   30  O   UNL     1     -10.656  16.026  68.840  1.00  0.00    -0.228 OA 
HETATM   31  O   UNL     1      -8.708  14.070  66.707  1.00  0.00    -0.203 OA 
BRANCH   9  32
HETATM   32  O   UNL     1     -11.269   9.580  70.152  1.00  0.00    -0.240 OA 
BRANCH  32  33
HETATM   33  C   UNL     1     -11.573   9.510  71.542  1.00  0.00    -0.395 C  
HETATM   34  O   UNL     1     -10.914   5.425  72.480  1.00  0.00    -0.237 OA 
HETATM   35  C   UNL     1     -11.273   6.806  72.541  1.00  0.00    -0.268 C  
HETATM   36  H   UNL     1     -10.160   5.218  73.019  1.00  0.00     0.000 HD 
HETATM   37  C   UNL     1     -12.505   7.143  71.659  1.00  0.00    -0.370 C  
HETATM   38  O   UNL     1     -10.437   9.102  72.314  1.00  0.00    -0.175 OA 
HETATM   39  C   UNL     1      -8.905   7.478  73.114  1.00  0.00    -0.210 C  
HETATM   40  C   UNL     1     -10.089   7.728  72.179  1.00  0.00    -0.210 C  
HETATM   41  C   UNL     1     -12.789   8.645  71.874  1.00  0.00    -0.411 C  
HETATM   42  C   UNL     1     -13.763   6.369  72.073  1.00  0.00     0.260 C  
BRANCH  37  43
HETATM   43  O   UNL     1     -12.253   6.981  70.252  1.00  0.00    -0.182 OA 
HETATM   44  C   UNL     1     -11.277   6.043  69.839  1.00  0.00    -0.368 C  
ENDBRANCH  37  43
ENDBRANCH  32  33
ENDBRANCH   9  32
BRANCH  13  45
HETATM   45  O   UNL     1      -7.864   8.062  68.869  1.00  0.00    -0.109 OA 
BRANCH  45  46
HETATM   46  C   UNL     1      -8.157   7.543  67.562  1.00  0.00    -0.113 C  
HETATM   47  C   UNL     1     -10.132   4.633  66.605  1.00  0.00    -0.263 C  
HETATM   48  C   UNL     1      -7.099   6.714  65.310  1.00  0.00    -0.064 C  
HETATM   49  C   UNL     1      -6.950   7.504  66.627  1.00  0.00    -0.074 C  
HETATM   50  C   UNL     1      -7.982   5.474  65.558  1.00  0.00    -0.111 C  
HETATM   51  H   UNL     1      -5.808   8.829  65.783  1.00  0.00     0.000 HD 
HETATM   52  O   UNL     1      -6.558   8.853  66.365  1.00  0.00    -0.065 OA 
HETATM   53  O   UNL     1      -8.762   6.258  67.683  1.00  0.00    -0.114 OA 
HETATM   54  C   UNL     1      -9.213   5.819  66.397  1.00  0.00    -0.151 C  
BRANCH  48  55
HETATM   55  N   UNL     1      -5.752   6.321  64.768  1.00  0.00    -0.021 NA 
HETATM   56  C   UNL     1      -5.541   4.875  64.738  1.00  0.00    -0.014 C  
HETATM   57  C   UNL     1      -5.389   6.907  63.482  1.00  0.00    -0.028 C  
ENDBRANCH  48  55
ENDBRANCH  45  46
ENDBRANCH  13  45
ENDBRANCH   2   3
TORSDOF 7
ENDMDL
MODEL        5
REMARK 921   NORMALIZED FREE ENERGY PREDICTED BY IDOCK:   -4.64 KCAL/MOL
REMARK 922        TOTAL FREE ENERGY PREDICTED BY IDOCK:   -9.12 KCAL/MOL
REMARK 923 INTER-LIGAND FREE ENERGY PREDICTED BY IDOCK:   -7.47 KCAL/MOL
REMARK 924 INTRA-LIGAND FREE ENERGY PREDICTED BY IDOCK:   -1.66 KCAL/MOL
REMARK 927      BINDING AFFINITY PREDICTED BY RF-SCORE:    0.00 PKD
ROOT
HETATM    1  C   UNL     1      -7.384   5.475  73.000  1.00  0.00    -0.092 C  
HETATM    2  C   UNL     1      -7.378   5.657  71.489  1.00  0.00    -0.087 C  
ENDROOT
BRANCH   2   3
HETATM    3  C   UNL     1      -8.781   5.572  70.833  1.00  0.00    -0.135 C  
HETATM    4  O   UNL     1      -9.520   6.826  70.597  1.00  0.00    -0.168 OA 
HETATM    5  C   UNL     1      -8.926   8.002  70.297  1.00  0.00    -0.147 C  
HETATM    6  C   UNL     1      -9.934   9.141  70.050  1.00  0.00    -0.223 C  
HETATM    7  O   UNL     1      -7.718   8.159  70.282  1.00  0.00    -0.081 OA 
HETATM    8  C   UNL     1     -11.373   8.611  69.988  1.00  0.00    -0.022 C  
HETATM    9  C   UNL     1      -9.613  10.152  68.846  1.00  0.00    -0.184 C  
HETATM   10  C   UNL     1      -6.507   4.107  65.662  1.00  0.00    -0.036 C  
HETATM   11  C   UNL     1      -8.058  10.309  68.522  1.00  0.00    -0.109 C  
HETATM   12  C   UNL     1      -9.446   6.229  66.732  1.00  0.00    -0.167 C  
HETATM   13  C   UNL     1      -7.652  11.062  67.144  1.00  0.00    -0.117 C  
HETATM   14  C   UNL     1      -7.490  10.919  69.824  1.00  0.00     0.042 C  
HETATM   15  C   UNL     1      -8.387   5.132  66.890  1.00  0.00    -0.107 C  
HETATM   16  C   UNL     1      -7.884   4.982  68.382  1.00  0.00    -0.082 C  
HETATM   17  C   UNL     1      -7.367  10.363  65.675  1.00  0.00    -0.148 C  
HETATM   18  C   UNL     1      -7.747   8.871  65.437  1.00  0.00    -0.092 C  
HETATM   19  C   UNL     1      -8.909   4.683  69.537  1.00  0.00    -0.084 C  
HETATM   20  C   UNL     1      -6.064  10.679  64.929  1.00  0.00     0.000 C  
HETATM   21  H   UNL     1     -10.347   4.261  68.297  1.00  0.00     0.000 HD 
HETATM   22  O   UNL     1      -8.318  11.098  64.806  1.00  0.00    -0.372 OA 
HETATM   23  C   UNL     1      -6.636   7.770  65.400  1.00  0.00    -0.044 C  
HETATM   24  H   UNL     1      -6.747   5.994  69.610  1.00  0.00     0.000 HD 
HETATM   25  N   UNL     1      -7.191   5.344  66.031  1.00  0.00    -0.075 NA 
HETATM   26  C   UNL     1      -5.733   7.711  66.624  1.00  0.00    -0.035 C  
HETATM   27  H   UNL     1      -8.154  10.695  63.961  1.00  0.00     0.000 HD 
HETATM   28  C   UNL     1      -8.790   3.195  69.917  1.00  0.00    -0.151 C  
HETATM   29  C   UNL     1      -7.154   6.356  64.973  1.00  0.00    -0.060 C  
HETATM   30  O   UNL     1     -10.270   4.796  69.078  1.00  0.00    -0.155 OA 
HETATM   31  O   UNL     1      -7.049   6.084  68.714  1.00  0.00    -0.076 OA 
BRANCH   9  32
HETATM   32  O   UNL     1     -10.207  11.398  69.326  1.00  0.00    -0.122 OA 
BRANCH  32  33
HETATM   33  C   UNL     1     -11.623  11.553  69.315  1.00  0.00    -0.322 C  
HETATM   34  O   UNL     1     -12.170  15.390  67.588  1.00  0.00    -0.226 OA 
HETATM   35  C   UNL     1     -12.383  14.129  68.224  1.00  0.00     0.008 C  
HETATM   36  H   UNL     1     -12.538  15.425  66.713  1.00  0.00     0.000 HD 
HETATM   37  C   UNL     1     -11.782  14.072  69.654  1.00  0.00    -0.311 C  
HETATM   38  O   UNL     1     -12.130  11.700  67.983  1.00  0.00    -0.597 OA 
HETATM   39  C   UNL     1     -12.516  12.939  65.998  1.00  0.00    -0.171 C  
HETATM   40  C   UNL     1     -11.849  12.956  67.374  1.00  0.00    -0.360 C  
HETATM   41  C   UNL     1     -12.137  12.678  70.214  1.00  0.00    -0.372 C  
HETATM   42  C   UNL     1     -12.390  15.119  70.597  1.00  0.00    -0.420 C  
BRANCH  37  43
HETATM   43  O   UNL     1     -10.345  14.155  69.667  1.00  0.00     0.071 OA 
HETATM   44  C   UNL     1      -9.737  15.348  70.123  1.00  0.00     0.109 C  
ENDBRANCH  37  43
ENDBRANCH  32  33
ENDBRANCH   9  32
BRANCH  13  45
HETATM   45  O   UNL     1      -6.995  12.356  67.250  1.00  0.00    -0.148 OA 
BRANCH  45  46
HETATM   46  C   UNL     1      -7.763  13.567  67.325  1.00  0.00    -0.077 C  
HETATM   47  C   UNL     1     -10.249  14.889  65.010  1.00  0.00    -0.365 C  
HETATM   48  C   UNL     1      -7.618  16.173  67.587  1.00  0.00    -0.145 C  
HETATM   49  C   UNL     1      -6.952  14.791  67.745  1.00  0.00    -0.174 C  
HETATM   50  C   UNL     1      -8.497  16.170  66.319  1.00  0.00    -0.357 C  
HETATM   51  H   UNL     1      -6.021  15.349  69.356  1.00  0.00     0.000 HD 
HETATM   52  O   UNL     1      -6.526  14.587  69.094  1.00  0.00    -0.094 OA 
HETATM   53  O   UNL     1      -8.429  13.787  66.083  1.00  0.00     0.529 OA 
HETATM   54  C   UNL     1      -9.329  14.893  66.214  1.00  0.00    -0.296 C  
BRANCH  48  55
HETATM   55  N   UNL     1      -6.582  17.262  67.526  1.00  0.00    -0.140 NA 
HETATM   56  C   UNL     1      -6.299  17.716  66.166  1.00  0.00    -0.239 C  
HETATM   57  C   UNL     1      -6.813  18.407  68.399  1.00  0.00    -0.241 C  
ENDBRANCH  48  55
ENDBRANCH  45  46
ENDBRANCH  13  45
ENDBRANCH   2   3
TORSDOF 7
ENDMDL
MODEL        6
REMARK 921   NORMALIZED FREE ENERGY PREDICTED BY IDOCK:   -4.40 KCAL/MOL
REMARK 922        TOTAL FREE ENERGY PREDICTED BY IDOCK:   -8.77 KCAL/MOL
REMARK 923 INTER-LIGAND FREE ENERGY PREDICTED BY IDOCK:   -7.70 KCAL/MOL
REMARK 924 INTRA-LIGAND FREE ENERGY PREDICTED BY IDOCK:   -1.07 KCAL/MOL
REMARK 927      BINDING AFFINITY PREDICTED BY RF-SCORE:    0.00 PKD
ROOT
HETATM    1  C   UNL     1      -5.134   3.603  68.721  1.00  0.00    -0.011 C  
HETATM    2  C   UNL     1      -6.225   4.456  69.351  1.00  0.00    -0.027 C  
ENDROOT
BRANCH   2   3
HETATM    3  C   UNL     1      -5.787   5.191  70.645  1.00  0.00    -0.017 C  
HETATM    4  O   UNL     1      -5.753   6.665  70.635  1.00  0.00    -0.022 OA 
HETATM    5  C   UNL     1      -6.606   7.431  69.919  1.00  0.00    -0.043 C  
HETATM    6  C   UNL     1      -6.382   8.941  70.129  1.00  0.00    -0.042 C  
HETATM    7  O   UNL     1      -7.426   6.976  69.142  1.00  0.00    -0.090 OA 
HETATM    8  C   UNL     1      -5.390   9.206  71.270  1.00  0.00    -0.043 C  
HETATM    9  C   UNL     1      -7.690   9.865  70.242  1.00  0.00    -0.142 C  
HETATM   10  C   UNL     1     -10.743   3.768  73.378  1.00  0.00    -0.207 C  
HETATM   11  C   UNL     1      -8.961   9.295  69.463  1.00  0.00    -0.154 C  
HETATM   12  C   UNL     1      -8.519   6.823  73.397  1.00  0.00    -0.132 C  
HETATM   13  C   UNL     1     -10.397   9.988  69.763  1.00  0.00    -0.255 C  
HETATM   14  C   UNL     1      -8.497   9.300  67.988  1.00  0.00    -0.120 C  
HETATM   15  C   UNL     1      -8.849   5.340  73.195  1.00  0.00    -0.119 C  
HETATM   16  C   UNL     1      -8.043   4.694  71.997  1.00  0.00    -0.101 C  
HETATM   17  C   UNL     1     -11.512   9.519  70.887  1.00  0.00    -0.334 C  
HETATM   18  C   UNL     1     -11.125   8.477  71.979  1.00  0.00    -0.412 C  
HETATM   19  C   UNL     1      -6.470   4.733  71.990  1.00  0.00    -0.030 C  
HETATM   20  C   UNL     1     -12.966   9.286  70.455  1.00  0.00     0.362 C  
HETATM   21  H   UNL     1      -6.369   5.303  73.847  1.00  0.00     0.000 HD 
HETATM   22  O   UNL     1     -11.697  10.770  71.662  1.00  0.00     0.091 OA 
HETATM   23  C   UNL     1     -11.633   7.001  71.874  1.00  0.00    -0.320 C  
HETATM   24  H   UNL     1      -8.085   4.776  70.043  1.00  0.00     0.000 HD 
HETATM   25  N   UNL     1     -10.295   5.091  72.949  1.00  0.00    -0.183 NA 
HETATM   26  C   UNL     1     -11.299   6.286  70.573  1.00  0.00    -0.428 C  
HETATM   27  H   UNL     1     -12.339  10.500  72.309  1.00  0.00     0.000 HD 
HETATM   28  C   UNL     1      -5.950   3.336  72.383  1.00  0.00    -0.009 C  
HETATM   29  C   UNL     1     -11.313   6.127  73.134  1.00  0.00    -0.026 C  
HETATM   30  O   UNL     1      -5.957   5.580  73.037  1.00  0.00    -0.033 OA 
HETATM   31  O   UNL     1      -8.570   5.164  70.762  1.00  0.00    -0.119 OA 
BRANCH   9  32
HETATM   32  O   UNL     1      -7.219  11.131  69.684  1.00  0.00    -0.110 OA 
BRANCH  32  33
HETATM   33  C   UNL     1      -5.829  11.438  69.709  1.00  0.00    -0.099 C  
HETATM   34  O   UNL     1      -5.770  15.646  70.254  1.00  0.00    -0.155 OA 
HETATM   35  C   UNL     1      -5.395  14.286  70.026  1.00  0.00    -0.097 C  
HETATM   36  H   UNL     1      -5.473  15.972  71.095  1.00  0.00     0.000 HD 
HETATM   37  C   UNL     1      -5.882  13.754  68.652  1.00  0.00    -0.087 C  
HETATM   38  O   UNL     1      -5.436  12.017  70.959  1.00  0.00    -0.247 OA 
HETATM   39  C   UNL     1      -5.313  13.810  72.507  1.00  0.00    -0.150 C  
HETATM   40  C   UNL     1      -5.877  13.356  71.160  1.00  0.00    -0.045 C  
HETATM   41  C   UNL     1      -5.358  12.307  68.541  1.00  0.00    -0.054 C  
HETATM   42  C   UNL     1      -5.308  14.546  67.470  1.00  0.00     0.204 C  
BRANCH  37  43
HETATM   43  O   UNL     1      -7.315  13.670  68.554  1.00  0.00    -0.102 OA 
HETATM   44  C   UNL     1      -8.009  14.683  67.851  1.00  0.00    -0.144 C  
ENDBRANCH  37  43
ENDBRANCH  32  33
ENDBRANCH   9  32
BRANCH  13  45
HETATM   45  O   UNL     1     -11.016  10.750  68.688  1.00  0.00    -0.204 OA 
BRANCH  45  46
HETATM   46  C   UNL     1     -10.839  12.172  68.599  1.00  0.00    -0.235 C  
HETATM   47  C   UNL     1     -12.013  14.805  70.829  1.00  0.00    -0.371 C  
HETATM   48  C   UNL     1     -11.169  14.269  67.059  1.00  0.00    -0.323 C  
HETATM   49  C   UNL     1     -11.064  12.737  67.197  1.00  0.00    -0.277 C  
HETATM   50  C   UNL     1     -11.889  14.843  68.297  1.00  0.00    -0.308 C  
HETATM   51  H   UNL     1     -10.173  12.574  65.479  1.00  0.00     0.000 HD 
HETATM   52  O   UNL     1     -10.033  12.223  66.351  1.00  0.00    -0.219 OA 
HETATM   53  O   UNL     1     -11.672  12.818  69.559  1.00  0.00    -0.300 OA 
HETATM   54  C   UNL     1     -11.368  14.216  69.591  1.00  0.00    -0.236 C  
BRANCH  48  55
HETATM   55  N   UNL     1     -11.889  14.643  65.792  1.00  0.00    -0.317 NA 
HETATM   56  C   UNL     1     -11.051  15.373  64.844  1.00  0.00    -0.423 C  
HETATM   57  C   UNL     1     -12.584  13.555  65.112  1.00  0.00    -0.436 C  
ENDBRANCH  48  55
ENDBRANCH  45  46
ENDBRANCH  13  45
ENDBRANCH   2   3
TORSDOF 7
ENDMDL
MODEL        7
REMARK 921   NORMALIZED FREE ENERGY PREDICTED BY IDOCK:   -4.31 KCAL/MOL
REMARK 922        TOTAL FREE ENERGY PREDICTED BY IDOCK:   -8.65 KCAL/MOL
REMARK 923 INTER-LIGAND FREE ENERGY PREDICTED BY IDOCK:   -7.03 KCAL/MOL
REMARK 924 INTRA-LIGAND FREE ENERGY PREDICTED BY IDOCK:   -1.62 KCAL/MOL
REMARK 927      BINDING AFFINITY PREDICTED BY RF-SCORE:    0.00 PKD
ROOT
HETATM    1  C   UNL     1      -7.708   6.439  73.174  1.00  0.00    -0.098 C  
HETATM    2  C   UNL     1      -8.026   6.270  71.695  1.00  0.00    -0.102 C  
ENDROOT
BRANCH   2   3
HETATM    3  C   UNL     1      -9.539   6.334  71.360  1.00  0.00    -0.155 C  
HETATM    4  O   UNL     1     -10.162   7.659  71.184  1.00  0.00    -0.196 OA 
HETATM    5  C   UNL     1      -9.516   8.729  70.671  1.00  0.00    -0.197 C  
HETATM    6  C   UNL     1     -10.415   9.975  70.550  1.00  0.00    -0.265 C  
HETATM    7  O   UNL     1      -8.332   8.726  70.388  1.00  0.00    -0.115 OA 
HETATM    8  C   UNL     1     -11.885   9.635  70.836  1.00  0.00    -0.403 C  
HETATM    9  C   UNL     1     -10.252  10.868  69.227  1.00  0.00    -0.166 C  
HETATM   10  C   UNL     1      -8.642   4.305  65.963  1.00  0.00    -0.113 C  
HETATM   11  C   UNL     1      -8.799  10.803  68.570  1.00  0.00    -0.149 C  
HETATM   12  C   UNL     1     -11.009   6.847  67.452  1.00  0.00    -0.374 C  
HETATM   13  C   UNL     1      -8.621  11.420  67.080  1.00  0.00    -0.151 C  
HETATM   14  C   UNL     1      -7.892  11.404  69.669  1.00  0.00     0.514 C  
HETATM   15  C   UNL     1     -10.075   5.632  67.472  1.00  0.00    -0.174 C  
HETATM   16  C   UNL     1      -9.277   5.499  68.831  1.00  0.00    -0.119 C  
HETATM   17  C   UNL     1      -8.749  10.611  65.646  1.00  0.00    -0.188 C  
HETATM   18  C   UNL     1      -9.342   9.170  65.617  1.00  0.00    -0.300 C  
HETATM   19  C   UNL     1     -10.051   5.401  70.197  1.00  0.00    -0.252 C  
HETATM   20  C   UNL     1      -7.615  10.713  64.618  1.00  0.00     0.140 C  
HETATM   21  H   UNL     1     -11.765   5.102  69.328  1.00  0.00     0.000 HD 
HETATM   22  O   UNL     1      -9.776  11.415  64.941  1.00  0.00    -0.240 OA 
HETATM   23  C   UNL     1      -8.401   7.934  65.435  1.00  0.00    -0.146 C  
HETATM   24  H   UNL     1      -7.788   6.420  69.705  1.00  0.00     0.000 HD 
HETATM   25  N   UNL     1      -9.081   5.639  66.365  1.00  0.00    -0.142 NA 
HETATM   26  C   UNL     1      -7.264   7.824  66.442  1.00  0.00    -0.075 C  
HETATM   27  H   UNL     1      -9.850  10.949  64.116  1.00  0.00     0.000 HD 
HETATM   28  C   UNL     1     -10.024   3.932  70.664  1.00  0.00    -0.094 C  
HETATM   29  C   UNL     1      -9.161   6.578  65.244  1.00  0.00     0.342 C  
HETATM   30  O   UNL     1     -11.457   5.665  70.029  1.00  0.00    -0.031 OA 
HETATM   31  O   UNL     1      -8.268   6.499  68.888  1.00  0.00    -0.116 OA 
BRANCH   9  32
HETATM   32  O   UNL     1     -10.579  12.205  69.718  1.00  0.00     0.335 OA 
BRANCH  32  33
HETATM   33  C   UNL     1     -11.310  13.102  68.888  1.00  0.00    -0.289 C  
HETATM   34  O   UNL     1     -12.036  16.417  71.436  1.00  0.00    -0.638 OA 
HETATM   35  C   UNL     1     -12.034  15.508  70.334  1.00  0.00    -0.367 C  
HETATM   36  H   UNL     1     -11.567  17.222  71.247  1.00  0.00     0.000 HD 
HETATM   37  C   UNL     1     -12.799  14.194  70.643  1.00  0.00    -0.290 C  
HETATM   38  O   UNL     1     -10.616  14.342  68.706  1.00  0.00    -0.242 OA 
HETATM   39  C   UNL     1      -9.876  16.472  69.439  1.00  0.00    -0.155 C  
HETATM   40  C   UNL     1     -10.603  15.191  69.848  1.00  0.00    -0.235 C  
HETATM   41  C   UNL     1     -12.747  13.352  69.350  1.00  0.00     0.512 C  
HETATM   42  C   UNL     1     -14.276  14.431  70.982  1.00  0.00     0.066 C  
BRANCH  37  43
HETATM   43  O   UNL     1     -12.168  13.399  71.663  1.00  0.00    -0.078 OA 
HETATM   44  C   UNL     1     -12.922  12.382  72.295  1.00  0.00    -0.075 C  
ENDBRANCH  37  43
ENDBRANCH  32  33
ENDBRANCH   9  32
BRANCH  13  45
HETATM   45  O   UNL     1      -7.812  12.621  66.939  1.00  0.00    -0.083 OA 
BRANCH  45  46
HETATM   46  C   UNL     1      -8.411  13.924  67.012  1.00  0.00    -0.134 C  
HETATM   47  C   UNL     1     -11.037  15.394  64.954  1.00  0.00    -0.435 C  
HETATM   48  C   UNL     1      -7.919  16.501  67.020  1.00  0.00    -0.203 C  
HETATM   49  C   UNL     1      -7.406  15.058  67.207  1.00  0.00    -0.161 C  
HETATM   50  C   UNL     1      -8.970  16.524  65.890  1.00  0.00    -0.165 C  
HETATM   51  H   UNL     1      -6.188  15.602  68.618  1.00  0.00     0.000 HD 
HETATM   52  O   UNL     1      -6.813  14.897  68.496  1.00  0.00    -0.099 OA 
HETATM   53  O   UNL     1      -9.222  14.142  65.860  1.00  0.00    -0.086 OA 
HETATM   54  C   UNL     1      -9.955  15.362  66.015  1.00  0.00    -0.324 C  
BRANCH  48  55
HETATM   55  N   UNL     1      -6.781  17.438  66.721  1.00  0.00    -0.190 NA 
HETATM   56  C   UNL     1      -7.042  18.320  65.585  1.00  0.00    -0.155 C  
HETATM   57  C   UNL     1      -6.282  18.212  67.852  1.00  0.00    -0.174 C  
ENDBRANCH  48  55
ENDBRANCH  45  46
ENDBRANCH  13  45
ENDBRANCH   2   3
TORSDOF 7
ENDMDL
MODEL        8
REMARK 921   NORMALIZED FREE ENERGY PREDICTED BY IDOCK:   -4.22 KCAL/MOL
REMARK 922        TOTAL FREE ENERGY PREDICTED BY IDOCK:   -8.53 KCAL/MOL
REMARK 923 INTER-LIGAND FREE ENERGY PREDICTED BY IDOCK:   -8.52 KCAL/MOL
REMARK 924 INTRA-LIGAND FREE ENERGY PREDICTED BY IDOCK:   -0.01 KCAL/MOL
REMARK 927      BINDING AFFINITY PREDICTED BY RF-SCORE:    0.00 PKD
ROOT
HETATM    1  C   UNL     1     -12.039  14.893  64.180  1.00  0.00    -0.289 C  
HETATM    2  C   UNL     1     -10.909  14.602  65.157  1.00  0.00    -0.414 C  
ENDROOT
BRANCH   2   3
HETATM    3  C   UNL     1     -11.197  15.053  66.613  1.00  0.00    -0.311 C  
HETATM    4  O   UNL     1     -11.516  14.020  67.615  1.00  0.00    -0.299 OA 
HETATM    5  C   UNL     1     -10.996  12.773  67.599  1.00  0.00    -0.244 C  
HETATM    6  C   UNL     1     -11.457  11.912  68.791  1.00  0.00    -0.347 C  
HETATM    7  O   UNL     1     -10.286  12.354  66.703  1.00  0.00    -0.220 OA 
HETATM    8  C   UNL     1     -12.219  12.751  69.827  1.00  0.00    -0.213 C  
HETATM    9  C   UNL     1     -10.357  10.965  69.477  1.00  0.00    -0.101 C  
HETATM   10  C   UNL     1      -5.598  16.427  67.517  1.00  0.00    -0.149 C  
HETATM   11  C   UNL     1      -9.193  10.496  68.490  1.00  0.00    -0.168 C  
HETATM   12  C   UNL     1      -8.314  14.924  69.674  1.00  0.00     0.052 C  
HETATM   13  C   UNL     1      -7.887   9.797  69.151  1.00  0.00    -0.095 C  
HETATM   14  C   UNL     1      -9.949   9.663  67.430  1.00  0.00    -0.237 C  
HETATM   15  C   UNL     1      -7.754  15.741  68.503  1.00  0.00    -0.137 C  
HETATM   16  C   UNL     1      -8.655  15.644  67.207  1.00  0.00    -0.192 C  
HETATM   17  C   UNL     1      -6.491  10.542  69.624  1.00  0.00    -0.084 C  
HETATM   18  C   UNL     1      -6.432  12.096  69.715  1.00  0.00    -0.050 C  
HETATM   19  C   UNL     1     -10.172  16.059  67.263  1.00  0.00    -0.277 C  
HETATM   20  C   UNL     1      -5.144  10.012  69.117  1.00  0.00    -0.035 C  
HETATM   21  H   UNL     1      -9.988  16.897  69.009  1.00  0.00     0.000 HD 
HETATM   22  O   UNL     1      -6.391  10.115  71.041  1.00  0.00    -0.288 OA 
HETATM   23  C   UNL     1      -5.683  12.922  68.616  1.00  0.00    -0.068 C  
HETATM   24  H   UNL     1      -9.042  14.300  65.838  1.00  0.00     0.000 HD 
HETATM   25  N   UNL     1      -6.372  15.346  68.121  1.00  0.00    -0.113 NA 
HETATM   26  C   UNL     1      -6.140  12.671  67.186  1.00  0.00     0.028 C  
HETATM   27  H   UNL     1      -5.589  10.545  71.313  1.00  0.00     0.000 HD 
HETATM   28  C   UNL     1     -10.319  17.445  66.605  1.00  0.00    -0.306 C  
HETATM   29  C   UNL     1      -5.557  14.448  68.943  1.00  0.00    -0.086 C  
HETATM   30  O   UNL     1     -10.606  16.291  68.617  1.00  0.00    -0.263 OA 
HETATM   31  O   UNL     1      -8.501  14.359  66.617  1.00  0.00    -0.121 OA 
BRANCH   9  32
HETATM   32  O   UNL     1     -11.169   9.845  69.947  1.00  0.00    -0.242 OA 
BRANCH  32  33
HETATM   33  C   UNL     1     -11.748   9.892  71.248  1.00  0.00    -0.392 C  
HETATM   34  O   UNL     1     -11.489   5.870  72.576  1.00  0.00    -0.290 OA 
HETATM   35  C   UNL     1     -11.785   7.263  72.469  1.00  0.00    -0.204 C  
HETATM   36  H   UNL     1     -10.869   5.679  73.270  1.00  0.00     0.000 HD 
HETATM   37  C   UNL     1     -12.798   7.573  71.335  1.00  0.00    -0.342 C  
HETATM   38  O   UNL     1     -10.810   9.505  72.260  1.00  0.00     0.277 OA 
HETATM   39  C   UNL     1      -9.549   7.896  73.463  1.00  0.00    -0.281 C  
HETATM   40  C   UNL     1     -10.509   8.113  72.293  1.00  0.00    -0.302 C  
HETATM   41  C   UNL     1     -13.046   9.096  71.385  1.00  0.00    -0.363 C  
HETATM   42  C   UNL     1     -14.149   6.876  71.537  1.00  0.00    -0.301 C  
BRANCH  37  43
HETATM   43  O   UNL     1     -12.278   7.295  70.022  1.00  0.00     0.139 OA 
HETATM   44  C   UNL     1     -11.330   6.256  69.872  1.00  0.00    -0.434 C  
ENDBRANCH  37  43
ENDBRANCH  32  33
ENDBRANCH   9  32
BRANCH  13  45
HETATM   45  O   UNL     1      -7.666   8.385  68.876  1.00  0.00    -0.100 OA 
BRANCH  45  46
HETATM   46  C   UNL     1      -7.716   7.414  69.932  1.00  0.00    -0.099 C  
HETATM   47  C   UNL     1      -5.913   7.329  73.099  1.00  0.00    -0.055 C  
HETATM   48  C   UNL     1      -7.459   4.866  70.501  1.00  0.00    -0.058 C  
HETATM   49  C   UNL     1      -7.688   5.966  69.444  1.00  0.00    -0.093 C  
HETATM   50  C   UNL     1      -6.478   5.387  71.572  1.00  0.00    -0.040 C  
HETATM   51  H   UNL     1      -8.880   4.828  68.418  1.00  0.00     0.000 HD 
HETATM   52  O   UNL     1      -8.897   5.728  68.721  1.00  0.00    -0.110 OA 
HETATM   53  O   UNL     1      -6.666   7.667  70.864  1.00  0.00    -0.042 OA 
HETATM   54  C   UNL     1      -6.821   6.813  72.002  1.00  0.00    -0.063 C  
BRANCH  48  55
HETATM   55  N   UNL     1      -6.941   3.608  69.859  1.00  0.00    -0.041 NA 
HETATM   56  C   UNL     1      -5.861   3.848  68.904  1.00  0.00    -0.022 C  
HETATM   57  C   UNL     1      -6.571   2.534  70.774  1.00  0.00    -0.031 C  
ENDBRANCH  48  55
ENDBRANCH  45  46
ENDBRANCH  13  45
ENDBRANCH   2   3
TORSDOF 7
ENDMDL
MODEL        9
REMARK 921   NORMALIZED FREE ENERGY PREDICTED BY IDOCK:   -4.18 KCAL/MOL
REMARK 922        TOTAL FREE ENERGY PREDICTED BY IDOCK:   -8.47 KCAL/MOL
REMARK 923 INTER-LIGAND FREE ENERGY PREDICTED BY IDOCK:   -7.80 KCAL/MOL
REMARK 924 INTRA-LIGAND FREE ENERGY PREDICTED BY IDOCK:   -0.67 KCAL/MOL
REMARK 927      BINDING AFFINITY PREDICTED BY RF-SCORE:    0.00 PKD
ROOT
HETATM    1  C   UNL     1     -13.334   7.514  71.777  1.00  0.00    -0.370 C  
HETATM    2  C   UNL     1     -11.872   7.665  72.172  1.00  0.00    -0.352 C  
ENDROOT
BRANCH   2   3
HETATM    3  C   UNL     1     -11.068   6.339  72.147  1.00  0.00    -0.269 C  
HETATM    4  O   UNL     1     -10.768   5.727  70.840  1.00  0.00    -0.251 OA 
HETATM    5  C   UNL     1     -10.546   6.437  69.712  1.00  0.00    -0.254 C  
HETATM    6  C   UNL     1     -10.204   5.551  68.499  1.00  0.00    -0.250 C  
HETATM    7  O   UNL     1     -10.664   7.648  69.647  1.00  0.00    -0.242 OA 
HETATM    8  C   UNL     1      -9.981   4.091  68.917  1.00  0.00     0.094 C  
HETATM    9  C   UNL     1      -9.053   6.076  67.511  1.00  0.00    -0.109 C  
HETATM   10  C   UNL     1      -6.157   9.044  73.767  1.00  0.00     0.037 C  
HETATM   11  C   UNL     1      -8.901   7.665  67.473  1.00  0.00    -0.124 C  
HETATM   12  C   UNL     1      -6.926   6.174  71.430  1.00  0.00    -0.076 C  
HETATM   13  C   UNL     1      -7.583   8.274  66.749  1.00  0.00    -0.091 C  
HETATM   14  C   UNL     1     -10.264   8.132  66.911  1.00  0.00    -0.387 C  
HETATM   15  C   UNL     1      -7.186   7.124  72.605  1.00  0.00    -0.072 C  
HETATM   16  C   UNL     1      -8.721   7.449  72.797  1.00  0.00    -0.126 C  
HETATM   17  C   UNL     1      -6.146   8.663  67.463  1.00  0.00    -0.052 C  
HETATM   18  C   UNL     1      -5.852   8.199  68.921  1.00  0.00    -0.035 C  
HETATM   19  C   UNL     1      -9.756   6.285  73.019  1.00  0.00    -0.154 C  
HETATM   20  C   UNL     1      -5.548  10.059  67.246  1.00  0.00    -0.042 C  
HETATM   21  H   UNL     1      -8.363   4.963  73.328  1.00  0.00     0.000 HD 
HETATM   22  O   UNL     1      -5.187   7.870  66.656  1.00  0.00    -0.026 OA 
HETATM   23  C   UNL     1      -5.923   9.221  70.104  1.00  0.00    -0.035 C  
HETATM   24  H   UNL     1     -10.077   8.520  71.878  1.00  0.00     0.000 HD 
HETATM   25  N   UNL     1      -6.463   8.419  72.482  1.00  0.00    -0.084 NA 
HETATM   26  C   UNL     1      -7.237   9.979  70.235  1.00  0.00    -0.155 C  
HETATM   27  H   UNL     1      -4.361   8.094  67.067  1.00  0.00     0.000 HD 
HETATM   28  C   UNL     1     -10.130   6.250  74.514  1.00  0.00    -0.353 C  
HETATM   29  C   UNL     1      -5.427   8.647  71.473  1.00  0.00    -0.038 C  
HETATM   30  O   UNL     1      -9.154   4.995  72.802  1.00  0.00    -0.129 OA 
HETATM   31  O   UNL     1      -9.154   8.325  71.763  1.00  0.00    -0.156 OA 
BRANCH   9  32
HETATM   32  O   UNL     1      -9.480   5.529  66.225  1.00  0.00    -0.152 OA 
BRANCH  32  33
HETATM   33  C   UNL     1      -8.590   5.566  65.114  1.00  0.00    -0.141 C  
HETATM   34  O   UNL     1      -8.711   1.590  63.636  1.00  0.00    -0.079 OA 
HETATM   35  C   UNL     1      -8.380   2.962  63.858  1.00  0.00    -0.086 C  
HETATM   36  H   UNL     1      -9.145   1.448  62.803  1.00  0.00     0.000 HD 
HETATM   37  C   UNL     1      -7.672   3.193  65.220  1.00  0.00    -0.081 C  
HETATM   38  O   UNL     1      -9.261   5.252  63.887  1.00  0.00     0.157 OA 
HETATM   39  C   UNL     1     -10.257   3.740  62.355  1.00  0.00    -0.163 C  
HETATM   40  C   UNL     1      -9.615   3.881  63.735  1.00  0.00    -0.157 C  
HETATM   41  C   UNL     1      -7.342   4.699  65.282  1.00  0.00    -0.076 C  
HETATM   42  C   UNL     1      -6.351   2.423  65.342  1.00  0.00    -0.024 C  
BRANCH  37  43
HETATM   43  O   UNL     1      -8.520   2.922  66.350  1.00  0.00    -0.095 OA 
HETATM   44  C   UNL     1      -8.553   1.609  66.876  1.00  0.00    -0.101 C  
ENDBRANCH  37  43
ENDBRANCH  32  33
ENDBRANCH   9  32
BRANCH  13  45
HETATM   45  O   UNL     1      -7.774   9.011  65.509  1.00  0.00    -0.088 OA 
BRANCH  45  46
HETATM   46  C   UNL     1      -8.203  10.381  65.527  1.00  0.00    -0.162 C  
HETATM   47  C   UNL     1      -8.314  12.747  68.298  1.00  0.00    -0.161 C  
HETATM   48  C   UNL     1     -10.185  12.003  64.958  1.00  0.00    -0.276 C  
HETATM   49  C   UNL     1      -9.503  10.633  64.765  1.00  0.00    -0.256 C  
HETATM   50  C   UNL     1      -9.989  12.467  66.416  1.00  0.00    -0.254 C  
HETATM   51  H   UNL     1     -10.059  10.542  62.906  1.00  0.00     0.000 HD 
HETATM   52  O   UNL     1      -9.250  10.385  63.380  1.00  0.00    -0.231 OA 
HETATM   53  O   UNL     1      -8.297  10.835  66.875  1.00  0.00    -0.126 OA 
HETATM   54  C   UNL     1      -8.553  12.243  66.889  1.00  0.00    -0.182 C  
BRANCH  48  55
HETATM   55  N   UNL     1     -11.645  11.927  64.605  1.00  0.00    -0.286 NA 
HETATM   56  C   UNL     1     -12.503  12.660  65.534  1.00  0.00    -0.276 C  
HETATM   57  C   UNL     1     -11.985  12.275  63.229  1.00  0.00    -0.403 C  
ENDBRANCH  48  55
ENDBRANCH  45  46
ENDBRANCH  13  45
ENDBRANCH   2   3
TORSDOF 7
ENDMDL
MODEL       10
REMARK 921   NORMALIZED FREE ENERGY PREDICTED BY IDOCK:   -4.05 KCAL/MOL
REMARK 922        TOTAL FREE ENERGY PREDICTED BY IDOCK:   -8.29 KCAL/MOL
REMARK 923 INTER-LIGAND FREE ENERGY PREDICTED BY IDOCK:   -9.49 KCAL/MOL
REMARK 924 INTRA-LIGAND FREE ENERGY PREDICTED BY IDOCK:    1.20 KCAL/MOL
REMARK 927      BINDING AFFINITY PREDICTED BY RF-SCORE:    0.00 PKD
ROOT
HETATM    1  C   UNL     1      -8.777   2.033  67.263  1.00  0.00    -0.136 C  
HETATM    2  C   UNL     1      -9.106   3.382  67.886  1.00  0.00    -0.207 C  
ENDROOT
BRANCH   2   3
HETATM    3  C   UNL     1      -7.961   3.980  68.746  1.00  0.00    -0.071 C  
HETATM    4  O   UNL     1      -7.534   5.365  68.476  1.00  0.00    -0.073 OA 
HETATM    5  C   UNL     1      -8.370   6.339  68.054  1.00  0.00    -0.114 C  
HETATM    6  C   UNL     1      -7.674   7.705  67.899  1.00  0.00    -0.115 C  
HETATM    7  O   UNL     1      -9.537   6.145  67.768  1.00  0.00    -0.115 OA 
HETATM    8  C   UNL     1      -6.250   7.677  68.473  1.00  0.00    -0.039 C  
HETATM    9  C   UNL     1      -8.490   9.001  68.379  1.00  0.00    -0.129 C  
HETATM   10  C   UNL     1     -11.386   4.297  73.460  1.00  0.00    -0.226 C  
HETATM   11  C   UNL     1     -10.076   8.841  68.295  1.00  0.00    -0.220 C  
HETATM   12  C   UNL     1      -8.640   6.483  72.058  1.00  0.00    -0.125 C  
HETATM   13  C   UNL     1     -10.983   9.965  69.034  1.00  0.00    -0.190 C  
HETATM   14  C   UNL     1     -10.327   8.652  66.781  1.00  0.00    -0.336 C  
HETATM   15  C   UNL     1      -9.417   5.177  72.260  1.00  0.00    -0.138 C  
HETATM   16  C   UNL     1      -9.431   4.270  70.963  1.00  0.00    -0.166 C  
HETATM   17  C   UNL     1     -11.570   9.912  70.577  1.00  0.00    -0.309 C  
HETATM   18  C   UNL     1     -11.043   8.836  71.573  1.00  0.00    -0.377 C  
HETATM   19  C   UNL     1      -8.078   3.805  70.308  1.00  0.00    -0.049 C  
HETATM   20  C   UNL     1     -13.067  10.140  70.823  1.00  0.00    -0.351 C  
HETATM   21  H   UNL     1      -7.018   4.372  71.838  1.00  0.00     0.000 HD 
HETATM   22  O   UNL     1     -11.045  11.180  71.139  1.00  0.00     0.359 OA 
HETATM   23  C   UNL     1     -11.926   7.596  71.934  1.00  0.00    -0.331 C  
HETATM   24  H   UNL     1     -10.305   4.299  69.213  1.00  0.00     0.000 HD 
HETATM   25  N   UNL     1     -10.830   5.393  72.671  1.00  0.00    -0.241 NA 
HETATM   26  C   UNL     1     -12.409   6.770  70.749  1.00  0.00    -0.289 C  
HETATM   27  H   UNL     1     -11.383  11.149  72.027  1.00  0.00     0.000 HD 
HETATM   28  C   UNL     1      -7.842   2.329  70.682  1.00  0.00    -0.046 C  
HETATM   29  C   UNL     1     -11.337   6.706  73.079  1.00  0.00    -0.063 C  
HETATM   30  O   UNL     1      -6.948   4.477  70.896  1.00  0.00    -0.035 OA 
HETATM   31  O   UNL     1     -10.297   4.844  69.992  1.00  0.00    -0.268 OA 
BRANCH   9  32
HETATM   32  O   UNL     1      -7.988  10.032  67.475  1.00  0.00    -0.105 OA 
BRANCH  32  33
HETATM   33  C   UNL     1      -6.591  10.306  67.425  1.00  0.00    -0.068 C  
HETATM   34  O   UNL     1      -6.058  13.213  70.470  1.00  0.00    -0.335 OA 
HETATM   35  C   UNL     1      -5.852  12.321  69.373  1.00  0.00    -0.092 C  
HETATM   36  H   UNL     1      -5.594  12.942  71.254  1.00  0.00     0.000 HD 
HETATM   37  C   UNL     1      -6.611  12.763  68.093  1.00  0.00    -0.088 C  
HETATM   38  O   UNL     1      -5.941   9.975  68.658  1.00  0.00    -0.042 OA 
HETATM   39  C   UNL     1      -5.396  10.383  70.930  1.00  0.00    -0.082 C  
HETATM   40  C   UNL     1      -6.218  10.865  69.735  1.00  0.00    -0.103 C  
HETATM   41  C   UNL     1      -6.248  11.735  67.001  1.00  0.00    -0.152 C  
HETATM   42  C   UNL     1      -6.175  14.146  67.591  1.00  0.00    -0.102 C  
BRANCH  37  43
HETATM   43  O   UNL     1      -8.042  12.707  68.237  1.00  0.00    -0.152 OA 
HETATM   44  C   UNL     1      -8.726  13.860  68.689  1.00  0.00    -0.075 C  
ENDBRANCH  37  43
ENDBRANCH  32  33
ENDBRANCH   9  32
BRANCH  13  45
HETATM   45  O   UNL     1     -11.777  10.850  68.196  1.00  0.00    -0.506 OA 
BRANCH  45  46
HETATM   46  C   UNL     1     -11.418  12.231  68.038  1.00  0.00    -0.321 C  
HETATM   47  C   UNL     1     -12.408  15.131  70.011  1.00  0.00    -0.356 C  
HETATM   48  C   UNL     1     -11.375  14.244  66.356  1.00  0.00    -0.343 C  
HETATM   49  C   UNL     1     -11.472  12.723  66.592  1.00  0.00    -0.350 C  
HETATM   50  C   UNL     1     -12.103  14.982  67.499  1.00  0.00     0.065 C  
HETATM   51  H   UNL     1     -10.490  12.339  64.961  1.00  0.00     0.000 HD 
HETATM   52  O   UNL     1     -10.457  12.033  65.860  1.00  0.00    -0.240 OA 
HETATM   53  O   UNL     1     -12.229  13.036  68.890  1.00  0.00    -0.232 OA 
HETATM   54  C   UNL     1     -11.756  14.386  68.864  1.00  0.00    -0.322 C  
BRANCH  48  55
HETATM   55  N   UNL     1     -11.952  14.615  65.018  1.00  0.00    -0.379 NA 
HETATM   56  C   UNL     1     -11.307  15.778  64.413  1.00  0.00    -0.265 C  
HETATM   57  C   UNL     1     -12.047  13.532  64.045  1.00  0.00    -0.441 C  
ENDBRANCH  48  55
ENDBRANCH  45  46
ENDBRANCH  13  45
ENDBRANCH   2   3
TORSDOF 7
ENDMDL
MODEL       11
REMARK 921   NORMALIZED FREE ENERGY PREDICTED BY IDOCK:   -3.95 KCAL/MOL
REMARK 922        TOTAL FREE ENERGY PREDICTED BY IDOCK:   -8.15 KCAL/MOL
REMARK 923 INTER-LIGAND FREE ENERGY PREDICTED BY IDOCK:   -6.84 KCAL/MOL
REMARK 924 INTRA-LIGAND FREE ENERGY PREDICTED BY IDOCK:   -1.31 KCAL/MOL
REMARK 927      BINDING AFFINITY PREDICTED BY RF-SCORE:    0.00 PKD
ROOT
HETATM    1  C   UNL     1      -5.297  17.192  70.674  1.00  0.00    -0.223 C  
HETATM    2  C   UNL     1      -5.499  15.753  70.219  1.00  0.00    -0.156 C  
ENDROOT
BRANCH   2   3
HETATM    3  C   UNL     1      -5.499  15.568  68.679  1.00  0.00    -0.093 C  
HETATM    4  O   UNL     1      -5.491  14.196  68.139  1.00  0.00    -0.106 OA 
HETATM    5  C   UNL     1      -6.094  13.149  68.743  1.00  0.00    -0.079 C  
HETATM    6  C   UNL     1      -5.976  11.840  67.939  1.00  0.00    -0.050 C  
HETATM    7  O   UNL     1      -6.625  13.219  69.837  1.00  0.00    -0.040 OA 
HETATM    8  C   UNL     1      -5.392  12.091  66.542  1.00  0.00     0.235 C  
HETATM    9  C   UNL     1      -7.272  10.894  67.888  1.00  0.00    -0.086 C  
HETATM   10  C   UNL     1     -11.029  17.381  68.250  1.00  0.00    -0.148 C  
HETATM   11  C   UNL     1      -8.228  11.027  69.159  1.00  0.00    -0.052 C  
HETATM   12  C   UNL     1      -8.979  14.758  66.459  1.00  0.00    -0.267 C  
HETATM   13  C   UNL     1      -9.699  10.349  69.065  1.00  0.00    -0.206 C  
HETATM   14  C   UNL     1      -7.330  10.546  70.323  1.00  0.00     0.190 C  
HETATM   15  C   UNL     1      -9.202  16.036  67.277  1.00  0.00    -0.205 C  
HETATM   16  C   UNL     1      -8.052  16.291  68.332  1.00  0.00    -0.183 C  
HETATM   17  C   UNL     1     -11.099  11.075  68.573  1.00  0.00    -0.243 C  
HETATM   18  C   UNL     1     -11.049  12.467  67.876  1.00  0.00    -0.286 C  
HETATM   19  C   UNL     1      -6.556  16.404  67.861  1.00  0.00    -0.133 C  
HETATM   20  C   UNL     1     -12.342  11.000  69.469  1.00  0.00    -0.266 C  
HETATM   21  H   UNL     1      -7.046  16.539  65.983  1.00  0.00     0.000 HD 
HETATM   22  O   UNL     1     -11.539  10.167  67.486  1.00  0.00    -0.503 OA 
HETATM   23  C   UNL     1     -11.471  13.755  68.658  1.00  0.00    -0.336 C  
HETATM   24  H   UNL     1      -7.488  15.521  70.040  1.00  0.00     0.000 HD 
HETATM   25  N   UNL     1     -10.496  16.042  68.012  1.00  0.00    -0.266 NA 
HETATM   26  C   UNL     1     -10.736  13.994  69.969  1.00  0.00     0.376 C  
HETATM   27  H   UNL     1     -12.344  10.584  67.203  1.00  0.00     0.000 HD 
HETATM   28  C   UNL     1      -6.156  17.893  67.871  1.00  0.00    -0.156 C  
HETATM   29  C   UNL     1     -11.541  15.044  67.771  1.00  0.00    -0.319 C  
HETATM   30  O   UNL     1      -6.408  16.035  66.476  1.00  0.00    -0.095 OA 
HETATM   31  O   UNL     1      -8.179  15.367  69.406  1.00  0.00    -0.236 OA 
BRANCH   9  32
HETATM   32  O   UNL     1      -6.676   9.564  67.779  1.00  0.00    -0.066 OA 
BRANCH  32  33
HETATM   33  C   UNL     1      -7.502   8.445  67.470  1.00  0.00    -0.094 C  
HETATM   34  O   UNL     1      -5.567   6.700  64.122  1.00  0.00    -0.029 OA 
HETATM   35  C   UNL     1      -6.496   7.011  65.161  1.00  0.00    -0.043 C  
HETATM   36  H   UNL     1      -5.133   5.865  64.255  1.00  0.00     0.000 HD 
HETATM   37  C   UNL     1      -7.203   8.375  64.942  1.00  0.00    -0.084 C  
HETATM   38  O   UNL     1      -6.786   7.209  67.590  1.00  0.00    -0.068 OA 
HETATM   39  C   UNL     1      -5.229   5.591  66.826  1.00  0.00    -0.005 C  
HETATM   40  C   UNL     1      -5.836   6.969  66.557  1.00  0.00    -0.030 C  
HETATM   41  C   UNL     1      -8.197   8.536  66.112  1.00  0.00    -0.115 C  
HETATM   42  C   UNL     1      -8.008   8.425  63.638  1.00  0.00    -0.159 C  
BRANCH  37  43
HETATM   43  O   UNL     1      -6.304   9.496  65.023  1.00  0.00    -0.076 OA 
HETATM   44  C   UNL     1      -5.973  10.189  63.835  1.00  0.00    -0.140 C  
ENDBRANCH  37  43
ENDBRANCH  32  33
ENDBRANCH   9  32
BRANCH  13  45
HETATM   45  O   UNL     1      -9.969   9.201  69.918  1.00  0.00    -0.180 OA 
BRANCH  45  46
HETATM   46  C   UNL     1      -9.646   7.871  69.484  1.00  0.00    -0.160 C  
HETATM   47  C   UNL     1     -11.058   5.907  66.757  1.00  0.00    -0.157 C  
HETATM   48  C   UNL     1      -9.415   5.374  70.254  1.00  0.00    -0.163 C  
HETATM   49  C   UNL     1      -9.486   6.869  70.626  1.00  0.00    -0.165 C  
HETATM   50  C   UNL     1     -10.346   5.105  69.054  1.00  0.00    -0.205 C  
HETATM   51  H   UNL     1      -8.239   6.633  72.096  1.00  0.00     0.000 HD 
HETATM   52  O   UNL     1      -8.339   7.256  71.386  1.00  0.00    -0.109 OA 
HETATM   53  O   UNL     1     -10.616   7.428  68.538  1.00  0.00    -0.199 OA 
HETATM   54  C   UNL     1     -10.200   6.179  67.976  1.00  0.00    -0.175 C  
BRANCH  48  55
HETATM   55  N   UNL     1      -9.783   4.512  71.430  1.00  0.00    -0.169 NA 
HETATM   56  C   UNL     1      -8.624   3.966  72.132  1.00  0.00    -0.100 C  
HETATM   57  C   UNL     1     -10.714   5.105  72.385  1.00  0.00    -0.216 C  
ENDBRANCH  48  55
ENDBRANCH  45  46
ENDBRANCH  13  45
ENDBRANCH   2   3
TORSDOF 7
ENDMDL
MODEL       12
REMARK 921   NORMALIZED FREE ENERGY PREDICTED BY IDOCK:   -3.68 KCAL/MOL
REMARK 922        TOTAL FREE ENERGY PREDICTED BY IDOCK:   -7.76 KCAL/MOL
REMARK 923 INTER-LIGAND FREE ENERGY PREDICTED BY IDOCK:   -6.69 KCAL/MOL
REMARK 924 INTRA-LIGAND FREE ENERGY PREDICTED BY IDOCK:   -1.07 KCAL/MOL
REMARK 927      BINDING AFFINITY PREDICTED BY RF-SCORE:    0.00 PKD
ROOT
HETATM    1  C   UNL     1     -12.417  13.383  65.126  1.00  0.00    -0.509 C  
HETATM    2  C   UNL     1     -11.150  12.883  65.806  1.00  0.00    -0.312 C  
ENDROOT
BRANCH   2   3
HETATM    3  C   UNL     1     -11.073  13.206  67.321  1.00  0.00    -0.279 C  
HETATM    4  O   UNL     1     -11.352  12.124  68.283  1.00  0.00    -0.244 OA 
HETATM    5  C   UNL     1     -11.052  10.825  68.058  1.00  0.00    -0.299 C  
HETATM    6  C   UNL     1     -11.403   9.911  69.248  1.00  0.00    -0.116 C  
HETATM    7  O   UNL     1     -10.606  10.412  67.003  1.00  0.00    -0.243 OA 
HETATM    8  C   UNL     1     -11.804  10.729  70.483  1.00  0.00    -0.453 C  
HETATM    9  C   UNL     1     -10.358   8.748  69.610  1.00  0.00    -0.213 C  
HETATM   10  C   UNL     1      -5.259  13.670  67.140  1.00  0.00     0.724 C  
HETATM   11  C   UNL     1      -9.499   8.233  68.367  1.00  0.00    -0.144 C  
HETATM   12  C   UNL     1      -7.707  12.334  69.690  1.00  0.00     1.008 C  
HETATM   13  C   UNL     1      -8.219   7.287  68.682  1.00  0.00    -0.125 C  
HETATM   14  C   UNL     1     -10.570   7.637  67.425  1.00  0.00    -0.356 C  
HETATM   15  C   UNL     1      -7.263  13.189  68.498  1.00  0.00    -0.110 C  
HETATM   16  C   UNL     1      -8.403  13.363  67.415  1.00  0.00    -0.190 C  
HETATM   17  C   UNL     1      -6.656   7.772  68.910  1.00  0.00    -0.049 C  
HETATM   18  C   UNL     1      -6.332   9.282  69.110  1.00  0.00    -0.042 C  
HETATM   19  C   UNL     1      -9.793  13.979  67.821  1.00  0.00    -0.232 C  
HETATM   20  C   UNL     1      -5.536   7.117  68.092  1.00  0.00    -0.021 C  
HETATM   21  H   UNL     1      -9.140  14.585  69.550  1.00  0.00     0.000 HD 
HETATM   22  O   UNL     1      -6.352   7.181  70.236  1.00  0.00    -0.033 OA 
HETATM   23  C   UNL     1      -5.689  10.111  67.949  1.00  0.00    -0.041 C  
HETATM   24  H   UNL     1      -9.259  12.248  66.055  1.00  0.00     0.000 HD 
HETATM   25  N   UNL     1      -6.063  12.647  67.804  1.00  0.00    -0.111 NA 
HETATM   26  C   UNL     1      -6.450  10.087  66.630  1.00  0.00    -0.072 C  
HETATM   27  H   UNL     1      -5.453   7.460  70.367  1.00  0.00     0.000 HD 
HETATM   28  C   UNL     1      -9.841  15.436  67.320  1.00  0.00    -0.217 C  
HETATM   29  C   UNL     1      -5.258  11.559  68.362  1.00  0.00    -0.039 C  
HETATM   30  O   UNL     1      -9.912  14.119  69.250  1.00  0.00    -0.045 OA 
HETATM   31  O   UNL     1      -8.574  12.143  66.705  1.00  0.00    -0.191 OA 
BRANCH   9  32
HETATM   32  O   UNL     1     -11.232   7.708  70.149  1.00  0.00    -0.254 OA 
BRANCH  32  33
HETATM   33  C   UNL     1     -11.509   7.676  71.546  1.00  0.00    -0.264 C  
HETATM   34  O   UNL     1      -8.335   5.337  73.115  1.00  0.00    -0.114 OA 
HETATM   35  C   UNL     1      -9.536   6.096  72.965  1.00  0.00    -0.142 C  
HETATM   36  H   UNL     1      -7.681   5.785  73.638  1.00  0.00     0.000 HD 
HETATM   37  C   UNL     1     -10.603   5.363  72.110  1.00  0.00    -0.227 C  
HETATM   38  O   UNL     1     -10.455   8.275  72.310  1.00  0.00    -0.269 OA 
HETATM   39  C   UNL     1      -8.292   8.274  73.283  1.00  0.00    -0.251 C  
HETATM   40  C   UNL     1      -9.262   7.502  72.388  1.00  0.00    -0.147 C  
HETATM   41  C   UNL     1     -11.841   6.284  72.086  1.00  0.00    -0.365 C  
HETATM   42  C   UNL     1     -11.034   4.022  72.717  1.00  0.00    -0.077 C  
BRANCH  37  43
HETATM   43  O   UNL     1     -10.206   5.191  70.737  1.00  0.00    -0.223 OA 
HETATM   44  C   UNL     1      -9.594   3.974  70.354  1.00  0.00    -0.195 C  
ENDBRANCH  37  43
ENDBRANCH  32  33
ENDBRANCH   9  32
BRANCH  13  45
HETATM   45  O   UNL     1      -8.285   5.898  68.255  1.00  0.00    -0.108 OA 
BRANCH  45  46
HETATM   46  C   UNL     1      -7.804   5.502  66.961  1.00  0.00    -0.101 C  
HETATM   47  C   UNL     1      -7.259   7.513  63.969  1.00  0.00    -0.077 C  
HETATM   48  C   UNL     1      -8.185   3.855  64.956  1.00  0.00    -0.097 C  
HETATM   49  C   UNL     1      -8.426   4.209  66.438  1.00  0.00    -0.108 C  
HETATM   50  C   UNL     1      -8.169   5.151  64.120  1.00  0.00    -0.131 C  
HETATM   51  H   UNL     1      -8.383   2.340  66.963  1.00  0.00     0.000 HD 
HETATM   52  O   UNL     1      -7.996   3.144  67.288  1.00  0.00    -0.077 OA 
HETATM   53  O   UNL     1      -7.982   6.574  66.038  1.00  0.00    -0.103 OA 
HETATM   54  C   UNL     1      -7.346   6.247  64.798  1.00  0.00    -0.075 C  
BRANCH  48  55
HETATM   55  N   UNL     1      -9.236   2.901  64.457  1.00  0.00    -0.130 NA 
HETATM   56  C   UNL     1      -9.608   3.129  63.062  1.00  0.00    -0.094 C  
HETATM   57  C   UNL     1      -8.966   1.485  64.679  1.00  0.00    -0.110 C  
ENDBRANCH  48  55
ENDBRANCH  45  46
ENDBRANCH  13  45
ENDBRANCH   2   3
TORSDOF 7
ENDMDL
MODEL       13
REMARK 921   NORMALIZED FREE ENERGY PREDICTED BY IDOCK:   -3.24 KCAL/MOL
REMARK 922        TOTAL FREE ENERGY PREDICTED BY IDOCK:   -7.15 KCAL/MOL
REMARK 923 INTER-LIGAND FREE ENERGY PREDICTED BY IDOCK:   -6.74 KCAL/MOL
REMARK 924 INTRA-LIGAND FREE ENERGY PREDICTED BY IDOCK:   -0.41 KCAL/MOL
REMARK 927      BINDING AFFINITY PREDICTED BY RF-SCORE:    0.00 PKD
ROOT
HETATM    1  C   UNL     1     -12.390  12.434  63.609  1.00  0.00    -0.647 C  
HETATM    2  C   UNL     1     -11.588  11.976  64.819  1.00  0.00    -0.344 C  
ENDROOT
BRANCH   2   3
HETATM    3  C   UNL     1     -12.064  12.585  66.164  1.00  0.00    -0.286 C  
HETATM    4  O   UNL     1     -12.188  11.693  67.331  1.00  0.00    -0.458 OA 
HETATM    5  C   UNL     1     -11.386  10.628  67.550  1.00  0.00    -0.162 C  
HETATM    6  C   UNL     1     -11.699   9.898  68.870  1.00  0.00     0.240 C  
HETATM    7  O   UNL     1     -10.542  10.249  66.758  1.00  0.00    -0.231 OA 
HETATM    8  C   UNL     1     -12.701  10.689  69.723  1.00  0.00     0.028 C  
HETATM    9  C   UNL     1     -10.450   9.382  69.735  1.00  0.00    -0.226 C  
HETATM   10  C   UNL     1      -7.022  15.427  66.901  1.00  0.00     0.312 C  
HETATM   11  C   UNL     1      -9.149   9.052  68.870  1.00  0.00    -0.140 C  
HETATM   12  C   UNL     1      -9.427  13.696  69.247  1.00  0.00     0.572 C  
HETATM   13  C   UNL     1      -7.757   8.819  69.669  1.00  0.00    -0.088 C  
HETATM   14  C   UNL     1      -9.618   7.889  67.965  1.00  0.00    -0.168 C  
HETATM   15  C   UNL     1      -9.008  14.412  67.958  1.00  0.00    -0.183 C  
HETATM   16  C   UNL     1      -9.778  13.875  66.685  1.00  0.00    -0.289 C  
HETATM   17  C   UNL     1      -6.611   9.954  70.023  1.00  0.00    -0.091 C  
HETATM   18  C   UNL     1      -6.930  11.467  69.832  1.00  0.00     0.119 C  
HETATM   19  C   UNL     1     -11.350  13.908  66.639  1.00  0.00    -0.331 C  
HETATM   20  C   UNL     1      -5.147   9.693  69.644  1.00  0.00    -0.034 C  
HETATM   21  H   UNL     1     -11.479  15.052  68.206  1.00  0.00     0.000 HD 
HETATM   22  O   UNL     1      -6.499   9.815  71.496  1.00  0.00    -0.308 OA 
HETATM   23  C   UNL     1      -6.334  12.250  68.615  1.00  0.00    -0.071 C  
HETATM   24  H   UNL     1      -9.749  12.263  65.576  1.00  0.00     0.000 HD 
HETATM   25  N   UNL     1      -7.550  14.308  67.678  1.00  0.00    -0.162 NA 
HETATM   26  C   UNL     1      -6.629  11.654  67.246  1.00  0.00    -0.122 C  
HETATM   27  H   UNL     1      -5.840  10.468  71.699  1.00  0.00     0.000 HD 
HETATM   28  C   UNL     1     -11.783  15.081  65.738  1.00  0.00    -0.104 C  
HETATM   29  C   UNL     1      -6.596  13.793  68.662  1.00  0.00    -0.096 C  
HETATM   30  O   UNL     1     -11.910  14.255  67.921  1.00  0.00    -0.342 OA 
HETATM   31  O   UNL     1      -9.285  12.586  66.341  1.00  0.00    -0.230 OA 
BRANCH   9  32
HETATM   32  O   UNL     1     -10.998   8.194  70.386  1.00  0.00    -0.246 OA 
BRANCH  32  33
HETATM   33  C   UNL     1     -11.454   8.277  71.733  1.00  0.00    -0.293 C  
HETATM   34  O   UNL     1      -9.007   5.468  73.765  1.00  0.00    -0.124 OA 
HETATM   35  C   UNL     1     -10.013   6.428  73.438  1.00  0.00    -0.191 C  
HETATM   36  H   UNL     1      -8.353   5.812  74.363  1.00  0.00     0.000 HD 
HETATM   37  C   UNL     1     -11.080   5.866  72.462  1.00  0.00    -0.283 C  
HETATM   38  O   UNL     1     -10.413   8.707  72.620  1.00  0.00    -0.250 OA 
HETATM   39  C   UNL     1      -8.433   8.352  73.876  1.00  0.00    -0.143 C  
HETATM   40  C   UNL     1      -9.407   7.731  72.875  1.00  0.00    -0.219 C  
HETATM   41  C   UNL     1     -12.109   6.997  72.252  1.00  0.00    -0.216 C  
HETATM   42  C   UNL     1     -11.831   4.656  73.034  1.00  0.00    -0.060 C  
BRANCH  37  43
HETATM   43  O   UNL     1     -10.550   5.560  71.160  1.00  0.00    -0.240 OA 
HETATM   44  C   UNL     1     -10.143   4.233  70.885  1.00  0.00    -0.091 C  
ENDBRANCH  37  43
ENDBRANCH  32  33
ENDBRANCH   9  32
BRANCH  13  45
HETATM   45  O   UNL     1      -7.189   7.479  69.658  1.00  0.00    -0.073 OA 
BRANCH  45  46
HETATM   46  C   UNL     1      -6.548   6.962  68.482  1.00  0.00    -0.058 C  
HETATM   47  C   UNL     1      -7.362   7.488  64.968  1.00  0.00    -0.078 C  
HETATM   48  C   UNL     1      -5.766   4.772  67.268  1.00  0.00    -0.021 C  
HETATM   49  C   UNL     1      -6.199   5.477  68.570  1.00  0.00    -0.030 C  
HETATM   50  C   UNL     1      -6.565   5.356  66.084  1.00  0.00    -0.048 C  
HETATM   51  H   UNL     1      -4.985   4.400  69.637  1.00  0.00     0.000 HD 
HETATM   52  O   UNL     1      -5.202   5.323  69.582  1.00  0.00    -0.003 OA 
HETATM   53  O   UNL     1      -7.353   7.238  67.339  1.00  0.00    -0.087 OA 
HETATM   54  C   UNL     1      -6.636   6.881  66.152  1.00  0.00    -0.052 C  
BRANCH  48  55
HETATM   55  N   UNL     1      -5.965   3.284  67.374  1.00  0.00    -0.023 NA 
HETATM   56  C   UNL     1      -7.204   2.913  68.053  1.00  0.00    -0.049 C  
HETATM   57  C   UNL     1      -5.832   2.536  66.129  1.00  0.00    -0.022 C  
ENDBRANCH  48  55
ENDBRANCH  45  46
ENDBRANCH  13  45
ENDBRANCH   2   3
TORSDOF 7
ENDMDL
MODEL       14
REMARK 921   NORMALIZED FREE ENERGY PREDICTED BY IDOCK:   -3.09 KCAL/MOL
REMARK 922        TOTAL FREE ENERGY PREDICTED BY IDOCK:   -6.94 KCAL/MOL
REMARK 923 INTER-LIGAND FREE ENERGY PREDICTED BY IDOCK:   -6.99 KCAL/MOL
REMARK 924 INTRA-LIGAND FREE ENERGY PREDICTED BY IDOCK:    0.06 KCAL/MOL
REMARK 927      BINDING AFFINITY PREDICTED BY RF-SCORE:    0.00 PKD
ROOT
HETATM    1  C   UNL     1      -7.589   7.685  73.923  1.00  0.00    -0.162 C  
HETATM    2  C   UNL     1      -7.889   7.149  72.531  1.00  0.00    -0.098 C  
ENDROOT
BRANCH   2   3
HETATM    3  C   UNL     1      -9.387   6.831  72.282  1.00  0.00    -0.138 C  
HETATM    4  O   UNL     1     -10.267   7.923  71.827  1.00  0.00    -0.186 OA 
HETATM    5  C   UNL     1      -9.858   8.935  71.030  1.00  0.00    -0.253 C  
HETATM    6  C   UNL     1     -10.992   9.911  70.664  1.00  0.00    -0.405 C  
HETATM    7  O   UNL     1      -8.700   9.091  70.685  1.00  0.00    -0.173 OA 
HETATM    8  C   UNL     1     -12.359   9.375  71.113  1.00  0.00    -0.386 C  
HETATM    9  C   UNL     1     -11.028  10.459  69.156  1.00  0.00    -0.241 C  
HETATM   10  C   UNL     1      -8.151   3.728  67.497  1.00  0.00    -0.090 C  
HETATM   11  C   UNL     1      -9.598  10.514  68.448  1.00  0.00    -0.164 C  
HETATM   12  C   UNL     1     -10.970   6.053  68.463  1.00  0.00    -0.350 C  
HETATM   13  C   UNL     1      -9.564  10.760  66.845  1.00  0.00    -0.171 C  
HETATM   14  C   UNL     1      -8.821  11.536  69.310  1.00  0.00     0.423 C  
HETATM   15  C   UNL     1      -9.809   5.086  68.722  1.00  0.00    -0.168 C  
HETATM   16  C   UNL     1      -8.987   5.456  70.021  1.00  0.00    -0.129 C  
HETATM   17  C   UNL     1      -9.539   9.609  65.662  1.00  0.00    -0.271 C  
HETATM   18  C   UNL     1      -9.828   8.120  66.020  1.00  0.00     0.038 C  
HETATM   19  C   UNL     1      -9.710   5.555  71.415  1.00  0.00    -0.158 C  
HETATM   20  C   UNL     1      -8.460   9.668  64.573  1.00  0.00    -0.186 C  
HETATM   21  H   UNL     1     -11.337   4.722  70.750  1.00  0.00     0.000 HD 
HETATM   22  O   UNL     1     -10.715   9.995  64.845  1.00  0.00     0.079 OA 
HETATM   23  C   UNL     1      -8.657   7.084  66.089  1.00  0.00    -0.148 C  
HETATM   24  H   UNL     1      -7.707   6.838  70.553  1.00  0.00     0.000 HD 
HETATM   25  N   UNL     1      -8.848   5.009  67.589  1.00  0.00    -0.103 NA 
HETATM   26  C   UNL     1      -7.512   7.453  67.021  1.00  0.00    -0.098 C  
HETATM   27  H   UNL     1     -10.701   9.332  64.165  1.00  0.00     0.000 HD 
HETATM   28  C   UNL     1      -9.381   4.285  72.222  1.00  0.00    -0.168 C  
HETATM   29  C   UNL     1      -9.128   5.603  66.280  1.00  0.00    -0.148 C  
HETATM   30  O   UNL     1     -11.143   5.491  71.272  1.00  0.00    -0.186 OA 
HETATM   31  O   UNL     1      -8.201   6.615  69.772  1.00  0.00    -0.123 OA 
BRANCH   9  32
HETATM   32  O   UNL     1     -11.613  11.787  69.326  1.00  0.00    -0.264 OA 
BRANCH  32  33
HETATM   33  C   UNL     1     -11.209  12.600  70.423  1.00  0.00     0.912 C  
HETATM   34  O   UNL     1     -14.146  15.661  70.503  1.00  0.00    -0.672 OA 
HETATM   35  C   UNL     1     -12.990  14.862  70.758  1.00  0.00    -0.365 C  
HETATM   36  H   UNL     1     -14.764  15.653  71.224  1.00  0.00     0.000 HD 
HETATM   37  C   UNL     1     -11.981  14.875  69.580  1.00  0.00    -0.310 C  
HETATM   38  O   UNL     1     -12.208  12.641  71.450  1.00  0.00    -0.081 OA 
HETATM   39  C   UNL     1     -14.272  13.379  72.355  1.00  0.00    -0.399 C  
HETATM   40  C   UNL     1     -13.363  13.409  71.127  1.00  0.00    -0.026 C  
HETATM   41  C   UNL     1     -10.782  14.015  70.030  1.00  0.00     0.376 C  
HETATM   42  C   UNL     1     -11.452  16.280  69.265  1.00  0.00    -0.251 C  
BRANCH  37  43
HETATM   43  O   UNL     1     -12.496  14.252  68.389  1.00  0.00    -0.106 OA 
HETATM   44  C   UNL     1     -12.730  15.056  67.248  1.00  0.00     1.425 C  
ENDBRANCH  37  43
ENDBRANCH  32  33
ENDBRANCH   9  32
BRANCH  13  45
HETATM   45  O   UNL     1      -9.017  12.021  66.367  1.00  0.00    -0.203 OA 
BRANCH  45  46
HETATM   46  C   UNL     1      -9.864  13.165  66.178  1.00  0.00    -0.280 C  
HETATM   47  C   UNL     1     -12.265  13.869  63.527  1.00  0.00    -0.132 C  
HETATM   48  C   UNL     1      -9.901  15.780  65.971  1.00  0.00    -0.337 C  
HETATM   49  C   UNL     1      -9.161  14.501  66.414  1.00  0.00    -0.234 C  
HETATM   50  C   UNL     1     -10.690  15.488  64.677  1.00  0.00    -0.192 C  
HETATM   51  H   UNL     1      -8.379  15.403  67.946  1.00  0.00     0.000 HD 
HETATM   52  O   UNL     1      -8.816  14.573  67.799  1.00  0.00    -0.170 OA 
HETATM   53  O   UNL     1     -10.456  13.113  64.882  1.00  0.00    -0.318 OA 
HETATM   54  C   UNL     1     -11.431  14.153  64.760  1.00  0.00    -0.383 C  
BRANCH  48  55
HETATM   55  N   UNL     1      -8.934  16.915  65.771  1.00  0.00    -0.502 NA 
HETATM   56  C   UNL     1      -9.404  18.180  66.332  1.00  0.00    -0.265 C  
HETATM   57  C   UNL     1      -7.561  16.660  66.190  1.00  0.00    -0.055 C  
ENDBRANCH  48  55
ENDBRANCH  45  46
ENDBRANCH  13  45
ENDBRANCH   2   3
TORSDOF 7
ENDMDL
MODEL       15
REMARK 921   NORMALIZED FREE ENERGY PREDICTED BY IDOCK:   -3.04 KCAL/MOL
REMARK 922        TOTAL FREE ENERGY PREDICTED BY IDOCK:   -6.87 KCAL/MOL
REMARK 923 INTER-LIGAND FREE ENERGY PREDICTED BY IDOCK:   -6.09 KCAL/MOL
REMARK 924 INTRA-LIGAND FREE ENERGY PREDICTED BY IDOCK:   -0.78 KCAL/MOL
REMARK 927      BINDING AFFINITY PREDICTED BY RF-SCORE:    0.00 PKD
ROOT
HETATM    1  C   UNL     1     -12.755   6.563  71.574  1.00  0.00    -0.113 C  
HETATM    2  C   UNL     1     -11.538   7.338  71.090  1.00  0.00    -0.323 C  
ENDROOT
BRANCH   2   3
HETATM    3  C   UNL     1     -11.080   6.968  69.654  1.00  0.00    -0.219 C  
HETATM    4  O   UNL     1     -11.072   8.027  68.629  1.00  0.00     0.119 OA 
HETATM    5  C   UNL     1     -10.806   9.326  68.892  1.00  0.00    -0.099 C  
HETATM    6  C   UNL     1     -10.814  10.211  67.631  1.00  0.00    -0.346 C  
HETATM    7  O   UNL     1     -10.637   9.761  70.017  1.00  0.00    -0.235 OA 
HETATM    8  C   UNL     1     -10.904   9.365  66.353  1.00  0.00     0.258 C  
HETATM    9  C   UNL     1      -9.680  11.341  67.525  1.00  0.00    -0.177 C  
HETATM   10  C   UNL     1      -5.525   6.396  71.346  1.00  0.00    -0.027 C  
HETATM   11  C   UNL     1      -9.157  11.877  68.935  1.00  0.00     0.150 C  
HETATM   12  C   UNL     1      -7.195   7.703  68.218  1.00  0.00    -0.093 C  
HETATM   13  C   UNL     1      -7.815  12.787  68.940  1.00  0.00     0.139 C  
HETATM   14  C   UNL     1     -10.420  12.521  69.553  1.00  0.00     0.501 C  
HETATM   15  C   UNL     1      -7.097   6.876  69.505  1.00  0.00    -0.075 C  
HETATM   16  C   UNL     1      -8.482   6.756  70.259  1.00  0.00    -0.135 C  
HETATM   17  C   UNL     1      -6.260  12.266  69.136  1.00  0.00    -0.089 C  
HETATM   18  C   UNL     1      -5.935  10.743  69.063  1.00  0.00    -0.040 C  
HETATM   19  C   UNL     1      -9.736   6.156  69.522  1.00  0.00    -0.146 C  
HETATM   20  C   UNL     1      -5.372  12.922  70.201  1.00  0.00    -0.112 C  
HETATM   21  H   UNL     1      -8.675   5.487  68.035  1.00  0.00     0.000 HD 
HETATM   22  O   UNL     1      -5.608  12.810  67.921  1.00  0.00    -0.087 OA 
HETATM   23  C   UNL     1      -5.637   9.937  70.370  1.00  0.00    -0.052 C  
HETATM   24  H   UNL     1      -9.630   7.928  71.324  1.00  0.00     0.000 HD 
HETATM   25  N   UNL     1      -6.103   7.414  70.473  1.00  0.00    -0.031 NA 
HETATM   26  C   UNL     1      -6.711  10.015  71.446  1.00  0.00     0.536 C  
HETATM   27  H   UNL     1      -4.713  12.510  68.033  1.00  0.00     0.000 HD 
HETATM   28  C   UNL     1      -9.950   4.716  70.027  1.00  0.00    -0.302 C  
HETATM   29  C   UNL     1      -5.153   8.470  70.116  1.00  0.00    -0.022 C  
HETATM   30  O   UNL     1      -9.485   5.976  68.115  1.00  0.00    -0.115 OA 
HETATM   31  O   UNL     1      -8.798   8.000  70.871  1.00  0.00    -0.134 OA 
BRANCH   9  32
HETATM   32  O   UNL     1     -10.356  12.382  66.753  1.00  0.00    -0.220 OA 
BRANCH  32  33
HETATM   33  C   UNL     1      -9.820  12.789  65.498  1.00  0.00    -0.156 C  
HETATM   34  O   UNL     1     -12.920  15.165  63.838  1.00  0.00    -0.517 OA 
HETATM   35  C   UNL     1     -11.716  14.422  64.034  1.00  0.00    -0.122 C  
HETATM   36  H   UNL     1     -12.768  16.101  63.781  1.00  0.00     0.000 HD 
HETATM   37  C   UNL     1     -11.964  12.893  64.128  1.00  0.00    -0.423 C  
HETATM   38  O   UNL     1      -9.696  14.215  65.412  1.00  0.00    -0.236 OA 
HETATM   39  C   UNL     1     -10.584  16.396  65.135  1.00  0.00    -0.287 C  
HETATM   40  C   UNL     1     -10.928  14.912  65.268  1.00  0.00    -0.380 C  
HETATM   41  C   UNL     1     -10.575  12.240  64.287  1.00  0.00    -0.387 C  
HETATM   42  C   UNL     1     -12.606  12.316  62.860  1.00  0.00     0.243 C  
BRANCH  37  43
HETATM   43  O   UNL     1     -12.720  12.515  65.293  1.00  0.00    -0.654 OA 
HETATM   44  C   UNL     1     -12.979  13.493  66.282  1.00  0.00     0.381 C  
ENDBRANCH  37  43
ENDBRANCH  32  33
ENDBRANCH   9  32
BRANCH  13  45
HETATM   45  O   UNL     1      -7.952  14.190  69.303  1.00  0.00     0.020 OA 
BRANCH  45  46
HETATM   46  C   UNL     1      -7.947  15.213  68.295  1.00  0.00    -0.129 C  
HETATM   47  C   UNL     1      -5.133  16.825  66.631  1.00  0.00     0.000 C  
HETATM   48  C   UNL     1      -8.799  17.621  67.698  1.00  0.00    -0.236 C  
HETATM   49  C   UNL     1      -8.928  16.353  68.566  1.00  0.00    -0.224 C  
HETATM   50  C   UNL     1      -7.308  17.879  67.393  1.00  0.00    -0.205 C  
HETATM   51  H   UNL     1     -10.860  16.526  68.654  1.00  0.00     0.000 HD 
HETATM   52  O   UNL     1     -10.250  15.818  68.486  1.00  0.00    -0.210 OA 
HETATM   53  O   UNL     1      -6.620  15.702  68.117  1.00  0.00    -0.111 OA 
HETATM   54  C   UNL     1      -6.585  16.592  66.997  1.00  0.00    -0.199 C  
BRANCH  48  55
HETATM   55  N   UNL     1      -9.424  18.805  68.384  1.00  0.00    -0.333 NA 
HETATM   56  C   UNL     1      -8.540  19.965  68.456  1.00  0.00    -0.133 C  
HETATM   57  C   UNL     1     -10.737  19.205  67.888  1.00  0.00    -0.300 C  
ENDBRANCH  48  55
ENDBRANCH  45  46
ENDBRANCH  13  45
ENDBRANCH   2   3
TORSDOF 7
ENDMDL
MODEL       16
REMARK 921   NORMALIZED FREE ENERGY PREDICTED BY IDOCK:   -2.90 KCAL/MOL
REMARK 922        TOTAL FREE ENERGY PREDICTED BY IDOCK:   -6.66 KCAL/MOL
REMARK 923 INTER-LIGAND FREE ENERGY PREDICTED BY IDOCK:   -5.02 KCAL/MOL
REMARK 924 INTRA-LIGAND FREE ENERGY PREDICTED BY IDOCK:   -1.64 KCAL/MOL
REMARK 927      BINDING AFFINITY PREDICTED BY RF-SCORE:    0.00 PKD
ROOT
HETATM    1  C   UNL     1      -9.419   2.212  66.872  1.00  0.00     0.129 C  
HETATM    2  C   UNL     1      -9.438   2.582  68.348  1.00  0.00    -0.217 C  
ENDROOT
BRANCH   2   3
HETATM    3  C   UNL     1      -8.105   3.181  68.868  1.00  0.00    -0.059 C  
HETATM    4  O   UNL     1      -7.642   4.459  68.297  1.00  0.00    -0.067 OA 
HETATM    5  C   UNL     1      -8.472   5.440  67.881  1.00  0.00    -0.098 C  
HETATM    6  C   UNL     1      -7.725   6.689  67.375  1.00  0.00    -0.109 C  
HETATM    7  O   UNL     1      -9.684   5.327  67.854  1.00  0.00    -0.129 OA 
HETATM    8  C   UNL     1      -6.221   6.600  67.672  1.00  0.00    -0.035 C  
HETATM    9  C   UNL     1      -8.334   8.118  67.777  1.00  0.00    -0.128 C  
HETATM   10  C   UNL     1     -10.487   4.548  74.017  1.00  0.00    -0.261 C  
HETATM   11  C   UNL     1      -9.912   8.112  68.016  1.00  0.00    -0.222 C  
HETATM   12  C   UNL     1      -7.927   6.207  71.786  1.00  0.00    -0.103 C  
HETATM   13  C   UNL     1     -10.570   9.420  68.713  1.00  0.00    -0.208 C  
HETATM   14  C   UNL     1     -10.473   7.726  66.628  1.00  0.00    -0.196 C  
HETATM   15  C   UNL     1      -8.740   5.032  72.342  1.00  0.00    -0.124 C  
HETATM   16  C   UNL     1      -9.077   3.949  71.240  1.00  0.00    -0.115 C  
HETATM   17  C   UNL     1     -10.839   9.659  70.325  1.00  0.00    -0.285 C  
HETATM   18  C   UNL     1     -10.202   8.695  71.371  1.00  0.00    -0.324 C  
HETATM   19  C   UNL     1      -7.920   3.254  70.432  1.00  0.00    -0.045 C  
HETATM   20  C   UNL     1     -12.237  10.074  70.803  1.00  0.00    -0.408 C  
HETATM   21  H   UNL     1      -6.538   3.931  71.622  1.00  0.00     0.000 HD 
HETATM   22  O   UNL     1     -10.123  10.936  70.561  1.00  0.00     0.293 OA 
HETATM   23  C   UNL     1     -11.083   7.620  72.091  1.00  0.00    -0.314 C  
HETATM   24  H   UNL     1     -10.278   3.806  69.703  1.00  0.00     0.000 HD 
HETATM   25  N   UNL     1     -10.023   5.452  72.968  1.00  0.00    -0.165 NA 
HETATM   26  C   UNL     1     -11.850   6.682  71.170  1.00  0.00    -0.414 C  
HETATM   27  H   UNL     1     -10.278  11.073  71.489  1.00  0.00     0.000 HD 
HETATM   28  C   UNL     1      -7.720   1.834  70.996  1.00  0.00    -0.032 C  
HETATM   29  C   UNL     1     -10.342   6.855  73.239  1.00  0.00    -0.287 C  
HETATM   30  O   UNL     1      -6.649   3.887  70.680  1.00  0.00    -0.030 OA 
HETATM   31  O   UNL     1     -10.076   4.457  70.365  1.00  0.00    -0.209 OA 
BRANCH   9  32
HETATM   32  O   UNL     1      -7.949   8.946  66.636  1.00  0.00    -0.102 OA 
BRANCH  32  33
HETATM   33  C   UNL     1      -7.190   8.375  65.575  1.00  0.00    -0.079 C  
HETATM   34  O   UNL     1      -7.622  11.198  62.436  1.00  0.00    -0.402 OA 
HETATM   35  C   UNL     1      -7.295  10.038  63.203  1.00  0.00    -0.134 C  
HETATM   36  H   UNL     1      -6.857  11.711  62.204  1.00  0.00     0.000 HD 
HETATM   37  C   UNL     1      -8.545   9.201  63.583  1.00  0.00    -0.166 C  
HETATM   38  O   UNL     1      -6.101   9.222  65.186  1.00  0.00    -0.062 OA 
HETATM   39  C   UNL     1      -5.194  11.123  64.096  1.00  0.00     0.428 C  
HETATM   40  C   UNL     1      -6.484  10.391  64.468  1.00  0.00    -0.039 C  
HETATM   41  C   UNL     1      -8.021   7.972  64.356  1.00  0.00    -0.145 C  
HETATM   42  C   UNL     1      -9.312   8.686  62.358  1.00  0.00     0.884 C  
BRANCH  37  43
HETATM   43  O   UNL     1      -9.434   9.890  64.481  1.00  0.00    -0.283 OA 
HETATM   44  C   UNL     1     -10.452  10.707  63.936  1.00  0.00    -0.038 C  
ENDBRANCH  37  43
ENDBRANCH  32  33
ENDBRANCH   9  32
BRANCH  13  45
HETATM   45  O   UNL     1     -11.450  10.247  67.902  1.00  0.00    -0.346 OA 
BRANCH  45  46
HETATM   46  C   UNL     1     -11.034  11.548  67.457  1.00  0.00    -0.255 C  
HETATM   47  C   UNL     1      -7.673  12.867  66.955  1.00  0.00     0.156 C  
HETATM   48  C   UNL     1     -11.240  14.123  67.910  1.00  0.00    -0.279 C  
HETATM   49  C   UNL     1     -11.797  12.699  68.111  1.00  0.00    -0.315 C  
HETATM   50  C   UNL     1      -9.698  14.069  67.894  1.00  0.00    -0.229 C  
HETATM   51  H   UNL     1     -13.630  13.338  68.082  1.00  0.00     0.000 HD 
HETATM   52  O   UNL     1     -13.156  12.622  67.676  1.00  0.00     1.869 OA 
HETATM   53  O   UNL     1      -9.627  11.688  67.641  1.00  0.00    -0.175 OA 
HETATM   54  C   UNL     1      -9.185  12.909  67.040  1.00  0.00    -0.226 C  
BRANCH  48  55
HETATM   55  N   UNL     1     -11.738  15.049  68.986  1.00  0.00    -0.315 NA 
HETATM   56  C   UNL     1     -11.725  14.447  70.317  1.00  0.00    -0.288 C  
HETATM   57  C   UNL     1     -11.117  16.368  69.026  1.00  0.00    -0.315 C  
ENDBRANCH  48  55
ENDBRANCH  45  46
ENDBRANCH  13  45
ENDBRANCH   2   3
TORSDOF 7
ENDMDL
MODEL       17
REMARK 921   NORMALIZED FREE ENERGY PREDICTED BY IDOCK:   -2.34 KCAL/MOL
REMARK 922        TOTAL FREE ENERGY PREDICTED BY IDOCK:   -5.87 KCAL/MOL
REMARK 923 INTER-LIGAND FREE ENERGY PREDICTED BY IDOCK:   -4.41 KCAL/MOL
REMARK 924 INTRA-LIGAND FREE ENERGY PREDICTED BY IDOCK:   -1.46 KCAL/MOL
REMARK 927      BINDING AFFINITY PREDICTED BY RF-SCORE:    0.00 PKD
ROOT
HETATM    1  C   UNL     1      -5.184  16.995  68.866  1.00  0.00    -0.137 C  
HETATM    2  C   UNL     1      -5.886  15.646  68.823  1.00  0.00    -0.100 C  
ENDROOT
BRANCH   2   3
HETATM    3  C   UNL     1      -6.478  15.283  67.436  1.00  0.00    -0.046 C  
HETATM    4  O   UNL     1      -6.660  13.857  67.104  1.00  0.00    -0.178 OA 
HETATM    5  C   UNL     1      -6.967  12.908  68.015  1.00  0.00    -0.108 C  
HETATM    6  C   UNL     1      -7.150  11.511  67.392  1.00  0.00    -0.119 C  
HETATM    7  O   UNL     1      -7.035  13.123  69.212  1.00  0.00    -0.074 OA 
HETATM    8  C   UNL     1      -7.155  11.578  65.858  1.00  0.00     0.488 C  
HETATM    9  C   UNL     1      -8.351  10.609  67.958  1.00  0.00    -0.118 C  
HETATM   10  C   UNL     1     -11.770  17.215  68.957  1.00  0.00     1.212 C  
HETATM   11  C   UNL     1      -8.743  10.921  69.473  1.00  0.00     0.231 C  
HETATM   12  C   UNL     1     -10.534  14.335  66.844  1.00  0.00    -0.272 C  
HETATM   13  C   UNL     1     -10.126  10.286  70.036  1.00  0.00    -0.115 C  
HETATM   14  C   UNL     1      -7.458  10.549  70.250  1.00  0.00     0.278 C  
HETATM   15  C   UNL     1     -10.442  15.705  67.525  1.00  0.00    -0.285 C  
HETATM   16  C   UNL     1      -8.977  16.044  68.016  1.00  0.00    -0.187 C  
HETATM   17  C   UNL     1     -11.617  10.995  70.038  1.00  0.00    -0.344 C  
HETATM   18  C   UNL     1     -11.862  12.294  69.214  1.00  0.00    -0.363 C  
HETATM   19  C   UNL     1      -7.781  16.052  66.994  1.00  0.00    -0.229 C  
HETATM   20  C   UNL     1     -12.417  11.066  71.345  1.00  0.00    -0.436 C  
HETATM   21  H   UNL     1      -8.961  15.983  65.449  1.00  0.00     0.000 HD 
HETATM   22  O   UNL     1     -12.430   9.982  69.322  1.00  0.00    -0.289 OA 
HETATM   23  C   UNL     1     -11.967  13.678  69.936  1.00  0.00    -0.415 C  
HETATM   24  H   UNL     1      -7.786  15.460  69.454  1.00  0.00     0.000 HD 
HETATM   25  N   UNL     1     -11.351  15.840  68.695  1.00  0.00    -0.350 NA 
HETATM   26  C   UNL     1     -10.786  14.043  70.825  1.00  0.00     1.217 C  
HETATM   27  H   UNL     1     -13.288  10.390  69.324  1.00  0.00     0.000 HD 
HETATM   28  C   UNL     1      -7.431  17.518  66.670  1.00  0.00    -0.280 C  
HETATM   29  C   UNL     1     -12.393  14.856  68.997  1.00  0.00    -0.034 C  
HETATM   30  O   UNL     1      -8.176  15.519  65.715  1.00  0.00     0.668 OA 
HETATM   31  O   UNL     1      -8.666  15.256  69.159  1.00  0.00    -0.208 OA 
BRANCH   9  32
HETATM   32  O   UNL     1      -7.824   9.256  67.789  1.00  0.00    -0.092 OA 
BRANCH  32  33
HETATM   33  C   UNL     1      -8.219   8.483  66.660  1.00  0.00    -0.108 C  
HETATM   34  O   UNL     1      -8.661   4.578  68.261  1.00  0.00    -0.096 OA 
HETATM   35  C   UNL     1      -8.575   5.697  67.377  1.00  0.00    -0.109 C  
HETATM   36  H   UNL     1      -9.544   4.234  68.332  1.00  0.00     0.000 HD 
HETATM   37  C   UNL     1      -7.133   6.259  67.262  1.00  0.00    -0.073 C  
HETATM   38  O   UNL     1      -9.515   7.900  66.844  1.00  0.00    -0.166 OA 
HETATM   39  C   UNL     1     -10.996   6.303  67.783  1.00  0.00    -0.427 C  
HETATM   40  C   UNL     1      -9.557   6.822  67.772  1.00  0.00    -0.124 C  
HETATM   41  C   UNL     1      -7.203   7.417  66.245  1.00  0.00    -0.078 C  
HETATM   42  C   UNL     1      -6.134   5.228  66.723  1.00  0.00    -0.030 C  
BRANCH  37  43
HETATM   43  O   UNL     1      -6.652   6.834  68.491  1.00  0.00    -0.053 OA 
HETATM   44  C   UNL     1      -5.257   6.865  68.725  1.00  0.00    -0.016 C  
ENDBRANCH  37  43
ENDBRANCH  32  33
ENDBRANCH   9  32
BRANCH  13  45
HETATM   45  O   UNL     1     -10.028   9.255  71.058  1.00  0.00    -0.270 OA 
BRANCH  45  46
HETATM   46  C   UNL     1     -10.745   8.018  70.925  1.00  0.00    -0.221 C  
HETATM   47  C   UNL     1     -14.294   7.324  71.388  1.00  0.00    -0.484 C  
HETATM   48  C   UNL     1     -10.852   5.519  71.717  1.00  0.00    -0.211 C  
HETATM   49  C   UNL     1     -10.041   6.822  71.565  1.00  0.00    -0.181 C  
HETATM   50  C   UNL     1     -12.321   5.869  72.033  1.00  0.00     0.139 C  
HETATM   51  H   UNL     1      -8.398   5.842  71.233  1.00  0.00     0.000 HD 
HETATM   52  O   UNL     1      -8.836   6.585  70.835  1.00  0.00    -0.144 OA 
HETATM   53  O   UNL     1     -12.067   8.174  71.434  1.00  0.00    -0.289 OA 
HETATM   54  C   UNL     1     -12.834   7.001  71.142  1.00  0.00    -0.270 C  
BRANCH  48  55
HETATM   55  N   UNL     1     -10.261   4.643  72.787  1.00  0.00    -0.173 NA 
HETATM   56  C   UNL     1     -11.158   4.431  73.921  1.00  0.00    -0.189 C  
HETATM   57  C   UNL     1      -9.715   3.368  72.335  1.00  0.00    -0.146 C  
ENDBRANCH  48  55
ENDBRANCH  45  46
ENDBRANCH  13  45
ENDBRANCH   2   3
TORSDOF 7
ENDMDL
MODEL       18
REMARK 921   NORMALIZED FREE ENERGY PREDICTED BY IDOCK:   -2.05 KCAL/MOL
REMARK 922        TOTAL FREE ENERGY PREDICTED BY IDOCK:   -5.47 KCAL/MOL
REMARK 923 INTER-LIGAND FREE ENERGY PREDICTED BY IDOCK:   -5.99 KCAL/MOL
REMARK 924 INTRA-LIGAND FREE ENERGY PREDICTED BY IDOCK:    0.52 KCAL/MOL
REMARK 927      BINDING AFFINITY PREDICTED BY RF-SCORE:    0.00 PKD
ROOT
HETATM    1  C   UNL     1     -13.021  14.249  65.279  1.00  0.00    -0.197 C  
HETATM    2  C   UNL     1     -11.680  13.872  65.892  1.00  0.00    -0.372 C  
ENDROOT
BRANCH   2   3
HETATM    3  C   UNL     1     -11.616  14.043  67.433  1.00  0.00    -0.368 C  
HETATM    4  O   UNL     1     -11.685  12.834  68.274  1.00  0.00    -0.309 OA 
HETATM    5  C   UNL     1     -11.181  11.635  67.908  1.00  0.00    -0.269 C  
HETATM    6  C   UNL     1     -11.343  10.555  68.995  1.00  0.00    -0.319 C  
HETATM    7  O   UNL     1     -10.702  11.416  66.810  1.00  0.00    -0.247 OA 
HETATM    8  C   UNL     1     -11.841  11.160  70.315  1.00  0.00    -0.455 C  
HETATM    9  C   UNL     1     -10.110   9.553  69.220  1.00  0.00    -0.198 C  
HETATM   10  C   UNL     1      -5.967  15.492  67.248  1.00  0.00     0.160 C  
HETATM   11  C   UNL     1      -9.211   9.322  67.920  1.00  0.00    -0.140 C  
HETATM   12  C   UNL     1      -8.090  13.504  69.662  1.00  0.00     1.163 C  
HETATM   13  C   UNL     1      -7.784   8.577  68.119  1.00  0.00    -0.102 C  
HETATM   14  C   UNL     1     -10.195   8.657  66.930  1.00  0.00    -0.367 C  
HETATM   15  C   UNL     1      -7.826  14.542  68.565  1.00  0.00    -0.136 C  
HETATM   16  C   UNL     1      -9.008  14.635  67.518  1.00  0.00    -0.190 C  
HETATM   17  C   UNL     1      -6.318   9.290  68.383  1.00  0.00    -0.053 C  
HETATM   18  C   UNL     1      -6.243  10.805  68.743  1.00  0.00    -0.040 C  
HETATM   19  C   UNL     1     -10.469  14.963  68.001  1.00  0.00    -0.246 C  
HETATM   20  C   UNL     1      -5.128   8.922  67.489  1.00  0.00    -0.034 C  
HETATM   21  H   UNL     1      -9.879  15.484  69.779  1.00  0.00     0.000 HD 
HETATM   22  O   UNL     1      -5.884   8.623  69.635  1.00  0.00    -0.029 OA 
HETATM   23  C   UNL     1      -5.779  11.846  67.672  1.00  0.00    -0.075 C  
HETATM   24  H   UNL     1      -9.704  13.541  66.053  1.00  0.00     0.000 HD 
HETATM   25  N   UNL     1      -6.572  14.285  67.805  1.00  0.00    -0.168 NA 
HETATM   26  C   UNL     1      -6.560  11.834  66.366  1.00  0.00     0.226 C  
HETATM   27  H   UNL     1      -5.041   9.034  69.787  1.00  0.00     0.000 HD 
HETATM   28  C   UNL     1     -10.772  16.436  67.661  1.00  0.00    -0.312 C  
HETATM   29  C   UNL     1      -5.583  13.294  68.235  1.00  0.00    -0.095 C  
HETATM   30  O   UNL     1     -10.571  14.930  69.438  1.00  0.00    -0.244 OA 
HETATM   31  O   UNL     1      -8.994  13.484  66.682  1.00  0.00    -0.210 OA 
BRANCH   9  32
HETATM   32  O   UNL     1     -10.784   8.330  69.651  1.00  0.00    -0.230 OA 
BRANCH  32  33
HETATM   33  C   UNL     1     -10.013   7.229  70.119  1.00  0.00    -0.184 C  
HETATM   34  O   UNL     1     -11.129   6.920  74.201  1.00  0.00    -0.309 OA 
HETATM   35  C   UNL     1     -10.489   6.743  72.937  1.00  0.00    -0.234 C  
HETATM   36  H   UNL     1     -11.657   6.172  74.453  1.00  0.00     0.000 HD 
HETATM   37  C   UNL     1      -9.627   7.966  72.526  1.00  0.00    -0.216 C  
HETATM   38  O   UNL     1     -10.844   6.156  70.581  1.00  0.00    -0.255 OA 
HETATM   39  C   UNL     1     -12.281   5.135  72.167  1.00  0.00     0.945 C  
HETATM   40  C   UNL     1     -11.500   6.402  71.820  1.00  0.00    -0.300 C  
HETATM   41  C   UNL     1      -8.972   7.597  71.178  1.00  0.00    -0.143 C  
HETATM   42  C   UNL     1      -8.499   8.260  73.523  1.00  0.00    -0.264 C  
BRANCH  37  43
HETATM   43  O   UNL     1     -10.407   9.150  72.282  1.00  0.00    -0.162 OA 
HETATM   44  C   UNL     1     -11.813   9.078  72.417  1.00  0.00    -0.142 C  
ENDBRANCH  37  43
ENDBRANCH  32  33
ENDBRANCH   9  32
BRANCH  13  45
HETATM   45  O   UNL     1      -7.631   7.249  67.545  1.00  0.00    -0.104 OA 
BRANCH  45  46
HETATM   46  C   UNL     1      -7.775   6.075  68.359  1.00  0.00    -0.099 C  
HETATM   47  C   UNL     1      -5.771   4.946  71.187  1.00  0.00    -0.012 C  
HETATM   48  C   UNL     1      -7.952   3.458  68.317  1.00  0.00    -0.070 C  
HETATM   49  C   UNL     1      -8.057   4.801  67.565  1.00  0.00    -0.101 C  
HETATM   50  C   UNL     1      -6.809   3.542  69.350  1.00  0.00    -0.041 C  
HETATM   51  H   UNL     1      -9.518   4.149  66.465  1.00  0.00     0.000 HD 
HETATM   52  O   UNL     1      -9.343   4.942  66.959  1.00  0.00    -0.119 OA 
HETATM   53  O   UNL     1      -6.626   5.925  69.190  1.00  0.00    -0.046 OA 
HETATM   54  C   UNL     1      -6.845   4.861  70.122  1.00  0.00    -0.044 C  
BRANCH  48  55
HETATM   55  N   UNL     1      -7.731   2.323  67.355  1.00  0.00    -0.060 NA 
HETATM   56  C   UNL     1      -8.940   1.547  67.089  1.00  0.00    -0.115 C  
HETATM   57  C   UNL     1      -7.073   2.673  66.100  1.00  0.00    -0.064 C  
ENDBRANCH  48  55
ENDBRANCH  45  46
ENDBRANCH  13  45
ENDBRANCH   2   3
TORSDOF 7
ENDMDL
MODEL       19
REMARK 921   NORMALIZED FREE ENERGY PREDICTED BY IDOCK:   -2.05 KCAL/MOL
REMARK 922        TOTAL FREE ENERGY PREDICTED BY IDOCK:   -5.46 KCAL/MOL
REMARK 923 INTER-LIGAND FREE ENERGY PREDICTED BY IDOCK:   -6.00 KCAL/MOL
REMARK 924 INTRA-LIGAND FREE ENERGY PREDICTED BY IDOCK:    0.53 KCAL/MOL
REMARK 927      BINDING AFFINITY PREDICTED BY RF-SCORE:    0.00 PKD
ROOT
HETATM    1  C   UNL     1     -12.086   5.122  72.876  1.00  0.00     0.043 C  
HETATM    2  C   UNL     1     -11.554   6.175  71.916  1.00  0.00    -0.352 C  
ENDROOT
BRANCH   2   3
HETATM    3  C   UNL     1     -10.999   5.600  70.586  1.00  0.00    -0.188 C  
HETATM    4  O   UNL     1     -10.938   6.488  69.411  1.00  0.00    -0.275 OA 
HETATM    5  C   UNL     1     -10.707   7.817  69.486  1.00  0.00    -0.198 C  
HETATM    6  C   UNL     1     -10.644   8.497  68.105  1.00  0.00    -0.181 C  
HETATM    7  O   UNL     1     -10.617   8.425  70.538  1.00  0.00    -0.207 OA 
HETATM    8  C   UNL     1     -10.640   7.463  66.971  1.00  0.00    -0.414 C  
HETATM    9  C   UNL     1      -9.520   9.624  67.895  1.00  0.00    -0.131 C  
HETATM   10  C   UNL     1      -5.559   5.423  72.689  1.00  0.00    -0.022 C  
HETATM   11  C   UNL     1      -9.098  10.382  69.235  1.00  0.00    -0.188 C  
HETATM   12  C   UNL     1      -7.039   6.194  69.298  1.00  0.00    -0.066 C  
HETATM   13  C   UNL     1      -7.770  11.313  69.183  1.00  0.00    -0.046 C  
HETATM   14  C   UNL     1     -10.406  11.085  69.666  1.00  0.00     0.001 C  
HETATM   15  C   UNL     1      -7.014   5.577  70.701  1.00  0.00    -0.057 C  
HETATM   16  C   UNL     1      -8.443   5.543  71.377  1.00  0.00    -0.127 C  
HETATM   17  C   UNL     1      -6.225  10.863  69.554  1.00  0.00    -0.073 C  
HETATM   18  C   UNL     1      -5.876   9.356  69.738  1.00  0.00    -0.036 C  
HETATM   19  C   UNL     1      -9.638   4.808  70.666  1.00  0.00    -0.185 C  
HETATM   20  C   UNL     1      -5.417  11.696  70.557  1.00  0.00    -0.144 C  
HETATM   21  H   UNL     1      -8.475   3.942  69.370  1.00  0.00     0.000 HD 
HETATM   22  O   UNL     1      -5.502  11.229  68.311  1.00  0.00    -0.043 OA 
HETATM   23  C   UNL     1      -5.653   8.768  71.170  1.00  0.00    -0.037 C  
HETATM   24  H   UNL     1      -9.674   6.839  72.174  1.00  0.00     0.000 HD 
HETATM   25  N   UNL     1      -6.092   6.280  71.634  1.00  0.00    -0.039 NA 
HETATM   26  C   UNL     1      -6.796   8.986  72.152  1.00  0.00     0.122 C  
HETATM   27  H   UNL     1      -4.613  10.970  68.525  1.00  0.00     0.000 HD 
HETATM   28  C   UNL     1      -9.866   3.458  71.374  1.00  0.00    -0.204 C  
HETATM   29  C   UNL     1      -5.134   7.290  71.178  1.00  0.00    -0.027 C  
HETATM   30  O   UNL     1      -9.295   4.419  69.321  1.00  0.00    -0.126 OA 
HETATM   31  O   UNL     1      -8.815   6.859  71.768  1.00  0.00    -0.131 OA 
BRANCH   9  32
HETATM   32  O   UNL     1     -10.159  10.517  66.931  1.00  0.00    -0.200 OA 
BRANCH  32  33
HETATM   33  C   UNL     1     -10.775   9.974  65.768  1.00  0.00     0.274 C  
HETATM   34  O   UNL     1      -8.895  12.076  62.597  1.00  0.00    -0.429 OA 
HETATM   35  C   UNL     1      -9.753  11.229  63.363  1.00  0.00    -0.360 C  
HETATM   36  H   UNL     1      -8.294  11.588  62.047  1.00  0.00     0.000 HD 
HETATM   37  C   UNL     1     -10.735  12.027  64.262  1.00  0.00    -0.336 C  
HETATM   38  O   UNL     1      -9.821   9.329  64.915  1.00  0.00     0.062 OA 
HETATM   39  C   UNL     1      -8.064   9.349  63.322  1.00  0.00    -0.151 C  
HETATM   40  C   UNL     1      -8.956  10.215  64.212  1.00  0.00    -0.237 C  
HETATM   41  C   UNL     1     -11.613  10.978  64.976  1.00  0.00     0.555 C  
HETATM   42  C   UNL     1     -11.667  12.942  63.458  1.00  0.00    -0.576 C  
BRANCH  37  43
HETATM   43  O   UNL     1     -10.072  12.769  65.301  1.00  0.00    -0.286 OA 
HETATM   44  C   UNL     1     -10.154  14.182  65.285  1.00  0.00    -0.335 C  
ENDBRANCH  37  43
ENDBRANCH  32  33
ENDBRANCH   9  32
BRANCH  13  45
HETATM   45  O   UNL     1      -7.949  12.751  69.314  1.00  0.00     0.347 OA 
BRANCH  45  46
HETATM   46  C   UNL     1      -6.870  13.655  69.029  1.00  0.00    -0.110 C  
HETATM   47  C   UNL     1      -5.146  15.987  71.237  1.00  0.00    -0.119 C  
HETATM   48  C   UNL     1      -6.083  15.612  67.470  1.00  0.00    -0.113 C  
HETATM   49  C   UNL     1      -7.039  14.428  67.722  1.00  0.00    -0.176 C  
HETATM   50  C   UNL     1      -5.789  16.321  68.808  1.00  0.00    -0.110 C  
HETATM   51  H   UNL     1      -7.078  13.968  65.836  1.00  0.00     0.000 HD 
HETATM   52  O   UNL     1      -6.973  13.487  66.649  1.00  0.00     0.622 OA 
HETATM   53  O   UNL     1      -6.682  14.537  70.133  1.00  0.00    -0.167 OA 
HETATM   54  C   UNL     1      -5.501  15.318  69.925  1.00  0.00    -0.112 C  
BRANCH  48  55
HETATM   55  N   UNL     1      -6.669  16.568  66.467  1.00  0.00    -0.228 NA 
HETATM   56  C   UNL     1      -8.129  16.621  66.504  1.00  0.00    -0.302 C  
HETATM   57  C   UNL     1      -6.118  17.918  66.480  1.00  0.00    -0.180 C  
ENDBRANCH  48  55
ENDBRANCH  45  46
ENDBRANCH  13  45
ENDBRANCH   2   3
TORSDOF 7
ENDMDL
MODEL       20
REMARK 921   NORMALIZED FREE ENERGY PREDICTED BY IDOCK:   -1.98 KCAL/MOL
REMARK 922        TOTAL FREE ENERGY PREDICTED BY IDOCK:   -5.37 KCAL/MOL
REMARK 923 INTER-LIGAND FREE ENERGY PREDICTED BY IDOCK:   -7.42 KCAL/MOL
REMARK 924 INTRA-LIGAND FREE ENERGY PREDICTED BY IDOCK:    2.05 KCAL/MOL
REMARK 927      BINDING AFFINITY PREDICTED BY RF-SCORE:    0.00 PKD
ROOT
HETATM    1  C   UNL     1      -8.250   8.381  74.459  1.00  0.00    -0.061 C  
HETATM    2  C   UNL     1      -8.606   7.302  73.447  1.00  0.00    -0.175 C  
ENDROOT
BRANCH   2   3
HETATM    3  C   UNL     1     -10.098   7.299  73.022  1.00  0.00    -0.248 C  
HETATM    4  O   UNL     1     -10.599   8.430  72.220  1.00  0.00    -0.297 OA 
HETATM    5  C   UNL     1      -9.850   9.101  71.318  1.00  0.00    -0.293 C  
HETATM    6  C   UNL     1     -10.635  10.205  70.584  1.00  0.00    -0.172 C  
HETATM    7  O   UNL     1      -8.662   8.894  71.146  1.00  0.00    -0.189 OA 
HETATM    8  C   UNL     1     -12.136  10.128  70.898  1.00  0.00    -0.453 C  
HETATM    9  C   UNL     1     -10.358  10.377  69.013  1.00  0.00    -0.214 C  
HETATM   10  C   UNL     1      -9.222   2.961  69.218  1.00  0.00    -0.144 C  
HETATM   11  C   UNL     1      -8.897   9.926  68.554  1.00  0.00    -0.122 C  
HETATM   12  C   UNL     1     -11.404   6.047  69.224  1.00  0.00    -0.245 C  
HETATM   13  C   UNL     1      -8.623   9.775  66.962  1.00  0.00    -0.124 C  
HETATM   14  C   UNL     1      -7.974  10.907  69.314  1.00  0.00    -0.076 C  
HETATM   15  C   UNL     1     -10.579   4.921  69.858  1.00  0.00     0.151 C  
HETATM   16  C   UNL     1      -9.836   5.379  71.176  1.00  0.00    -0.185 C  
HETATM   17  C   UNL     1      -8.778   8.407  66.051  1.00  0.00    -0.157 C  
HETATM   18  C   UNL     1      -9.492   7.155  66.644  1.00  0.00    -0.219 C  
HETATM   19  C   UNL     1     -10.654   5.969  72.383  1.00  0.00    -0.217 C  
HETATM   20  C   UNL     1      -7.610   7.953  65.167  1.00  0.00    -0.092 C  
HETATM   21  H   UNL     1     -12.362   5.413  71.636  1.00  0.00     0.000 HD 
HETATM   22  O   UNL     1      -9.712   8.859  64.991  1.00  0.00    -0.342 OA 
HETATM   23  C   UNL     1      -8.655   5.917  67.109  1.00  0.00    -0.106 C  
HETATM   24  H   UNL     1      -8.299   6.503  71.628  1.00  0.00     0.000 HD 
HETATM   25  N   UNL     1      -9.556   4.355  68.938  1.00  0.00    -0.165 NA 
HETATM   26  C   UNL     1      -7.562   6.212  68.126  1.00  0.00    -0.098 C  
HETATM   27  H   UNL     1      -9.801   8.071  64.467  1.00  0.00     0.000 HD 
HETATM   28  C   UNL     1     -10.767   4.882  73.470  1.00  0.00    -0.341 C  
HETATM   29  C   UNL     1      -9.523   4.676  67.509  1.00  0.00    -0.153 C  
HETATM   30  O   UNL     1     -12.027   6.214  72.021  1.00  0.00    -0.324 OA 
HETATM   31  O   UNL     1      -8.746   6.228  70.836  1.00  0.00    -0.134 OA 
BRANCH   9  32
HETATM   32  O   UNL     1     -10.582  11.808  68.817  1.00  0.00    -0.208 OA 
BRANCH  32  33
HETATM   33  C   UNL     1     -11.864  12.364  69.092  1.00  0.00    -0.300 C  
HETATM   34  O   UNL     1     -11.353  16.481  68.204  1.00  0.00    -0.308 OA 
HETATM   35  C   UNL     1     -11.881  15.226  68.633  1.00  0.00    -0.305 C  
HETATM   36  H   UNL     1     -11.790  16.818  67.430  1.00  0.00     0.000 HD 
HETATM   37  C   UNL     1     -11.166  14.677  69.897  1.00  0.00    -0.231 C  
HETATM   38  O   UNL     1     -12.451  12.948  67.922  1.00  0.00    -0.026 OA 
HETATM   39  C   UNL     1     -12.651  14.659  66.293  1.00  0.00     0.148 C  
HETATM   40  C   UNL     1     -11.857  14.172  67.505  1.00  0.00    -0.401 C  
HETATM   41  C   UNL     1     -11.880  13.356  70.255  1.00  0.00    -0.316 C  
HETATM   42  C   UNL     1     -11.290  15.614  71.105  1.00  0.00    -0.446 C  
BRANCH  37  43
HETATM   43  O   UNL     1      -9.788  14.336  69.662  1.00  0.00     0.235 OA 
HETATM   44  C   UNL     1      -8.821  15.369  69.669  1.00  0.00    -0.138 C  
ENDBRANCH  37  43
ENDBRANCH  32  33
ENDBRANCH   9  32
BRANCH  13  45
HETATM   45  O   UNL     1      -7.711  10.723  66.342  1.00  0.00    -0.134 OA 
BRANCH  45  46
HETATM   46  C   UNL     1      -8.210  11.841  65.591  1.00  0.00     0.581 C  
HETATM   47  C   UNL     1      -8.895  15.252  66.677  1.00  0.00    -0.328 C  
HETATM   48  C   UNL     1     -10.157  12.670  64.041  1.00  0.00    -0.254 C  
HETATM   49  C   UNL     1      -9.381  11.496  64.672  1.00  0.00    -0.022 C  
HETATM   50  C   UNL     1     -10.225  13.835  65.051  1.00  0.00    -0.370 C  
HETATM   51  H   UNL     1      -9.622  10.397  63.089  1.00  0.00     0.000 HD 
HETATM   52  O   UNL     1      -8.894  10.611  63.661  1.00  0.00    -0.182 OA 
HETATM   53  O   UNL     1      -8.545  12.903  66.481  1.00  0.00    -0.053 OA 
HETATM   54  C   UNL     1      -8.874  14.073  65.726  1.00  0.00     0.955 C  
BRANCH  48  55
HETATM   55  N   UNL     1     -11.535  12.236  63.621  1.00  0.00    -0.455 NA 
HETATM   56  C   UNL     1     -12.241  11.478  64.652  1.00  0.00     0.414 C  
HETATM   57  C   UNL     1     -12.398  13.286  63.092  1.00  0.00    -0.079 C  
ENDBRANCH  48  55
ENDBRANCH  45  46
ENDBRANCH  13  45
ENDBRANCH   2   3
TORSDOF 7
ENDMDL
MODEL       21
REMARK 921   NORMALIZED FREE ENERGY PREDICTED BY IDOCK:   -1.98 KCAL/MOL
REMARK 922        TOTAL FREE ENERGY PREDICTED BY IDOCK:   -5.37 KCAL/MOL
REMARK 923 INTER-LIGAND FREE ENERGY PREDICTED BY IDOCK:   -4.26 KCAL/MOL
REMARK 924 INTRA-LIGAND FREE ENERGY PREDICTED BY IDOCK:   -1.11 KCAL/MOL
REMARK 927      BINDING AFFINITY PREDICTED BY RF-SCORE:    0.00 PKD
ROOT
HETATM    1  C   UNL     1      -9.410   1.614  65.671  1.00  0.00     0.080 C  
HETATM    2  C   UNL     1      -8.609   2.163  66.844  1.00  0.00    -0.117 C  
ENDROOT
BRANCH   2   3
HETATM    3  C   UNL     1      -7.381   3.015  66.430  1.00  0.00    -0.074 C  
HETATM    4  O   UNL     1      -7.602   4.424  66.054  1.00  0.00    -0.084 OA 
HETATM    5  C   UNL     1      -8.560   5.205  66.599  1.00  0.00    -0.110 C  
HETATM    6  C   UNL     1      -8.538   6.649  66.063  1.00  0.00    -0.152 C  
HETATM    7  O   UNL     1      -9.392   4.794  67.388  1.00  0.00    -0.124 OA 
HETATM    8  C   UNL     1      -7.293   6.908  65.203  1.00  0.00    -0.081 C  
HETATM    9  C   UNL     1      -8.792   7.826  67.123  1.00  0.00    -0.125 C  
HETATM   10  C   UNL     1      -5.375   3.162  71.908  1.00  0.00    -0.004 C  
HETATM   11  C   UNL     1      -9.688   7.398  68.373  1.00  0.00    -0.158 C  
HETATM   12  C   UNL     1      -5.417   5.646  69.060  1.00  0.00    -0.007 C  
HETATM   13  C   UNL     1      -9.749   8.414  69.636  1.00  0.00    -0.173 C  
HETATM   14  C   UNL     1     -11.045   7.039  67.722  1.00  0.00    -0.161 C  
HETATM   15  C   UNL     1      -5.454   4.251  69.694  1.00  0.00    -0.012 C  
HETATM   16  C   UNL     1      -6.384   3.247  68.903  1.00  0.00    -0.029 C  
HETATM   17  C   UNL     1      -8.780   8.397  70.973  1.00  0.00    -0.156 C  
HETATM   18  C   UNL     1      -7.496   7.515  70.992  1.00  0.00    -0.072 C  
HETATM   19  C   UNL     1      -6.123   2.959  67.378  1.00  0.00    -0.028 C  
HETATM   20  C   UNL     1      -9.419   8.393  72.368  1.00  0.00    -0.365 C  
HETATM   21  H   UNL     1      -4.381   3.825  67.404  1.00  0.00     0.000 HD 
HETATM   22  O   UNL     1      -8.241   9.779  70.968  1.00  0.00    -0.357 OA 
HETATM   23  C   UNL     1      -7.469   6.180  71.809  1.00  0.00    -0.095 C  
HETATM   24  H   UNL     1      -8.307   2.978  68.656  1.00  0.00     0.000 HD 
HETATM   25  N   UNL     1      -5.908   4.264  71.111  1.00  0.00    -0.012 NA 
HETATM   26  C   UNL     1      -8.573   5.187  71.474  1.00  0.00    -0.132 C  
HETATM   27  H   UNL     1      -7.683   9.769  71.737  1.00  0.00     0.000 HD 
HETATM   28  C   UNL     1      -5.444   1.581  67.255  1.00  0.00    -0.017 C  
HETATM   29  C   UNL     1      -6.058   5.503  71.876  1.00  0.00    -0.034 C  
HETATM   30  O   UNL     1      -5.139   3.859  66.832  1.00  0.00    -0.007 OA 
HETATM   31  O   UNL     1      -7.748   3.582  69.132  1.00  0.00    -0.052 OA 
BRANCH   9  32
HETATM   32  O   UNL     1      -9.440   8.845  66.300  1.00  0.00    -0.200 OA 
BRANCH  32  33
HETATM   33  C   UNL     1      -8.748   9.392  65.182  1.00  0.00    -0.181 C  
HETATM   34  O   UNL     1      -9.197  13.579  65.709  1.00  0.00    -0.471 OA 
HETATM   35  C   UNL     1      -8.885  12.288  65.184  1.00  0.00     0.881 C  
HETATM   36  H   UNL     1      -8.423  14.073  65.952  1.00  0.00     0.000 HD 
HETATM   37  C   UNL     1     -10.150  11.481  64.788  1.00  0.00    -0.269 C  
HETATM   38  O   UNL     1      -7.644  10.210  65.590  1.00  0.00    -0.130 OA 
HETATM   39  C   UNL     1      -6.708  12.205  66.465  1.00  0.00     0.472 C  
HETATM   40  C   UNL     1      -8.009  11.466  66.153  1.00  0.00     0.021 C  
HETATM   41  C   UNL     1      -9.643  10.148  64.199  1.00  0.00    -0.336 C  
HETATM   42  C   UNL     1     -10.986  12.178  63.707  1.00  0.00    -0.494 C  
BRANCH  37  43
HETATM   43  O   UNL     1     -10.974  11.133  65.916  1.00  0.00    -0.213 OA 
HETATM   44  C   UNL     1     -11.976  12.042  66.332  1.00  0.00    -0.013 C  
ENDBRANCH  37  43
ENDBRANCH  32  33
ENDBRANCH   9  32
BRANCH  13  45
HETATM   45  O   UNL     1     -11.015   9.078  69.908  1.00  0.00    -0.235 OA 
BRANCH  45  46
HETATM   46  C   UNL     1     -11.261  10.412  69.438  1.00  0.00    -0.259 C  
HETATM   47  C   UNL     1      -8.910  13.128  68.815  1.00  0.00     0.163 C  
HETATM   48  C   UNL     1     -12.628  12.608  69.873  1.00  0.00     0.230 C  
HETATM   49  C   UNL     1     -12.455  11.093  70.105  1.00  0.00    -0.241 C  
HETATM   50  C   UNL     1     -11.238  13.275  69.808  1.00  0.00    -0.029 C  
HETATM   51  H   UNL     1     -14.375  10.808  70.130  1.00  0.00     0.000 HD 
HETATM   52  O   UNL     1     -13.633  10.385  69.715  1.00  0.00     0.346 OA 
HETATM   53  O   UNL     1     -10.075  11.193  69.575  1.00  0.00    -0.054 OA 
HETATM   54  C   UNL     1     -10.266  12.465  68.948  1.00  0.00    -0.004 C  
BRANCH  48  55
HETATM   55  N   UNL     1     -13.472  13.222  70.957  1.00  0.00     0.099 NA 
HETATM   56  C   UNL     1     -13.208  12.665  72.281  1.00  0.00    -0.360 C  
HETATM   57  C   UNL     1     -13.468  14.679  71.016  1.00  0.00    -0.320 C  
ENDBRANCH  48  55
ENDBRANCH  45  46
ENDBRANCH  13  45
ENDBRANCH   2   3
TORSDOF 7
ENDMDL
MODEL       22
REMARK 921   NORMALIZED FREE ENERGY PREDICTED BY IDOCK:   -1.66 KCAL/MOL
REMARK 922        TOTAL FREE ENERGY PREDICTED BY IDOCK:   -4.92 KCAL/MOL
REMARK 923 INTER-LIGAND FREE ENERGY PREDICTED BY IDOCK:   -6.65 KCAL/MOL
REMARK 924 INTRA-LIGAND FREE ENERGY PREDICTED BY IDOCK:    1.73 KCAL/MOL
REMARK 927      BINDING AFFINITY PREDICTED BY RF-SCORE:    0.00 PKD
ROOT
HETATM    1  C   UNL     1      -6.398   5.320  72.108  1.00  0.00    -0.039 C  
HETATM    2  C   UNL     1      -6.586   5.128  70.610  1.00  0.00    -0.035 C  
ENDROOT
BRANCH   2   3
HETATM    3  C   UNL     1      -8.062   4.933  70.175  1.00  0.00    -0.073 C  
HETATM    4  O   UNL     1      -8.955   6.106  70.185  1.00  0.00    -0.145 OA 
HETATM    5  C   UNL     1      -8.543   7.365  69.918  1.00  0.00    -0.140 C  
HETATM    6  C   UNL     1      -9.690   8.394  69.947  1.00  0.00    -0.179 C  
HETATM    7  O   UNL     1      -7.377   7.665  69.732  1.00  0.00    -0.077 OA 
HETATM    8  C   UNL     1     -11.057   7.705  70.056  1.00  0.00    -0.201 C  
HETATM    9  C   UNL     1      -9.679   9.533  68.817  1.00  0.00    -0.159 C  
HETATM   10  C   UNL     1      -6.537   4.184  64.592  1.00  0.00    -0.043 C  
HETATM   11  C   UNL     1      -8.223   9.899  68.273  1.00  0.00    -0.109 C  
HETATM   12  C   UNL     1      -9.461   5.848  66.315  1.00  0.00    -0.161 C  
HETATM   13  C   UNL     1      -8.131  10.807  66.932  1.00  0.00    -0.132 C  
HETATM   14  C   UNL     1      -7.514  10.461  69.526  1.00  0.00    -0.148 C  
HETATM   15  C   UNL     1      -8.283   4.874  66.194  1.00  0.00    -0.108 C  
HETATM   16  C   UNL     1      -7.527   4.660  67.567  1.00  0.00    -0.078 C  
HETATM   17  C   UNL     1      -8.023  10.272  65.373  1.00  0.00    -0.148 C  
HETATM   18  C   UNL     1      -8.282   8.771  65.047  1.00  0.00    -0.156 C  
HETATM   19  C   UNL     1      -8.311   4.147  68.831  1.00  0.00    -0.078 C  
HETATM   20  C   UNL     1      -6.901  10.801  64.470  1.00  0.00     0.340 C  
HETATM   21  H   UNL     1      -9.883   3.663  67.793  1.00  0.00     0.000 HD 
HETATM   22  O   UNL     1      -9.175  10.960  64.741  1.00  0.00    -0.201 OA 
HETATM   23  C   UNL     1      -7.084   7.816  64.726  1.00  0.00    -0.060 C  
HETATM   24  H   UNL     1      -6.313   5.693  68.701  1.00  0.00     0.000 HD 
HETATM   25  N   UNL     1      -7.274   5.297  65.186  1.00  0.00    -0.066 NA 
HETATM   26  C   UNL     1      -5.990   7.762  65.783  1.00  0.00    -0.038 C  
HETATM   27  H   UNL     1      -9.113  10.651  63.845  1.00  0.00     0.000 HD 
HETATM   28  C   UNL     1      -7.977   2.656  69.035  1.00  0.00    -0.062 C  
HETATM   29  C   UNL     1      -7.518   6.391  64.244  1.00  0.00    -0.091 C  
HETATM   30  O   UNL     1      -9.733   4.137  68.603  1.00  0.00    -0.152 OA 
HETATM   31  O   UNL     1      -6.767   5.822  67.876  1.00  0.00    -0.054 OA 
BRANCH   9  32
HETATM   32  O   UNL     1     -10.311  10.655  69.507  1.00  0.00    -0.223 OA 
BRANCH  32  33
HETATM   33  C   UNL     1     -11.585  11.122  69.074  1.00  0.00    -0.324 C  
HETATM   34  O   UNL     1     -13.563  12.066  72.708  1.00  0.00    -0.455 OA 
HETATM   35  C   UNL     1     -13.260  11.829  71.332  1.00  0.00    -0.097 C  
HETATM   36  H   UNL     1     -13.711  12.986  72.897  1.00  0.00     0.000 HD 
HETATM   37  C   UNL     1     -13.018  10.327  71.024  1.00  0.00    -0.397 C  
HETATM   38  O   UNL     1     -11.811  12.483  69.462  1.00  0.00    -0.305 OA 
HETATM   39  C   UNL     1     -12.333  14.164  71.051  1.00  0.00    -0.438 C  
HETATM   40  C   UNL     1     -12.060  12.673  70.851  1.00  0.00    -0.047 C  
HETATM   41  C   UNL     1     -12.755  10.237  69.506  1.00  0.00     0.562 C  
HETATM   42  C   UNL     1     -14.238   9.452  71.336  1.00  0.00    -0.003 C  
BRANCH  37  43
HETATM   43  O   UNL     1     -11.843   9.801  71.666  1.00  0.00    -0.389 OA 
HETATM   44  C   UNL     1     -12.001   8.833  72.686  1.00  0.00    -0.100 C  
ENDBRANCH  37  43
ENDBRANCH  32  33
ENDBRANCH   9  32
BRANCH  13  45
HETATM   45  O   UNL     1      -7.602  12.157  67.066  1.00  0.00    -0.148 OA 
BRANCH  45  46
HETATM   46  C   UNL     1      -8.482  13.291  67.088  1.00  0.00    -0.176 C  
HETATM   47  C   UNL     1      -9.611  15.302  69.912  1.00  0.00    -0.061 C  
HETATM   48  C   UNL     1     -10.857  14.164  66.395  1.00  0.00    -0.304 C  
HETATM   49  C   UNL     1      -9.728  13.126  66.221  1.00  0.00    -0.265 C  
HETATM   50  C   UNL     1     -10.942  14.577  67.879  1.00  0.00    -0.277 C  
HETATM   51  H   UNL     1     -10.080  12.963  64.318  1.00  0.00     0.000 HD 
HETATM   52  O   UNL     1      -9.305  13.065  64.858  1.00  0.00     0.349 OA 
HETATM   53  O   UNL     1      -8.826  13.603  68.437  1.00  0.00    -0.179 OA 
HETATM   54  C   UNL     1      -9.556  14.833  68.472  1.00  0.00    -0.218 C  
BRANCH  48  55
HETATM   55  N   UNL     1     -12.169  13.612  65.910  1.00  0.00    -0.436 NA 
HETATM   56  C   UNL     1     -12.590  14.167  64.626  1.00  0.00    -0.258 C  
HETATM   57  C   UNL     1     -12.278  12.157  65.888  1.00  0.00     0.136 C  
ENDBRANCH  48  55
ENDBRANCH  45  46
ENDBRANCH  13  45
ENDBRANCH   2   3
TORSDOF 7
ENDMDL
MODEL       23
REMARK 921   NORMALIZED FREE ENERGY PREDICTED BY IDOCK:   -1.50 KCAL/MOL
REMARK 922        TOTAL FREE ENERGY PREDICTED BY IDOCK:   -4.70 KCAL/MOL
REMARK 923 INTER-LIGAND FREE ENERGY PREDICTED BY IDOCK:   -6.18 KCAL/MOL
REMARK 924 INTRA-LIGAND FREE ENERGY PREDICTED BY IDOCK:    1.48 KCAL/MOL
REMARK 927      BINDING AFFINITY PREDICTED BY RF-SCORE:    0.00 PKD
ROOT
HETATM    1  C   UNL     1     -11.687  15.342  64.276  1.00  0.00    -0.223 C  
HETATM    2  C   UNL     1     -10.710  14.526  65.109  1.00  0.00    -0.422 C  
ENDROOT
BRANCH   2   3
HETATM    3  C   UNL     1     -10.900  14.680  66.641  1.00  0.00    -0.312 C  
HETATM    4  O   UNL     1     -11.282  13.489  67.422  1.00  0.00    -0.277 OA 
HETATM    5  C   UNL     1     -10.890  12.233  67.116  1.00  0.00    -0.244 C  
HETATM    6  C   UNL     1     -11.389  11.182  68.126  1.00  0.00    -0.377 C  
HETATM    7  O   UNL     1     -10.256  11.953  66.114  1.00  0.00    -0.215 OA 
HETATM    8  C   UNL     1     -12.027  11.845  69.355  1.00  0.00    -0.350 C  
HETATM    9  C   UNL     1     -10.365  10.016  68.535  1.00  0.00    -0.193 C  
HETATM   10  C   UNL     1      -5.164  15.326  67.498  1.00  0.00     0.106 C  
HETATM   11  C   UNL     1      -9.289   9.668  67.409  1.00  0.00    -0.155 C  
HETATM   12  C   UNL     1      -7.935  13.645  69.441  1.00  0.00     0.567 C  
HETATM   13  C   UNL     1      -8.036   8.730  67.835  1.00  0.00    -0.107 C  
HETATM   14  C   UNL     1     -10.161   9.150  66.242  1.00  0.00    -0.319 C  
HETATM   15  C   UNL     1      -7.340  14.640  68.438  1.00  0.00    -0.115 C  
HETATM   16  C   UNL     1      -8.292  14.901  67.202  1.00  0.00    -0.221 C  
HETATM   17  C   UNL     1      -6.557   9.230  68.374  1.00  0.00    -0.058 C  
HETATM   18  C   UNL     1      -6.341  10.717  68.784  1.00  0.00    -0.044 C  
HETATM   19  C   UNL     1      -9.757  15.428  67.429  1.00  0.00    -0.215 C  
HETATM   20  C   UNL     1      -5.287   8.703  67.693  1.00  0.00    -0.035 C  
HETATM   21  H   UNL     1      -9.429  15.855  69.298  1.00  0.00     0.000 HD 
HETATM   22  O   UNL     1      -6.449   8.504  69.663  1.00  0.00    -0.039 OA 
HETATM   23  C   UNL     1      -5.555  11.689  67.843  1.00  0.00    -0.048 C  
HETATM   24  H   UNL     1      -8.859  13.921  65.607  1.00  0.00     0.000 HD 
HETATM   25  N   UNL     1      -6.018  14.214  67.905  1.00  0.00    -0.183 NA 
HETATM   26  C   UNL     1      -6.085  11.791  66.419  1.00  0.00     0.199 C  
HETATM   27  H   UNL     1      -5.598   8.792  69.973  1.00  0.00     0.000 HD 
HETATM   28  C   UNL     1      -9.790  16.930  67.084  1.00  0.00    -0.270 C  
HETATM   29  C   UNL     1      -5.267  13.093  68.473  1.00  0.00    -0.070 C  
HETATM   30  O   UNL     1     -10.118  15.404  68.824  1.00  0.00    -0.200 OA 
HETATM   31  O   UNL     1      -8.286  13.763  66.349  1.00  0.00     0.302 OA 
BRANCH   9  32
HETATM   32  O   UNL     1     -11.266   8.898  68.806  1.00  0.00     0.136 OA 
BRANCH  32  33
HETATM   33  C   UNL     1     -10.744   7.688  69.346  1.00  0.00    -0.184 C  
HETATM   34  O   UNL     1     -11.882   7.870  73.429  1.00  0.00    -0.544 OA 
HETATM   35  C   UNL     1     -11.300   7.484  72.183  1.00  0.00    -0.283 C  
HETATM   36  H   UNL     1     -12.556   7.267  73.721  1.00  0.00     0.000 HD 
HETATM   37  C   UNL     1     -10.199   8.469  71.707  1.00  0.00    -0.282 C  
HETATM   38  O   UNL     1     -11.782   6.846  69.863  1.00  0.00    -0.244 OA 
HETATM   39  C   UNL     1     -13.396   6.250  71.496  1.00  0.00     0.628 C  
HETATM   40  C   UNL     1     -12.365   7.300  71.081  1.00  0.00    -0.345 C  
HETATM   41  C   UNL     1      -9.644   7.890  70.389  1.00  0.00    -0.171 C  
HETATM   42  C   UNL     1      -9.030   8.577  72.694  1.00  0.00    -0.243 C  
BRANCH  37  43
HETATM   43  O   UNL     1     -10.711   9.776  71.386  1.00  0.00    -0.267 OA 
HETATM   44  C   UNL     1     -12.014  10.120  71.816  1.00  0.00    -0.091 C  
ENDBRANCH  37  43
ENDBRANCH  32  33
ENDBRANCH   9  32
BRANCH  13  45
HETATM   45  O   UNL     1      -7.965   7.395  67.259  1.00  0.00    -0.111 OA 
BRANCH  45  46
HETATM   46  C   UNL     1      -7.206   7.149  66.065  1.00  0.00    -0.074 C  
HETATM   47  C   UNL     1      -7.575   8.590  62.737  1.00  0.00    -0.111 C  
HETATM   48  C   UNL     1      -6.362   5.288  64.421  1.00  0.00    -0.029 C  
HETATM   49  C   UNL     1      -6.922   5.670  65.806  1.00  0.00    -0.065 C  
HETATM   50  C   UNL     1      -6.993   6.200  63.348  1.00  0.00    -0.046 C  
HETATM   51  H   UNL     1      -5.883   4.285  66.685  1.00  0.00     0.000 HD 
HETATM   52  O   UNL     1      -6.060   5.204  66.846  1.00  0.00    -0.028 OA 
HETATM   53  O   UNL     1      -7.858   7.755  64.951  1.00  0.00    -0.109 OA 
HETATM   54  C   UNL     1      -7.018   7.661  63.797  1.00  0.00    -0.060 C  
BRANCH  48  55
HETATM   55  N   UNL     1      -6.624   3.837  64.120  1.00  0.00    -0.041 NA 
HETATM   56  C   UNL     1      -8.042   3.488  64.148  1.00  0.00    -0.086 C  
HETATM   57  C   UNL     1      -6.003   3.318  62.907  1.00  0.00    -0.013 C  
ENDBRANCH  48  55
ENDBRANCH  45  46
ENDBRANCH  13  45
ENDBRANCH   2   3
TORSDOF 7
ENDMDL
MODEL       24
REMARK 921   NORMALIZED FREE ENERGY PREDICTED BY IDOCK:   -1.44 KCAL/MOL
REMARK 922        TOTAL FREE ENERGY PREDICTED BY IDOCK:   -4.61 KCAL/MOL
REMARK 923 INTER-LIGAND FREE ENERGY PREDICTED BY IDOCK:   -5.46 KCAL/MOL
REMARK 924 INTRA-LIGAND FREE ENERGY PREDICTED BY IDOCK:    0.85 KCAL/MOL
REMARK 927      BINDING AFFINITY PREDICTED BY RF-SCORE:    0.00 PKD
ROOT
HETATM    1  C   UNL     1      -5.251   3.144  69.471  1.00  0.00    -0.011 C  
HETATM    2  C   UNL     1      -6.294   4.180  69.867  1.00  0.00    -0.028 C  
ENDROOT
BRANCH   2   3
HETATM    3  C   UNL     1      -5.879   5.072  71.066  1.00  0.00    -0.017 C  
HETATM    4  O   UNL     1      -5.963   6.536  70.910  1.00  0.00    -0.026 OA 
HETATM    5  C   UNL     1      -6.895   7.158  70.156  1.00  0.00    -0.060 C  
HETATM    6  C   UNL     1      -6.788   8.694  70.209  1.00  0.00    -0.040 C  
HETATM    7  O   UNL     1      -7.700   6.566  69.459  1.00  0.00    -0.096 OA 
HETATM    8  C   UNL     1      -5.786   9.149  71.280  1.00  0.00    -0.063 C  
HETATM    9  C   UNL     1      -8.161   9.522  70.280  1.00  0.00    -0.181 C  
HETATM   10  C   UNL     1     -10.620   3.554  74.110  1.00  0.00    -0.204 C  
HETATM   11  C   UNL     1      -9.405   8.780  69.610  1.00  0.00    -0.158 C  
HETATM   12  C   UNL     1      -8.648   6.758  73.747  1.00  0.00    -0.153 C  
HETATM   13  C   UNL     1     -10.882   9.387  69.894  1.00  0.00    -0.236 C  
HETATM   14  C   UNL     1      -8.988   8.673  68.124  1.00  0.00    -0.141 C  
HETATM   15  C   UNL     1      -8.865   5.241  73.703  1.00  0.00    -0.122 C  
HETATM   16  C   UNL     1      -8.045   4.542  72.545  1.00  0.00    -0.101 C  
HETATM   17  C   UNL     1     -11.923   8.950  71.100  1.00  0.00    -0.293 C  
HETATM   18  C   UNL     1     -11.421   8.056  72.273  1.00  0.00    -0.419 C  
HETATM   19  C   UNL     1      -6.481   4.700  72.474  1.00  0.00    -0.041 C  
HETATM   20  C   UNL     1     -13.365   8.563  70.749  1.00  0.00     0.437 C  
HETATM   21  H   UNL     1      -6.370   5.460  74.261  1.00  0.00     0.000 HD 
HETATM   22  O   UNL     1     -12.184  10.254  71.756  1.00  0.00    -0.351 OA 
HETATM   23  C   UNL     1     -11.811   6.542  72.333  1.00  0.00    -0.235 C  
HETATM   24  H   UNL     1      -8.152   4.423  70.595  1.00  0.00     0.000 HD 
HETATM   25  N   UNL     1     -10.293   4.857  73.538  1.00  0.00    -0.182 NA 
HETATM   26  C   UNL     1     -11.460   5.727  71.096  1.00  0.00    -0.039 C  
HETATM   27  H   UNL     1     -12.782  10.002  72.450  1.00  0.00     0.000 HD 
HETATM   28  C   UNL     1      -5.840   3.394  72.982  1.00  0.00    -0.008 C  
HETATM   29  C   UNL     1     -11.384   5.826  73.659  1.00  0.00     0.350 C  
HETATM   30  O   UNL     1      -6.007   5.685  73.413  1.00  0.00    -0.047 OA 
HETATM   31  O   UNL     1      -8.645   4.843  71.291  1.00  0.00    -0.118 OA 
BRANCH   9  32
HETATM   32  O   UNL     1      -7.811  10.757  69.584  1.00  0.00    -0.099 OA 
BRANCH  32  33
HETATM   33  C   UNL     1      -6.495  11.289  69.710  1.00  0.00    -0.140 C  
HETATM   34  O   UNL     1      -6.439  14.439  66.868  1.00  0.00    -0.175 OA 
HETATM   35  C   UNL     1      -6.069  13.473  67.853  1.00  0.00    -0.151 C  
HETATM   36  H   UNL     1      -6.424  15.328  67.204  1.00  0.00     0.000 HD 
HETATM   37  C   UNL     1      -6.095  12.021  67.304  1.00  0.00    -0.147 C  
HETATM   38  O   UNL     1      -6.515  12.660  70.125  1.00  0.00    -0.014 OA 
HETATM   39  C   UNL     1      -6.836  14.977  69.734  1.00  0.00    -0.181 C  
HETATM   40  C   UNL     1      -6.939  13.579  69.123  1.00  0.00    -0.055 C  
HETATM   41  C   UNL     1      -5.627  11.115  68.463  1.00  0.00    -0.042 C  
HETATM   42  C   UNL     1      -5.128  11.811  66.132  1.00  0.00     0.279 C  
BRANCH  37  43
HETATM   43  O   UNL     1      -7.417  11.573  66.954  1.00  0.00    -0.143 OA 
HETATM   44  C   UNL     1      -7.624  10.999  65.678  1.00  0.00     0.115 C  
ENDBRANCH  37  43
ENDBRANCH  32  33
ENDBRANCH   9  32
BRANCH  13  45
HETATM   45  O   UNL     1     -11.593   9.988  68.775  1.00  0.00    -0.062 OA 
BRANCH  45  46
HETATM   46  C   UNL     1     -11.754  11.411  68.685  1.00  0.00    -0.329 C  
HETATM   47  C   UNL     1      -9.589  13.904  67.141  1.00  0.00    -0.247 C  
HETATM   48  C   UNL     1     -12.147  13.605  70.069  1.00  0.00    -0.348 C  
HETATM   49  C   UNL     1     -12.213  12.066  69.987  1.00  0.00    -0.206 C  
HETATM   50  C   UNL     1     -10.908  14.102  69.296  1.00  0.00    -0.219 C  
HETATM   51  H   UNL     1     -13.821  12.008  71.074  1.00  0.00     0.000 HD 
HETATM   52  O   UNL     1     -13.535  11.602  70.265  1.00  0.00     0.838 OA 
HETATM   53  O   UNL     1     -10.547  12.000  68.206  1.00  0.00    -0.197 OA 
HETATM   54  C   UNL     1     -10.762  13.391  67.950  1.00  0.00    -0.247 C  
BRANCH  48  55
HETATM   55  N   UNL     1     -12.111  14.062  71.502  1.00  0.00    -0.206 NA 
HETATM   56  C   UNL     1     -11.477  15.367  71.676  1.00  0.00    -0.423 C  
HETATM   57  C   UNL     1     -13.385  14.025  72.212  1.00  0.00    -0.478 C  
ENDBRANCH  48  55
ENDBRANCH  45  46
ENDBRANCH  13  45
ENDBRANCH   2   3
TORSDOF 7
ENDMDL
MODEL       25
REMARK 921   NORMALIZED FREE ENERGY PREDICTED BY IDOCK:   -1.27 KCAL/MOL
REMARK 922        TOTAL FREE ENERGY PREDICTED BY IDOCK:   -4.37 KCAL/MOL
REMARK 923 INTER-LIGAND FREE ENERGY PREDICTED BY IDOCK:   -2.31 KCAL/MOL
REMARK 924 INTRA-LIGAND FREE ENERGY PREDICTED BY IDOCK:   -2.06 KCAL/MOL
REMARK 927      BINDING AFFINITY PREDICTED BY RF-SCORE:    0.00 PKD
ROOT
HETATM    1  C   UNL     1      -7.408  17.554  68.500  1.00  0.00    -0.243 C  
HETATM    2  C   UNL     1      -7.936  16.130  68.586  1.00  0.00    -0.201 C  
ENDROOT
BRANCH   2   3
HETATM    3  C   UNL     1      -8.826  15.708  67.387  1.00  0.00    -0.191 C  
HETATM    4  O   UNL     1      -8.677  14.342  66.852  1.00  0.00    -0.221 OA 
HETATM    5  C   UNL     1      -8.364  13.269  67.611  1.00  0.00    -0.181 C  
HETATM    6  C   UNL     1      -8.323  11.954  66.809  1.00  0.00    -0.153 C  
HETATM    7  O   UNL     1      -8.084  13.342  68.794  1.00  0.00    -0.081 OA 
HETATM    8  C   UNL     1      -8.864  12.150  65.385  1.00  0.00     0.537 C  
HETATM    9  C   UNL     1      -8.938  10.649  67.512  1.00  0.00    -0.135 C  
HETATM   10  C   UNL     1     -13.614  15.566  70.718  1.00  0.00    -0.077 C  
HETATM   11  C   UNL     1      -8.870  10.674  69.106  1.00  0.00    -0.133 C  
HETATM   12  C   UNL     1     -12.369  13.482  67.822  1.00  0.00    -0.007 C  
HETATM   13  C   UNL     1      -9.728   9.556  69.910  1.00  0.00    -0.224 C  
HETATM   14  C   UNL     1      -7.350  10.699  69.390  1.00  0.00    -0.133 C  
HETATM   15  C   UNL     1     -12.463  14.736  68.699  1.00  0.00     0.191 C  
HETATM   16  C   UNL     1     -11.089  15.512  68.802  1.00  0.00    -0.291 C  
HETATM   17  C   UNL     1     -11.270   9.707  70.482  1.00  0.00    -0.297 C  
HETATM   18  C   UNL     1     -12.152  10.911  70.031  1.00  0.00    -0.433 C  
HETATM   19  C   UNL     1     -10.367  16.020  67.499  1.00  0.00    -0.287 C  
HETATM   20  C   UNL     1     -11.565   9.385  71.952  1.00  0.00    -0.348 C  
HETATM   21  H   UNL     1     -11.921  15.686  66.379  1.00  0.00     0.000 HD 
HETATM   22  O   UNL     1     -11.937   8.543  69.849  1.00  0.00    -0.192 OA 
HETATM   23  C   UNL     1     -12.412  12.105  71.008  1.00  0.00    -0.369 C  
HETATM   24  H   UNL     1      -9.366  15.249  69.691  1.00  0.00     0.000 HD 
HETATM   25  N   UNL     1     -12.921  14.447  70.085  1.00  0.00    -0.113 NA 
HETATM   26  C   UNL     1     -11.166  12.774  71.570  1.00  0.00     3.931 C  
HETATM   27  H   UNL     1     -12.825   8.631  70.178  1.00  0.00     0.000 HD 
HETATM   28  C   UNL     1     -10.597  17.539  67.379  1.00  0.00    -0.311 C  
HETATM   29  C   UNL     1     -13.459  13.143  70.479  1.00  0.00     0.903 C  
HETATM   30  O   UNL     1     -10.992  15.498  66.311  1.00  0.00    -0.314 OA 
HETATM   31  O   UNL     1     -10.192  14.782  69.630  1.00  0.00    -0.149 OA 
BRANCH   9  32
HETATM   32  O   UNL     1      -8.123   9.580  66.938  1.00  0.00    -0.108 OA 
BRANCH  32  33
HETATM   33  C   UNL     1      -8.737   8.588  66.122  1.00  0.00    -0.152 C  
HETATM   34  O   UNL     1      -5.510   7.103  63.800  1.00  0.00    -0.031 OA 
HETATM   35  C   UNL     1      -6.808   7.366  64.337  1.00  0.00    -0.054 C  
HETATM   36  H   UNL     1      -5.208   6.222  63.988  1.00  0.00     0.000 HD 
HETATM   37  C   UNL     1      -7.302   8.804  64.029  1.00  0.00    -0.102 C  
HETATM   38  O   UNL     1      -8.187   7.287  66.365  1.00  0.00    -0.110 OA 
HETATM   39  C   UNL     1      -6.491   5.642  66.158  1.00  0.00    -0.040 C  
HETATM   40  C   UNL     1      -6.872   7.091  65.855  1.00  0.00    -0.057 C  
HETATM   41  C   UNL     1      -8.721   8.909  64.627  1.00  0.00    -0.138 C  
HETATM   42  C   UNL     1      -7.410   9.088  62.526  1.00  0.00    -0.098 C  
BRANCH  37  43
HETATM   43  O   UNL     1      -6.518   9.821  64.680  1.00  0.00    -0.097 OA 
HETATM   44  C   UNL     1      -5.448  10.414  63.968  1.00  0.00    -0.149 C  
ENDBRANCH  37  43
ENDBRANCH  32  33
ENDBRANCH   9  32
BRANCH  13  45
HETATM   45  O   UNL     1      -8.991   8.536  70.640  1.00  0.00    -0.142 OA 
BRANCH  45  46
HETATM   46  C   UNL     1      -8.784   7.233  70.075  1.00  0.00    -0.141 C  
HETATM   47  C   UNL     1     -10.676   5.491  67.492  1.00  0.00    -0.211 C  
HETATM   48  C   UNL     1      -8.510   4.684  70.633  1.00  0.00    -0.095 C  
HETATM   49  C   UNL     1      -8.474   6.151  71.108  1.00  0.00    -0.125 C  
HETATM   50  C   UNL     1      -9.630   4.517  69.585  1.00  0.00    -0.270 C  
HETATM   51  H   UNL     1      -7.015   5.788  72.338  1.00  0.00     0.000 HD 
HETATM   52  O   UNL     1      -7.208   6.460  71.695  1.00  0.00    -0.083 OA 
HETATM   53  O   UNL     1      -9.907   6.876  69.272  1.00  0.00    -0.155 OA 
HETATM   54  C   UNL     1      -9.626   5.660  68.570  1.00  0.00    -0.130 C  
BRANCH  48  55
HETATM   55  N   UNL     1      -8.712   3.750  71.795  1.00  0.00    -0.093 NA 
HETATM   56  C   UNL     1      -9.709   2.714  71.538  1.00  0.00    -0.152 C  
HETATM   57  C   UNL     1      -7.500   3.154  72.348  1.00  0.00    -0.056 C  
ENDBRANCH  48  55
ENDBRANCH  45  46
ENDBRANCH  13  45
ENDBRANCH   2   3
TORSDOF 7
ENDMDL
MODEL       26
REMARK 921   NORMALIZED FREE ENERGY PREDICTED BY IDOCK:   -1.16 KCAL/MOL
REMARK 922        TOTAL FREE ENERGY PREDICTED BY IDOCK:   -4.22 KCAL/MOL
REMARK 923 INTER-LIGAND FREE ENERGY PREDICTED BY IDOCK:   -4.85 KCAL/MOL
REMARK 924 INTRA-LIGAND FREE ENERGY PREDICTED BY IDOCK:    0.64 KCAL/MOL
REMARK 927      BINDING AFFINITY PREDICTED BY RF-SCORE:    0.00 PKD
ROOT
HETATM    1  C   UNL     1      -8.732   5.530  64.776  1.00  0.00    -0.040 C  
HETATM    2  C   UNL     1      -9.085   5.646  66.252  1.00  0.00    -0.153 C  
ENDROOT
BRANCH   2   3
HETATM    3  C   UNL     1      -7.903   6.090  67.154  1.00  0.00    -0.102 C  
HETATM    4  O   UNL     1      -7.711   7.531  67.396  1.00  0.00    -0.112 OA 
HETATM    5  C   UNL     1      -8.725   8.421  67.470  1.00  0.00    -0.136 C  
HETATM    6  C   UNL     1      -8.249   9.853  67.783  1.00  0.00    -0.114 C  
HETATM    7  O   UNL     1      -9.888   8.133  67.253  1.00  0.00    -0.164 OA 
HETATM    8  C   UNL     1      -6.759   9.880  68.153  1.00  0.00    -0.060 C  
HETATM    9  C   UNL     1      -9.138  10.712  68.807  1.00  0.00    -0.169 C  
HETATM   10  C   UNL     1     -10.519   4.038  71.950  1.00  0.00     0.077 C  
HETATM   11  C   UNL     1     -10.682  10.306  68.830  1.00  0.00    -0.247 C  
HETATM   12  C   UNL     1      -8.351   7.048  71.226  1.00  0.00    -0.114 C  
HETATM   13  C   UNL     1     -11.594  10.897  70.033  1.00  0.00    -0.341 C  
HETATM   14  C   UNL     1     -11.151  10.637  67.394  1.00  0.00    -0.341 C  
HETATM   15  C   UNL     1      -8.907   5.639  70.987  1.00  0.00    -0.137 C  
HETATM   16  C   UNL     1      -9.014   5.280  69.450  1.00  0.00    -0.100 C  
HETATM   17  C   UNL     1     -11.908  10.181  71.488  1.00  0.00    -0.272 C  
HETATM   18  C   UNL     1     -11.088   8.933  71.933  1.00  0.00    -0.442 C  
HETATM   19  C   UNL     1      -7.738   5.341  68.532  1.00  0.00    -0.080 C  
HETATM   20  C   UNL     1     -13.361  10.025  71.954  1.00  0.00    -0.516 C  
HETATM   21  H   UNL     1      -6.525   5.497  70.044  1.00  0.00     0.000 HD 
HETATM   22  O   UNL     1     -11.469  11.231  72.439  1.00  0.00     3.402 OA 
HETATM   23  C   UNL     1     -11.730   7.507  71.876  1.00  0.00    -0.320 C  
HETATM   24  H   UNL     1     -10.159   5.782  67.946  1.00  0.00     0.000 HD 
HETATM   25  N   UNL     1     -10.249   5.429  71.593  1.00  0.00    -0.202 NA 
HETATM   26  C   UNL     1     -12.288   7.095  70.522  1.00  0.00    -0.113 C  
HETATM   27  H   UNL     1     -11.650  10.819  73.275  1.00  0.00     0.000 HD 
HETATM   28  C   UNL     1      -7.252   3.900  68.282  1.00  0.00    -0.055 C  
HETATM   29  C   UNL     1     -10.849   6.386  72.524  1.00  0.00    -0.238 C  
HETATM   30  O   UNL     1      -6.624   5.949  69.214  1.00  0.00    -0.046 OA 
HETATM   31  O   UNL     1     -10.095   5.998  68.869  1.00  0.00    -0.153 OA 
BRANCH   9  32
HETATM   32  O   UNL     1      -8.931  12.075  68.323  1.00  0.00    -0.184 OA 
BRANCH  32  33
HETATM   33  C   UNL     1      -8.228  12.290  67.103  1.00  0.00    -0.179 C  
HETATM   34  O   UNL     1      -9.768  16.000  65.733  1.00  0.00    -0.320 OA 
HETATM   35  C   UNL     1      -9.070  14.757  65.835  1.00  0.00     0.108 C  
HETATM   36  H   UNL     1      -9.186  16.750  65.762  1.00  0.00     0.000 HD 
HETATM   37  C   UNL     1     -10.021  13.532  65.788  1.00  0.00    -0.252 C  
HETATM   38  O   UNL     1      -7.436  13.484  67.150  1.00  0.00    -0.094 OA 
HETATM   39  C   UNL     1      -7.167  15.839  67.098  1.00  0.00    -0.241 C  
HETATM   40  C   UNL     1      -8.181  14.696  67.096  1.00  0.00    -0.201 C  
HETATM   41  C   UNL     1      -9.118  12.283  65.859  1.00  0.00     0.044 C  
HETATM   42  C   UNL     1     -10.823  13.451  64.483  1.00  0.00    -0.419 C  
BRANCH  37  43
HETATM   43  O   UNL     1     -10.900  13.455  66.926  1.00  0.00    -0.274 OA 
HETATM   44  C   UNL     1     -12.266  13.783  66.753  1.00  0.00    -0.397 C  
ENDBRANCH  37  43
ENDBRANCH  32  33
ENDBRANCH   9  32
BRANCH  13  45
HETATM   45  O   UNL     1     -12.624  11.865  69.687  1.00  0.00     0.015 OA 
BRANCH  45  46
HETATM   46  C   UNL     1     -12.457  13.258  69.990  1.00  0.00    -0.100 C  
HETATM   47  C   UNL     1      -9.574  15.424  69.454  1.00  0.00    -0.270 C  
HETATM   48  C   UNL     1     -12.595  15.058  71.893  1.00  0.00    -0.333 C  
HETATM   49  C   UNL     1     -12.977  13.658  71.370  1.00  0.00    -0.347 C  
HETATM   50  C   UNL     1     -11.165  15.402  71.427  1.00  0.00    -0.402 C  
HETATM   51  H   UNL     1     -14.720  13.740  72.222  1.00  0.00     0.000 HD 
HETATM   52  O   UNL     1     -14.396  13.491  71.364  1.00  0.00     0.297 OA 
HETATM   53  O   UNL     1     -11.088  13.621  69.827  1.00  0.00    -0.098 OA 
HETATM   54  C   UNL     1     -10.951  15.040  69.958  1.00  0.00    -0.244 C  
BRANCH  48  55
HETATM   55  N   UNL     1     -12.705  15.116  73.392  1.00  0.00    -0.494 NA 
HETATM   56  C   UNL     1     -11.568  14.508  74.080  1.00  0.00     0.929 C  
HETATM   57  C   UNL     1     -12.988  16.431  73.958  1.00  0.00    -0.109 C  
ENDBRANCH  48  55
ENDBRANCH  45  46
ENDBRANCH  13  45
ENDBRANCH   2   3
TORSDOF 7
ENDMDL
MODEL       27
REMARK 921   NORMALIZED FREE ENERGY PREDICTED BY IDOCK:   -1.15 KCAL/MOL
REMARK 922        TOTAL FREE ENERGY PREDICTED BY IDOCK:   -4.21 KCAL/MOL
REMARK 923 INTER-LIGAND FREE ENERGY PREDICTED BY IDOCK:   -7.64 KCAL/MOL
REMARK 924 INTRA-LIGAND FREE ENERGY PREDICTED BY IDOCK:    3.43 KCAL/MOL
REMARK 927      BINDING AFFINITY PREDICTED BY RF-SCORE:    0.00 PKD
ROOT
HETATM    1  C   UNL     1     -11.142   7.693  73.315  1.00  0.00    -0.254 C  
HETATM    2  C   UNL     1     -11.694   6.767  72.241  1.00  0.00    -0.300 C  
ENDROOT
BRANCH   2   3
HETATM    3  C   UNL     1     -10.780   5.557  71.915  1.00  0.00    -0.231 C  
HETATM    4  O   UNL     1     -10.536   5.226  70.499  1.00  0.00    -0.262 OA 
HETATM    5  C   UNL     1     -10.474   6.148  69.512  1.00  0.00    -0.254 C  
HETATM    6  C   UNL     1     -10.157   5.535  68.134  1.00  0.00    -0.221 C  
HETATM    7  O   UNL     1     -10.704   7.331  69.684  1.00  0.00    -0.231 OA 
HETATM    8  C   UNL     1      -9.771   4.054  68.255  1.00  0.00    -0.133 C  
HETATM    9  C   UNL     1      -9.144   6.346  67.190  1.00  0.00    -0.120 C  
HETATM   10  C   UNL     1      -6.011   8.415  73.688  1.00  0.00    -0.108 C  
HETATM   11  C   UNL     1      -9.137   7.922  67.441  1.00  0.00    -0.146 C  
HETATM   12  C   UNL     1      -6.714   5.952  70.909  1.00  0.00    -0.057 C  
HETATM   13  C   UNL     1      -7.944   8.785  66.760  1.00  0.00    -0.097 C  
HETATM   14  C   UNL     1     -10.578   8.341  67.068  1.00  0.00    -0.328 C  
HETATM   15  C   UNL     1      -6.958   6.642  72.256  1.00  0.00    -0.068 C  
HETATM   16  C   UNL     1      -8.495   6.767  72.606  1.00  0.00    -0.121 C  
HETATM   17  C   UNL     1      -6.492   9.184  67.439  1.00  0.00    -0.064 C  
HETATM   18  C   UNL     1      -6.037   8.496  68.761  1.00  0.00    -0.045 C  
HETATM   19  C   UNL     1      -9.400   5.482  72.673  1.00  0.00    -0.140 C  
HETATM   20  C   UNL     1      -6.042  10.650  67.449  1.00  0.00    -0.053 C  
HETATM   21  H   UNL     1      -7.874   4.276  72.635  1.00  0.00     0.000 HD 
HETATM   22  O   UNL     1      -5.538   8.653  66.435  1.00  0.00    -0.040 OA 
HETATM   23  C   UNL     1      -6.100   9.276  70.117  1.00  0.00    -0.036 C  
HETATM   24  H   UNL     1     -10.012   7.841  71.996  1.00  0.00     0.000 HD 
HETATM   25  N   UNL     1      -6.366   8.005  72.332  1.00  0.00    -0.057 NA 
HETATM   26  C   UNL     1      -7.461   9.857  70.474  1.00  0.00    -0.057 C  
HETATM   27  H   UNL     1      -4.703   8.883  66.827  1.00  0.00     0.000 HD 
HETATM   28  C   UNL     1      -9.643   5.138  74.156  1.00  0.00    -0.144 C  
HETATM   29  C   UNL     1      -5.442   8.517  71.318  1.00  0.00    -0.034 C  
HETATM   30  O   UNL     1      -8.706   4.321  72.178  1.00  0.00    -0.105 OA 
HETATM   31  O   UNL     1      -9.089   7.766  71.786  1.00  0.00    -0.130 OA 
BRANCH   9  32
HETATM   32  O   UNL     1      -9.626   6.000  65.855  1.00  0.00    -0.061 OA 
BRANCH  32  33
HETATM   33  C   UNL     1      -9.368   4.702  65.327  1.00  0.00    -0.157 C  
HETATM   34  O   UNL     1      -5.167   4.712  64.729  1.00  0.00    -0.012 OA 
HETATM   35  C   UNL     1      -6.550   4.356  64.741  1.00  0.00    -0.044 C  
HETATM   36  H   UNL     1      -4.644   4.169  65.306  1.00  0.00     0.000 HD 
HETATM   37  C   UNL     1      -7.405   5.243  63.798  1.00  0.00    -0.052 C  
HETATM   38  O   UNL     1      -8.497   3.947  66.179  1.00  0.00    -0.108 OA 
HETATM   39  C   UNL     1      -6.369   3.418  67.082  1.00  0.00    -0.036 C  
HETATM   40  C   UNL     1      -7.138   4.373  66.169  1.00  0.00    -0.071 C  
HETATM   41  C   UNL     1      -8.848   4.703  63.889  1.00  0.00    -0.135 C  
HETATM   42  C   UNL     1      -6.966   5.147  62.331  1.00  0.00    -0.030 C  
BRANCH  37  43
HETATM   43  O   UNL     1      -7.465   6.619  64.217  1.00  0.00    -0.081 OA 
HETATM   44  C   UNL     1      -7.529   7.629  63.228  1.00  0.00    -0.108 C  
ENDBRANCH  37  43
ENDBRANCH  32  33
ENDBRANCH   9  32
BRANCH  13  45
HETATM   45  O   UNL     1      -8.302   9.711  65.696  1.00  0.00    -0.123 OA 
BRANCH  45  46
HETATM   46  C   UNL     1      -9.447  10.568  65.823  1.00  0.00    -0.201 C  
HETATM   47  C   UNL     1     -11.692  11.844  63.250  1.00  0.00    -0.397 C  
HETATM   48  C   UNL     1     -10.291  12.876  66.740  1.00  0.00    -0.245 C  
HETATM   49  C   UNL     1      -9.228  11.758  66.756  1.00  0.00    -0.194 C  
HETATM   50  C   UNL     1     -10.824  13.051  65.303  1.00  0.00    -0.311 C  
HETATM   51  H   UNL     1      -8.916  11.987  68.659  1.00  0.00     0.000 HD 
HETATM   52  O   UNL     1      -9.052  11.247  68.078  1.00  0.00    -0.145 OA 
HETATM   53  O   UNL     1      -9.870  10.994  64.529  1.00  0.00    -0.243 OA 
HETATM   54  C   UNL     1     -11.109  11.703  64.641  1.00  0.00    -0.278 C  
BRANCH  48  55
HETATM   55  N   UNL     1      -9.719  14.164  67.266  1.00  0.00    -0.231 NA 
HETATM   56  C   UNL     1      -9.674  15.228  66.266  1.00  0.00    -0.299 C  
HETATM   57  C   UNL     1     -10.311  14.664  68.503  1.00  0.00    -0.238 C  
ENDBRANCH  48  55
ENDBRANCH  45  46
ENDBRANCH  13  45
ENDBRANCH   2   3
TORSDOF 7
ENDMDL
MODEL       28
REMARK 921   NORMALIZED FREE ENERGY PREDICTED BY IDOCK:   -1.15 KCAL/MOL
REMARK 922        TOTAL FREE ENERGY PREDICTED BY IDOCK:   -4.20 KCAL/MOL
REMARK 923 INTER-LIGAND FREE ENERGY PREDICTED BY IDOCK:   -4.81 KCAL/MOL
REMARK 924 INTRA-LIGAND FREE ENERGY PREDICTED BY IDOCK:    0.60 KCAL/MOL
REMARK 927      BINDING AFFINITY PREDICTED BY RF-SCORE:    0.00 PKD
ROOT
HETATM    1  C   UNL     1      -9.856   3.743  63.717  1.00  0.00    -0.171 C  
HETATM    2  C   UNL     1      -9.000   4.128  64.915  1.00  0.00    -0.138 C  
ENDROOT
BRANCH   2   3
HETATM    3  C   UNL     1      -7.826   5.083  64.575  1.00  0.00    -0.093 C  
HETATM    4  O   UNL     1      -8.081   6.535  64.584  1.00  0.00    -0.122 OA 
HETATM    5  C   UNL     1      -8.958   7.138  65.416  1.00  0.00     0.213 C  
HETATM    6  C   UNL     1      -8.992   8.670  65.250  1.00  0.00    -0.150 C  
HETATM    7  O   UNL     1      -9.689   6.529  66.176  1.00  0.00    -0.072 OA 
HETATM    8  C   UNL     1      -7.862   9.159  64.333  1.00  0.00    -0.125 C  
HETATM    9  C   UNL     1      -9.104   9.548  66.588  1.00  0.00    -0.148 C  
HETATM   10  C   UNL     1      -5.155   3.940  69.636  1.00  0.00    -0.004 C  
HETATM   11  C   UNL     1      -9.841   8.808  67.795  1.00  0.00    -0.217 C  
HETATM   12  C   UNL     1      -5.532   7.041  67.508  1.00  0.00    -0.019 C  
HETATM   13  C   UNL     1      -9.737   9.485  69.266  1.00  0.00    -0.176 C  
HETATM   14  C   UNL     1     -11.271   8.587  67.247  1.00  0.00     0.749 C  
HETATM   15  C   UNL     1      -5.500   5.533  67.782  1.00  0.00    -0.012 C  
HETATM   16  C   UNL     1      -6.529   4.730  66.889  1.00  0.00    -0.045 C  
HETATM   17  C   UNL     1      -8.610   9.166  70.430  1.00  0.00    -0.209 C  
HETATM   18  C   UNL     1      -7.340   8.335  70.076  1.00  0.00    -0.063 C  
HETATM   19  C   UNL     1      -6.461   4.827  65.320  1.00  0.00    -0.036 C  
HETATM   20  C   UNL     1      -9.071   8.808  71.849  1.00  0.00    -0.291 C  
HETATM   21  H   UNL     1      -4.723   5.701  65.343  1.00  0.00     0.000 HD 
HETATM   22  O   UNL     1      -8.065  10.520  70.696  1.00  0.00    -0.107 OA 
HETATM   23  C   UNL     1      -7.222   6.843  70.533  1.00  0.00    -0.072 C  
HETATM   24  H   UNL     1      -8.469   4.485  66.820  1.00  0.00     0.000 HD 
HETATM   25  N   UNL     1      -5.775   5.190  69.203  1.00  0.00    -0.015 NA 
HETATM   26  C   UNL     1      -8.367   5.936  70.103  1.00  0.00    -0.118 C  
HETATM   27  H   UNL     1      -7.417  10.336  71.366  1.00  0.00     0.000 HD 
HETATM   28  C   UNL     1      -5.813   3.536  64.783  1.00  0.00    -0.022 C  
HETATM   29  C   UNL     1      -5.819   6.203  70.260  1.00  0.00    -0.018 C  
HETATM   30  O   UNL     1      -5.545   5.855  64.893  1.00  0.00    -0.016 OA 
HETATM   31  O   UNL     1      -7.850   4.968  67.357  1.00  0.00    -0.094 OA 
BRANCH   9  32
HETATM   32  O   UNL     1      -9.841  10.721  66.124  1.00  0.00    -0.204 OA 
BRANCH  32  33
HETATM   33  C   UNL     1      -9.555  11.271  64.842  1.00  0.00    -0.232 C  
HETATM   34  O   UNL     1     -12.402  14.395  64.463  1.00  0.00    -0.535 OA 
HETATM   35  C   UNL     1     -11.368  13.443  64.209  1.00  0.00    -0.389 C  
HETATM   36  H   UNL     1     -12.077  15.287  64.501  1.00  0.00     0.000 HD 
HETATM   37  C   UNL     1     -11.899  11.986  64.148  1.00  0.00    -0.373 C  
HETATM   38  O   UNL     1      -9.161  12.646  64.930  1.00  0.00     0.405 OA 
HETATM   39  C   UNL     1      -9.616  14.955  65.225  1.00  0.00     0.036 C  
HETATM   40  C   UNL     1     -10.218  13.550  65.235  1.00  0.00    -0.306 C  
HETATM   41  C   UNL     1     -10.680  11.097  63.821  1.00  0.00    -0.399 C  
HETATM   42  C   UNL     1     -12.937  11.777  63.039  1.00  0.00     0.260 C  
BRANCH  37  43
HETATM   43  O   UNL     1     -12.408  11.517  65.410  1.00  0.00     0.166 OA 
HETATM   44  C   UNL     1     -12.356  12.383  66.528  1.00  0.00     0.385 C  
ENDBRANCH  37  43
ENDBRANCH  32  33
ENDBRANCH   9  32
BRANCH  13  45
HETATM   45  O   UNL     1     -10.954  10.034  69.844  1.00  0.00    -0.253 OA 
BRANCH  45  46
HETATM   46  C   UNL     1     -11.342  11.392  69.588  1.00  0.00    -0.275 C  
HETATM   47  C   UNL     1      -9.320  14.220  68.491  1.00  0.00    -0.200 C  
HETATM   48  C   UNL     1     -12.515  13.504  70.611  1.00  0.00    -0.333 C  
HETATM   49  C   UNL     1     -12.270  11.982  70.649  1.00  0.00    -0.316 C  
HETATM   50  C   UNL     1     -11.219  14.216  70.171  1.00  0.00    -0.060 C  
HETATM   51  H   UNL     1     -14.084  11.636  71.249  1.00  0.00     0.000 HD 
HETATM   52  O   UNL     1     -13.507  11.270  70.589  1.00  0.00     0.345 OA 
HETATM   53  O   UNL     1     -10.178  12.197  69.413  1.00  0.00     0.206 OA 
HETATM   54  C   UNL     1     -10.563  13.507  68.986  1.00  0.00    -0.098 C  
BRANCH  48  55
HETATM   55  N   UNL     1     -12.980  14.005  71.951  1.00  0.00    -0.345 NA 
HETATM   56  C   UNL     1     -11.977  14.808  72.648  1.00  0.00    -0.159 C  
HETATM   57  C   UNL     1     -14.267  14.691  71.961  1.00  0.00    -0.537 C  
ENDBRANCH  48  55
ENDBRANCH  45  46
ENDBRANCH  13  45
ENDBRANCH   2   3
TORSDOF 7
ENDMDL
MODEL       29
REMARK 921   NORMALIZED FREE ENERGY PREDICTED BY IDOCK:   -1.08 KCAL/MOL
REMARK 922        TOTAL FREE ENERGY PREDICTED BY IDOCK:   -4.10 KCAL/MOL
REMARK 923 INTER-LIGAND FREE ENERGY PREDICTED BY IDOCK:   -5.48 KCAL/MOL
REMARK 924 INTRA-LIGAND FREE ENERGY PREDICTED BY IDOCK:    1.38 KCAL/MOL
REMARK 927      BINDING AFFINITY PREDICTED BY RF-SCORE:    0.00 PKD
ROOT
HETATM    1  C   UNL     1     -11.797  12.231  66.976  1.00  0.00    -0.329 C  
HETATM    2  C   UNL     1     -11.009  10.954  67.226  1.00  0.00    -0.355 C  
ENDROOT
BRANCH   2   3
HETATM    3  C   UNL     1      -9.698  11.164  68.029  1.00  0.00    -0.176 C  
HETATM    4  O   UNL     1      -9.256  10.093  68.940  1.00  0.00    -0.154 OA 
HETATM    5  C   UNL     1      -9.466   8.778  68.710  1.00  0.00    -0.142 C  
HETATM    6  C   UNL     1      -8.856   7.871  69.796  1.00  0.00    -0.141 C  
HETATM    7  O   UNL     1     -10.119   8.357  67.773  1.00  0.00    -0.183 OA 
HETATM    8  C   UNL     1      -7.968   8.670  70.760  1.00  0.00    -0.127 C  
HETATM    9  C   UNL     1      -8.144   6.519  69.304  1.00  0.00    -0.112 C  
HETATM   10  C   UNL     1      -6.421  10.585  63.236  1.00  0.00    -0.015 C  
HETATM   11  C   UNL     1      -8.726   5.934  67.937  1.00  0.00    -0.104 C  
HETATM   12  C   UNL     1      -5.994   9.558  66.848  1.00  0.00    -0.056 C  
HETATM   13  C   UNL     1      -7.883   4.757  67.207  1.00  0.00    -0.094 C  
HETATM   14  C   UNL     1     -10.192   5.600  68.297  1.00  0.00    -0.239 C  
HETATM   15  C   UNL     1      -6.562  10.390  65.692  1.00  0.00    -0.129 C  
HETATM   16  C   UNL     1      -8.060  10.833  65.939  1.00  0.00    -0.148 C  
HETATM   17  C   UNL     1      -6.724   4.937  66.044  1.00  0.00    -0.053 C  
HETATM   18  C   UNL     1      -6.142   6.350  65.739  1.00  0.00    -0.030 C  
HETATM   19  C   UNL     1      -8.440  11.662  67.221  1.00  0.00    -0.156 C  
HETATM   20  C   UNL     1      -6.837   4.143  64.736  1.00  0.00    -0.049 C  
HETATM   21  H   UNL     1      -6.582  12.034  67.662  1.00  0.00     0.000 HD 
HETATM   22  O   UNL     1      -5.577   4.222  66.653  1.00  0.00    -0.016 OA 
HETATM   23  C   UNL     1      -6.574   7.119  64.447  1.00  0.00    -0.040 C  
HETATM   24  H   UNL     1      -9.818   9.975  65.936  1.00  0.00     0.000 HD 
HETATM   25  N   UNL     1      -6.511   9.685  64.383  1.00  0.00    -0.096 NA 
HETATM   26  C   UNL     1      -8.074   7.313  64.273  1.00  0.00    -0.049 C  
HETATM   27  H   UNL     1      -4.910   4.326  65.984  1.00  0.00     0.000 HD 
HETATM   28  C   UNL     1      -8.642  13.132  66.804  1.00  0.00    -0.049 C  
HETATM   29  C   UNL     1      -5.769   8.438  64.191  1.00  0.00    -0.064 C  
HETATM   30  O   UNL     1      -7.340  11.734  68.149  1.00  0.00    -0.082 OA 
HETATM   31  O   UNL     1      -8.918   9.709  65.787  1.00  0.00    -0.150 OA 
BRANCH   9  32
HETATM   32  O   UNL     1      -8.376   5.622  70.434  1.00  0.00    -0.115 OA 
BRANCH  32  33
HETATM   33  C   UNL     1      -7.963   6.012  71.740  1.00  0.00    -0.107 C  
HETATM   34  O   UNL     1     -11.129   4.647  74.213  1.00  0.00    -0.287 OA 
HETATM   35  C   UNL     1      -9.940   5.271  73.726  1.00  0.00    -0.182 C  
HETATM   36  H   UNL     1     -10.948   3.911  74.786  1.00  0.00     0.000 HD 
HETATM   37  C   UNL     1     -10.236   6.473  72.791  1.00  0.00    -0.186 C  
HETATM   38  O   UNL     1      -7.793   4.880  72.603  1.00  0.00    -0.091 OA 
HETATM   39  C   UNL     1      -8.621   3.128  73.970  1.00  0.00    -0.073 C  
HETATM   40  C   UNL     1      -9.006   4.263  73.021  1.00  0.00    -0.108 C  
HETATM   41  C   UNL     1      -8.864   7.059  72.396  1.00  0.00    -0.141 C  
HETATM   42  C   UNL     1     -11.033   7.585  73.485  1.00  0.00    -0.093 C  
BRANCH  37  43
HETATM   43  O   UNL     1     -10.876   6.088  71.560  1.00  0.00    -0.248 OA 
HETATM   44  C   UNL     1     -12.054   6.765  71.166  1.00  0.00    -0.370 C  
ENDBRANCH  37  43
ENDBRANCH  32  33
ENDBRANCH   9  32
BRANCH  13  45
HETATM   45  O   UNL     1      -8.480   3.430  67.157  1.00  0.00    -0.096 OA 
BRANCH  45  46
HETATM   46  C   UNL     1      -8.234   2.475  68.200  1.00  0.00    -0.058 C  
HETATM   47  C   UNL     1     -10.315   1.557  71.049  1.00  0.00     0.343 C  
HETATM   48  C   UNL     1      -6.545   1.744  70.069  1.00  0.00    -0.029 C  
HETATM   49  C   UNL     1      -6.818   2.530  68.771  1.00  0.00    -0.036 C  
HETATM   50  C   UNL     1      -7.793   1.805  70.973  1.00  0.00    -0.035 C  
HETATM   51  H   UNL     1      -5.036   2.163  68.091  1.00  0.00     0.000 HD 
HETATM   52  O   UNL     1      -5.917   2.128  67.737  1.00  0.00    -0.022 OA 
HETATM   53  O   UNL     1      -9.213   2.626  69.226  1.00  0.00    -0.118 OA 
HETATM   54  C   UNL     1      -9.076   1.564  70.177  1.00  0.00    -0.083 C  
BRANCH  48  55
HETATM   55  N   UNL     1      -5.335   2.287  70.778  1.00  0.00    -0.004 NA 
HETATM   56  C   UNL     1      -5.218   3.741  70.691  1.00  0.00    -0.004 C  
HETATM   57  C   UNL     1      -5.160   1.852  72.160  1.00  0.00     0.000 C  
ENDBRANCH  48  55
ENDBRANCH  45  46
ENDBRANCH  13  45
ENDBRANCH   2   3
TORSDOF 7
ENDMDL
MODEL       30
REMARK 921   NORMALIZED FREE ENERGY PREDICTED BY IDOCK:   -0.57 KCAL/MOL
REMARK 922        TOTAL FREE ENERGY PREDICTED BY IDOCK:   -3.39 KCAL/MOL
REMARK 923 INTER-LIGAND FREE ENERGY PREDICTED BY IDOCK:   -2.61 KCAL/MOL
REMARK 924 INTRA-LIGAND FREE ENERGY PREDICTED BY IDOCK:   -0.77 KCAL/MOL
REMARK 927      BINDING AFFINITY PREDICTED BY RF-SCORE:    0.00 PKD
ROOT
HETATM    1  C   UNL     1      -5.238  16.800  68.741  1.00  0.00    -0.120 C  
HETATM    2  C   UNL     1      -5.824  15.400  68.627  1.00  0.00    -0.095 C  
ENDROOT
BRANCH   2   3
HETATM    3  C   UNL     1      -6.534  15.117  67.277  1.00  0.00     0.127 C  
HETATM    4  O   UNL     1      -6.857  13.719  66.937  1.00  0.00     0.170 OA 
HETATM    5  C   UNL     1      -7.185  12.780  67.852  1.00  0.00    -0.120 C  
HETATM    6  C   UNL     1      -7.526  11.416  67.221  1.00  0.00    -0.134 C  
HETATM    7  O   UNL     1      -7.155  12.975  69.053  1.00  0.00    -0.093 OA 
HETATM    8  C   UNL     1      -7.625  11.516  65.692  1.00  0.00     0.633 C  
HETATM    9  C   UNL     1      -8.759  10.607  67.852  1.00  0.00    -0.127 C  
HETATM   10  C   UNL     1     -11.532  17.454  69.178  1.00  0.00     1.226 C  
HETATM   11  C   UNL     1      -9.024  10.919  69.395  1.00  0.00     0.104 C  
HETATM   12  C   UNL     1     -10.685  14.525  66.943  1.00  0.00    -0.288 C  
HETATM   13  C   UNL     1     -10.416  10.391  70.038  1.00  0.00    -0.182 C  
HETATM   14  C   UNL     1      -7.727  10.425  70.078  1.00  0.00     0.002 C  
HETATM   15  C   UNL     1     -10.433  15.869  67.637  1.00  0.00    -0.289 C  
HETATM   16  C   UNL     1      -8.916  16.073  68.035  1.00  0.00    -0.187 C  
HETATM   17  C   UNL     1     -11.838  11.222  70.151  1.00  0.00    -0.364 C  
HETATM   18  C   UNL     1     -12.025  12.554  69.365  1.00  0.00    -0.315 C  
HETATM   19  C   UNL     1      -7.793  16.002  66.935  1.00  0.00    -0.249 C  
HETATM   20  C   UNL     1     -12.542  11.333  71.510  1.00  0.00    -0.418 C  
HETATM   21  H   UNL     1      -9.072  16.064  65.472  1.00  0.00     0.000 HD 
HETATM   22  O   UNL     1     -12.779  10.296  69.476  1.00  0.00    -0.585 OA 
HETATM   23  C   UNL     1     -11.965  13.927  70.114  1.00  0.00    -0.402 C  
HETATM   24  H   UNL     1      -7.687  15.361  69.380  1.00  0.00     0.000 HD 
HETATM   25  N   UNL     1     -11.249  16.055  68.868  1.00  0.00    -0.331 NA 
HETATM   26  C   UNL     1     -10.702  14.173  70.927  1.00  0.00     1.473 C  
HETATM   27  H   UNL     1     -13.598  10.775  69.541  1.00  0.00     0.000 HD 
HETATM   28  C   UNL     1      -7.341  17.439  66.612  1.00  0.00    -0.282 C  
HETATM   29  C   UNL     1     -12.349  15.156  69.223  1.00  0.00    -0.093 C  
HETATM   30  O   UNL     1      -8.314  15.531  65.677  1.00  0.00     0.777 OA 
HETATM   31  O   UNL     1      -8.599  15.238  69.142  1.00  0.00    -0.204 OA 
BRANCH   9  32
HETATM   32  O   UNL     1      -8.361   9.219  67.627  1.00  0.00    -0.115 OA 
BRANCH  32  33
HETATM   33  C   UNL     1      -7.153   8.937  66.928  1.00  0.00    -0.082 C  
HETATM   34  O   UNL     1      -6.850   4.711  67.172  1.00  0.00    -0.053 OA 
HETATM   35  C   UNL     1      -6.586   6.094  66.929  1.00  0.00    -0.059 C  
HETATM   36  H   UNL     1      -6.985   4.218  66.371  1.00  0.00     0.000 HD 
HETATM   37  C   UNL     1      -6.365   6.899  68.237  1.00  0.00    -0.035 C  
HETATM   38  O   UNL     1      -7.385   8.110  65.780  1.00  0.00    -0.073 OA 
HETATM   39  C   UNL     1      -7.845   6.031  64.738  1.00  0.00    -0.111 C  
HETATM   40  C   UNL     1      -7.693   6.752  66.077  1.00  0.00    -0.093 C  
HETATM   41  C   UNL     1      -6.047   8.345  67.803  1.00  0.00    -0.048 C  
HETATM   42  C   UNL     1      -5.174   6.388  69.056  1.00  0.00    -0.012 C  
BRANCH  37  43
HETATM   43  O   UNL     1      -7.545   6.978  69.058  1.00  0.00    -0.099 OA 
HETATM   44  C   UNL     1      -7.455   6.595  70.417  1.00  0.00    -0.090 C  
ENDBRANCH  37  43
ENDBRANCH  32  33
ENDBRANCH   9  32
BRANCH  13  45
HETATM   45  O   UNL     1     -10.340   9.334  71.036  1.00  0.00    -0.269 OA 
BRANCH  45  46
HETATM   46  C   UNL     1     -10.987   8.071  70.819  1.00  0.00    -0.248 C  
HETATM   47  C   UNL     1     -11.208   5.165  73.009  1.00  0.00    -0.390 C  
HETATM   48  C   UNL     1     -11.159   6.012  69.203  1.00  0.00    -0.335 C  
HETATM   49  C   UNL     1     -10.741   7.479  69.432  1.00  0.00    -0.193 C  
HETATM   50  C   UNL     1     -10.907   5.204  70.493  1.00  0.00    -0.004 C  
HETATM   51  H   UNL     1     -11.214   7.969  67.613  1.00  0.00     0.000 HD 
HETATM   52  O   UNL     1     -11.367   8.337  68.476  1.00  0.00     0.459 OA 
HETATM   53  O   UNL     1     -10.609   7.158  71.847  1.00  0.00    -0.211 OA 
HETATM   54  C   UNL     1     -11.386   5.961  71.732  1.00  0.00    -0.227 C  
BRANCH  48  55
HETATM   55  N   UNL     1     -10.412   5.420  68.039  1.00  0.00    -0.159 NA 
HETATM   56  C   UNL     1     -10.067   4.013  68.228  1.00  0.00     0.290 C  
HETATM   57  C   UNL     1     -11.023   5.614  66.728  1.00  0.00    -0.093 C  
ENDBRANCH  48  55
ENDBRANCH  45  46
ENDBRANCH  13  45
ENDBRANCH   2   3
TORSDOF 7
ENDMDL
MODEL       31
REMARK 921   NORMALIZED FREE ENERGY PREDICTED BY IDOCK:   -0.55 KCAL/MOL
REMARK 922        TOTAL FREE ENERGY PREDICTED BY IDOCK:   -3.36 KCAL/MOL
REMARK 923 INTER-LIGAND FREE ENERGY PREDICTED BY IDOCK:   -0.95 KCAL/MOL
REMARK 924 INTRA-LIGAND FREE ENERGY PREDICTED BY IDOCK:   -2.41 KCAL/MOL
REMARK 927      BINDING AFFINITY PREDICTED BY RF-SCORE:    0.00 PKD
ROOT
HETATM    1  C   UNL     1     -11.619  16.554  71.910  1.00  0.00    -0.211 C  
HETATM    2  C   UNL     1     -11.375  16.144  70.464  1.00  0.00    -0.392 C  
ENDROOT
BRANCH   2   3
HETATM    3  C   UNL     1      -9.933  16.415  69.963  1.00  0.00     0.309 C  
HETATM    4  O   UNL     1      -9.024  15.266  69.795  1.00  0.00    -0.201 OA 
HETATM    5  C   UNL     1      -9.432  14.033  69.422  1.00  0.00     0.535 C  
HETATM    6  C   UNL     1      -8.271  13.032  69.273  1.00  0.00     0.739 C  
HETATM    7  O   UNL     1     -10.603  13.730  69.277  1.00  0.00    -0.142 OA 
HETATM    8  C   UNL     1      -6.909  13.735  69.369  1.00  0.00    -0.044 C  
HETATM    9  C   UNL     1      -8.336  12.016  68.032  1.00  0.00    -0.162 C  
HETATM   10  C   UNL     1     -11.818  17.706  64.593  1.00  0.00     3.513 C  
HETATM   11  C   UNL     1      -9.817  11.678  67.543  1.00  0.00    -0.199 C  
HETATM   12  C   UNL     1      -8.766  15.937  65.949  1.00  0.00    -0.055 C  
HETATM   13  C   UNL     1      -9.980  10.912  66.122  1.00  0.00    -0.233 C  
HETATM   14  C   UNL     1     -10.438  10.973  68.771  1.00  0.00    -0.222 C  
HETATM   15  C   UNL     1      -9.964  16.892  66.004  1.00  0.00    -0.293 C  
HETATM   16  C   UNL     1     -10.635  16.945  67.436  1.00  0.00    -0.294 C  
HETATM   17  C   UNL     1     -10.195  11.604  64.638  1.00  0.00    -0.281 C  
HETATM   18  C   UNL     1      -9.979  13.137  64.456  1.00  0.00    -0.137 C  
HETATM   19  C   UNL     1      -9.781  17.341  68.696  1.00  0.00    -0.301 C  
HETATM   20  C   UNL     1     -11.363  11.148  63.754  1.00  0.00     0.068 C  
HETATM   21  H   UNL     1      -8.285  17.964  67.621  1.00  0.00     0.000 HD 
HETATM   22  O   UNL     1      -9.074  11.011  63.868  1.00  0.00    -0.294 OA 
HETATM   23  C   UNL     1     -11.209  14.093  64.311  1.00  0.00    -0.194 C  
HETATM   24  H   UNL     1     -11.760  15.774  68.526  1.00  0.00     0.000 HD 
HETATM   25  N   UNL     1     -11.028  16.555  65.021  1.00  0.00    -0.565 NA 
HETATM   26  C   UNL     1     -12.235  14.014  65.433  1.00  0.00    -0.453 C  
HETATM   27  H   UNL     1      -9.198  11.409  63.014  1.00  0.00     0.000 HD 
HETATM   28  C   UNL     1     -10.123  18.795  69.076  1.00  0.00    -0.295 C  
HETATM   29  C   UNL     1     -10.828  15.570  63.955  1.00  0.00     1.073 C  
HETATM   30  O   UNL     1      -8.376  17.406  68.384  1.00  0.00    -0.246 OA 
HETATM   31  O   UNL     1     -11.357  15.742  67.666  1.00  0.00    -0.297 OA 
BRANCH   9  32
HETATM   32  O   UNL     1      -7.645  10.842  68.561  1.00  0.00    -0.097 OA 
BRANCH  32  33
HETATM   33  C   UNL     1      -6.221  10.811  68.578  1.00  0.00    -0.046 C  
HETATM   34  O   UNL     1      -5.306   7.072  66.794  1.00  0.00    -0.020 OA 
HETATM   35  C   UNL     1      -5.218   8.333  67.457  1.00  0.00    -0.034 C  
HETATM   36  H   UNL     1      -4.920   7.086  65.926  1.00  0.00     0.000 HD 
HETATM   37  C   UNL     1      -5.849   8.309  68.874  1.00  0.00    -0.043 C  
HETATM   38  O   UNL     1      -5.676  10.736  67.254  1.00  0.00    -0.044 OA 
HETATM   39  C   UNL     1      -5.144   9.575  65.256  1.00  0.00    -0.039 C  
HETATM   40  C   UNL     1      -5.834   9.473  66.617  1.00  0.00    -0.055 C  
HETATM   41  C   UNL     1      -5.629   9.717  69.467  1.00  0.00    -0.034 C  
HETATM   42  C   UNL     1      -5.172   7.301  69.810  1.00  0.00    -0.015 C  
BRANCH  37  43
HETATM   43  O   UNL     1      -7.273   8.102  68.854  1.00  0.00    -0.074 OA 
HETATM   44  C   UNL     1      -7.884   7.470  69.964  1.00  0.00    -0.099 C  
ENDBRANCH  37  43
ENDBRANCH  32  33
ENDBRANCH   9  32
BRANCH  13  45
HETATM   45  O   UNL     1     -10.479   9.545  66.145  1.00  0.00    -0.170 OA 
BRANCH  45  46
HETATM   46  C   UNL     1      -9.572   8.433  66.185  1.00  0.00    -0.176 C  
HETATM   47  C   UNL     1      -7.260   7.224  63.639  1.00  0.00    -0.075 C  
HETATM   48  C   UNL     1      -9.382   5.851  66.610  1.00  0.00    -0.145 C  
HETATM   49  C   UNL     1     -10.178   7.161  66.778  1.00  0.00    -0.219 C  
HETATM   50  C   UNL     1      -8.675   5.858  65.239  1.00  0.00    -0.078 C  
HETATM   51  H   UNL     1     -10.829   6.622  68.527  1.00  0.00     0.000 HD 
HETATM   52  O   UNL     1     -10.452   7.413  68.158  1.00  0.00    -0.197 OA 
HETATM   53  O   UNL     1      -9.047   8.197  64.881  1.00  0.00     0.191 OA 
HETATM   54  C   UNL     1      -8.016   7.207  64.953  1.00  0.00    -0.127 C  
BRANCH  48  55
HETATM   55  N   UNL     1     -10.284   4.656  66.749  1.00  0.00    -0.216 NA 
HETATM   56  C   UNL     1     -10.875   4.227  65.483  1.00  0.00     0.141 C  
HETATM   57  C   UNL     1      -9.716   3.509  67.450  1.00  0.00    -0.010 C  
ENDBRANCH  48  55
ENDBRANCH  45  46
ENDBRANCH  13  45
ENDBRANCH   2   3
TORSDOF 7
ENDMDL
MODEL       32
REMARK 921   NORMALIZED FREE ENERGY PREDICTED BY IDOCK:   -0.43 KCAL/MOL
REMARK 922        TOTAL FREE ENERGY PREDICTED BY IDOCK:   -3.19 KCAL/MOL
REMARK 923 INTER-LIGAND FREE ENERGY PREDICTED BY IDOCK:   -1.64 KCAL/MOL
REMARK 924 INTRA-LIGAND FREE ENERGY PREDICTED BY IDOCK:   -1.55 KCAL/MOL
REMARK 927      BINDING AFFINITY PREDICTED BY RF-SCORE:    0.00 PKD
ROOT
HETATM    1  C   UNL     1      -7.140  17.479  67.922  1.00  0.00    -0.186 C  
HETATM    2  C   UNL     1      -7.924  16.213  68.233  1.00  0.00    -0.152 C  
ENDROOT
BRANCH   2   3
HETATM    3  C   UNL     1      -8.870  15.755  67.091  1.00  0.00    -0.203 C  
HETATM    4  O   UNL     1      -8.766  14.365  66.611  1.00  0.00    -0.203 OA 
HETATM    5  C   UNL     1      -8.436  13.321  67.402  1.00  0.00    -0.206 C  
HETATM    6  C   UNL     1      -8.450  11.972  66.656  1.00  0.00    -0.117 C  
HETATM    7  O   UNL     1      -8.105  13.439  68.567  1.00  0.00    -0.150 OA 
HETATM    8  C   UNL     1      -9.049  12.116  65.250  1.00  0.00     0.345 C  
HETATM    9  C   UNL     1      -9.054  10.709  67.440  1.00  0.00    -0.139 C  
HETATM   10  C   UNL     1     -13.513  15.837  70.625  1.00  0.00     0.408 C  
HETATM   11  C   UNL     1      -8.917  10.800  69.028  1.00  0.00    -0.141 C  
HETATM   12  C   UNL     1     -12.425  13.611  67.771  1.00  0.00     0.224 C  
HETATM   13  C   UNL     1      -9.757   9.733  69.916  1.00  0.00    -0.238 C  
HETATM   14  C   UNL     1      -7.386  10.812  69.246  1.00  0.00    -0.129 C  
HETATM   15  C   UNL     1     -12.462  14.902  68.597  1.00  0.00     0.215 C  
HETATM   16  C   UNL     1     -11.073  15.659  68.607  1.00  0.00    -0.317 C  
HETATM   17  C   UNL     1     -11.271   9.935  70.544  1.00  0.00    -0.330 C  
HETATM   18  C   UNL     1     -12.152  11.133  70.080  1.00  0.00    -0.437 C  
HETATM   19  C   UNL     1     -10.400  16.097  67.255  1.00  0.00    -0.287 C  
HETATM   20  C   UNL     1     -11.507   9.681  72.039  1.00  0.00     0.129 C  
HETATM   21  H   UNL     1     -12.006  15.742  66.216  1.00  0.00     0.000 HD 
HETATM   22  O   UNL     1     -11.982   8.756  69.992  1.00  0.00    -0.359 OA 
HETATM   23  C   UNL     1     -12.353  12.372  71.013  1.00  0.00    -0.309 C  
HETATM   24  H   UNL     1      -9.318  15.404  69.434  1.00  0.00     0.000 HD 
HETATM   25  N   UNL     1     -12.864  14.681  70.012  1.00  0.00    -0.159 NA 
HETATM   26  C   UNL     1     -11.073  13.043  71.493  1.00  0.00     4.249 C  
HETATM   27  H   UNL     1     -12.853   8.873  70.353  1.00  0.00     0.000 HD 
HETATM   28  C   UNL     1     -10.613  17.614  67.078  1.00  0.00    -0.254 C  
HETATM   29  C   UNL     1     -13.405  13.404  70.484  1.00  0.00     0.522 C  
HETATM   30  O   UNL     1     -11.084  15.536  66.118  1.00  0.00    -0.286 OA 
HETATM   31  O   UNL     1     -10.153  14.950  69.428  1.00  0.00    -0.214 OA 
BRANCH   9  32
HETATM   32  O   UNL     1      -8.281   9.603  66.880  1.00  0.00    -0.112 OA 
BRANCH  32  33
HETATM   33  C   UNL     1      -8.851   8.791  65.858  1.00  0.00    -0.186 C  
HETATM   34  O   UNL     1      -8.247   4.845  67.294  1.00  0.00    -0.106 OA 
HETATM   35  C   UNL     1      -8.576   5.975  66.485  1.00  0.00    -0.124 C  
HETATM   36  H   UNL     1      -9.014   4.363  67.581  1.00  0.00     0.000 HD 
HETATM   37  C   UNL     1      -7.322   6.761  66.018  1.00  0.00    -0.075 C  
HETATM   38  O   UNL     1      -9.945   8.007  66.351  1.00  0.00    -0.229 OA 
HETATM   39  C   UNL     1     -10.853   6.182  67.563  1.00  0.00    -0.422 C  
HETATM   40  C   UNL     1      -9.568   6.923  67.193  1.00  0.00    -0.147 C  
HETATM   41  C   UNL     1      -7.842   7.907  65.124  1.00  0.00    -0.114 C  
HETATM   42  C   UNL     1      -6.368   5.910  65.171  1.00  0.00    -0.038 C  
BRANCH  37  43
HETATM   43  O   UNL     1      -6.613   7.388  67.101  1.00  0.00    -0.057 OA 
HETATM   44  C   UNL     1      -5.347   7.965  66.841  1.00  0.00    -0.032 C  
ENDBRANCH  37  43
ENDBRANCH  32  33
ENDBRANCH   9  32
BRANCH  13  45
HETATM   45  O   UNL     1      -9.005   8.733  70.658  1.00  0.00    -0.154 OA 
BRANCH  45  46
HETATM   46  C   UNL     1      -9.366   7.345  70.594  1.00  0.00    -0.160 C  
HETATM   47  C   UNL     1     -12.195   5.607  72.099  1.00  0.00     0.232 C  
HETATM   48  C   UNL     1      -8.517   4.898  71.012  1.00  0.00    -0.116 C  
HETATM   49  C   UNL     1      -8.190   6.389  70.789  1.00  0.00    -0.125 C  
HETATM   50  C   UNL     1      -9.813   4.781  71.842  1.00  0.00    -0.236 C  
HETATM   51  H   UNL     1      -6.578   5.957  69.797  1.00  0.00     0.000 HD 
HETATM   52  O   UNL     1      -7.309   6.551  69.676  1.00  0.00    -0.079 OA 
HETATM   53  O   UNL     1     -10.410   7.079  71.528  1.00  0.00    -0.203 OA 
HETATM   54  C   UNL     1     -10.890   5.743  71.342  1.00  0.00    -0.251 C  
BRANCH  48  55
HETATM   55  N   UNL     1      -7.373   4.196  71.692  1.00  0.00    -0.057 NA 
HETATM   56  C   UNL     1      -6.689   5.028  72.679  1.00  0.00    -0.065 C  
HETATM   57  C   UNL     1      -7.680   2.889  72.263  1.00  0.00    -0.054 C  
ENDBRANCH  48  55
ENDBRANCH  45  46
ENDBRANCH  13  45
ENDBRANCH   2   3
TORSDOF 7
ENDMDL
MODEL       33
REMARK 921   NORMALIZED FREE ENERGY PREDICTED BY IDOCK:    0.03 KCAL/MOL
REMARK 922        TOTAL FREE ENERGY PREDICTED BY IDOCK:   -2.54 KCAL/MOL
REMARK 923 INTER-LIGAND FREE ENERGY PREDICTED BY IDOCK:   -4.49 KCAL/MOL
REMARK 924 INTRA-LIGAND FREE ENERGY PREDICTED BY IDOCK:    1.95 KCAL/MOL
REMARK 927      BINDING AFFINITY PREDICTED BY RF-SCORE:    0.00 PKD
ROOT
HETATM    1  C   UNL     1     -12.855   4.959  72.896  1.00  0.00     1.044 C  
HETATM    2  C   UNL     1     -11.610   5.673  72.388  1.00  0.00    -0.281 C  
ENDROOT
BRANCH   2   3
HETATM    3  C   UNL     1     -10.975   5.024  71.130  1.00  0.00     0.225 C  
HETATM    4  O   UNL     1     -10.827   5.849  69.917  1.00  0.00    -0.314 OA 
HETATM    5  C   UNL     1     -10.587   7.179  69.938  1.00  0.00    -0.230 C  
HETATM    6  C   UNL     1     -10.424   7.784  68.530  1.00  0.00    -0.202 C  
HETATM    7  O   UNL     1     -10.560   7.840  70.960  1.00  0.00    -0.211 OA 
HETATM    8  C   UNL     1     -10.356   6.691  67.454  1.00  0.00    -0.279 C  
HETATM    9  C   UNL     1      -9.277   8.890  68.338  1.00  0.00    -0.140 C  
HETATM   10  C   UNL     1      -5.689   4.918  73.599  1.00  0.00    -0.018 C  
HETATM   11  C   UNL     1      -8.936   9.714  69.661  1.00  0.00    -0.215 C  
HETATM   12  C   UNL     1      -6.932   5.520  70.080  1.00  0.00    -0.064 C  
HETATM   13  C   UNL     1      -7.598  10.631  69.650  1.00  0.00    -0.092 C  
HETATM   14  C   UNL     1     -10.262  10.449  69.966  1.00  0.00    -0.134 C  
HETATM   15  C   UNL     1      -7.006   4.978  71.512  1.00  0.00    -0.053 C  
HETATM   16  C   UNL     1      -8.478   4.991  72.092  1.00  0.00    -0.125 C  
HETATM   17  C   UNL     1      -6.086  10.191  70.146  1.00  0.00    -0.077 C  
HETATM   18  C   UNL     1      -5.767   8.693  70.431  1.00  0.00    -0.027 C  
HETATM   19  C   UNL     1      -9.631   4.228  71.341  1.00  0.00    -0.169 C  
HETATM   20  C   UNL     1      -5.337  11.070  71.156  1.00  0.00    -0.067 C  
HETATM   21  H   UNL     1      -8.393   3.286  70.173  1.00  0.00     0.000 HD 
HETATM   22  O   UNL     1      -5.278  10.485  68.937  1.00  0.00    -0.042 OA 
HETATM   23  C   UNL     1      -5.645   8.179  71.904  1.00  0.00    -0.036 C  
HETATM   24  H   UNL     1      -9.745   6.335  72.736  1.00  0.00     0.000 HD 
HETATM   25  N   UNL     1      -6.141   5.723  72.467  1.00  0.00    -0.039 NA 
HETATM   26  C   UNL     1      -6.848   8.457  72.794  1.00  0.00    -0.099 C  
HETATM   27  H   UNL     1      -4.408  10.231  69.223  1.00  0.00     0.000 HD 
HETATM   28  C   UNL     1      -9.921   2.919  72.102  1.00  0.00    -0.235 C  
HETATM   29  C   UNL     1      -5.144   6.700  72.024  1.00  0.00    -0.027 C  
HETATM   30  O   UNL     1      -9.203   3.766  70.045  1.00  0.00    -0.116 OA 
HETATM   31  O   UNL     1      -8.860   6.328  72.388  1.00  0.00    -0.132 OA 
BRANCH   9  32
HETATM   32  O   UNL     1      -9.840   9.736  67.288  1.00  0.00    -0.165 OA 
BRANCH  32  33
HETATM   33  C   UNL     1     -10.160   9.168  66.021  1.00  0.00    -0.134 C  
HETATM   34  O   UNL     1      -6.409   9.022  64.043  1.00  0.00    -0.081 OA 
HETATM   35  C   UNL     1      -7.803   8.954  64.348  1.00  0.00    -0.128 C  
HETATM   36  H   UNL     1      -6.022   8.165  63.907  1.00  0.00     0.000 HD 
HETATM   37  C   UNL     1      -8.435  10.354  64.571  1.00  0.00    -0.169 C  
HETATM   38  O   UNL     1      -9.481   7.923  65.812  1.00  0.00    -0.012 OA 
HETATM   39  C   UNL     1      -7.560   6.628  65.307  1.00  0.00    -0.088 C  
HETATM   40  C   UNL     1      -8.085   8.041  65.561  1.00  0.00    -0.128 C  
HETATM   41  C   UNL     1      -9.936  10.110  64.838  1.00  0.00    -0.358 C  
HETATM   42  C   UNL     1      -8.325  11.259  63.338  1.00  0.00     0.402 C  
BRANCH  37  43
HETATM   43  O   UNL     1      -7.925  11.025  65.737  1.00  0.00    -0.121 OA 
HETATM   44  C   UNL     1      -6.524  11.159  65.885  1.00  0.00     0.077 C  
ENDBRANCH  37  43
ENDBRANCH  32  33
ENDBRANCH   9  32
BRANCH  13  45
HETATM   45  O   UNL     1      -7.769  12.076  69.693  1.00  0.00     0.486 OA 
BRANCH  45  46
HETATM   46  C   UNL     1      -7.660  12.865  68.499  1.00  0.00    -0.120 C  
HETATM   47  C   UNL     1      -5.170  15.365  67.584  1.00  0.00    -0.033 C  
HETATM   48  C   UNL     1      -8.926  14.542  66.928  1.00  0.00    -0.246 C  
HETATM   49  C   UNL     1      -8.985  13.464  68.029  1.00  0.00    -0.190 C  
HETATM   50  C   UNL     1      -7.664  15.407  67.131  1.00  0.00    -0.246 C  
HETATM   51  H   UNL     1     -10.658  12.756  67.341  1.00  0.00     0.000 HD 
HETATM   52  O   UNL     1      -9.834  12.384  67.634  1.00  0.00    -0.191 OA 
HETATM   53  O   UNL     1      -6.671  13.875  68.683  1.00  0.00    -0.085 OA 
HETATM   54  C   UNL     1      -6.438  14.548  67.441  1.00  0.00     0.104 C  
BRANCH  48  55
HETATM   55  N   UNL     1     -10.170  15.388  66.940  1.00  0.00    -0.268 NA 
HETATM   56  C   UNL     1     -10.299  16.209  68.142  1.00  0.00    -0.269 C  
HETATM   57  C   UNL     1     -10.396  16.201  65.751  1.00  0.00    -0.378 C  
ENDBRANCH  48  55
ENDBRANCH  45  46
ENDBRANCH  13  45
ENDBRANCH   2   3
TORSDOF 7
ENDMDL
MODEL       34
REMARK 921   NORMALIZED FREE ENERGY PREDICTED BY IDOCK:    0.06 KCAL/MOL
REMARK 922        TOTAL FREE ENERGY PREDICTED BY IDOCK:   -2.49 KCAL/MOL
REMARK 923 INTER-LIGAND FREE ENERGY PREDICTED BY IDOCK:   -2.27 KCAL/MOL
REMARK 924 INTRA-LIGAND FREE ENERGY PREDICTED BY IDOCK:   -0.23 KCAL/MOL
REMARK 927      BINDING AFFINITY PREDICTED BY RF-SCORE:    0.00 PKD
ROOT
HETATM    1  C   UNL     1      -6.971  16.845  68.361  1.00  0.00    -0.173 C  
HETATM    2  C   UNL     1      -7.772  15.571  68.588  1.00  0.00    -0.144 C  
ENDROOT
BRANCH   2   3
HETATM    3  C   UNL     1      -8.676  15.169  67.393  1.00  0.00    -0.190 C  
HETATM    4  O   UNL     1      -8.629  13.773  66.919  1.00  0.00    -0.196 OA 
HETATM    5  C   UNL     1      -8.411  12.713  67.728  1.00  0.00    -0.172 C  
HETATM    6  C   UNL     1      -8.463  11.365  66.982  1.00  0.00    -0.159 C  
HETATM    7  O   UNL     1      -8.142  12.815  68.911  1.00  0.00     0.038 OA 
HETATM    8  C   UNL     1      -8.969  11.540  65.543  1.00  0.00    -0.037 C  
HETATM    9  C   UNL     1      -9.189  10.144  67.730  1.00  0.00    -0.137 C  
HETATM   10  C   UNL     1     -13.505  15.548  70.647  1.00  0.00    -0.046 C  
HETATM   11  C   UNL     1      -9.140  10.233  69.323  1.00  0.00    -0.206 C  
HETATM   12  C   UNL     1     -12.389  13.248  67.862  1.00  0.00     0.067 C  
HETATM   13  C   UNL     1     -10.095   9.222  70.159  1.00  0.00    -0.213 C  
HETATM   14  C   UNL     1      -7.627  10.151  69.631  1.00  0.00    -0.158 C  
HETATM   15  C   UNL     1     -12.396  14.543  68.684  1.00  0.00    -0.004 C  
HETATM   16  C   UNL     1     -10.966  15.213  68.776  1.00  0.00    -0.255 C  
HETATM   17  C   UNL     1     -11.628   9.518  70.698  1.00  0.00    -0.283 C  
HETATM   18  C   UNL     1     -12.405  10.766  70.182  1.00  0.00    -0.401 C  
HETATM   19  C   UNL     1     -10.189  15.604  67.466  1.00  0.00    -0.263 C  
HETATM   20  C   UNL     1     -11.967   9.285  72.175  1.00  0.00    -0.316 C  
HETATM   21  H   UNL     1     -11.750  15.345  66.335  1.00  0.00     0.000 HD 
HETATM   22  O   UNL     1     -12.376   8.384  70.104  1.00  0.00    -0.094 OA 
HETATM   23  C   UNL     1     -12.584  12.019  71.103  1.00  0.00    -0.372 C  
HETATM   24  H   UNL     1      -9.281  14.854  69.705  1.00  0.00     0.000 HD 
HETATM   25  N   UNL     1     -12.893  14.351  70.073  1.00  0.00    -0.140 NA 
HETATM   26  C   UNL     1     -11.296  12.612  71.656  1.00  0.00     3.800 C  
HETATM   27  H   UNL     1     -13.258   8.555  70.414  1.00  0.00     0.000 HD 
HETATM   28  C   UNL     1     -10.297  17.130  67.277  1.00  0.00    -0.320 C  
HETATM   29  C   UNL     1     -13.538  13.112  70.513  1.00  0.00     1.210 C  
HETATM   30  O   UNL     1     -10.838  15.082  66.290  1.00  0.00    -0.321 OA 
HETATM   31  O   UNL     1     -10.140  14.451  69.650  1.00  0.00     0.058 OA 
BRANCH   9  32
HETATM   32  O   UNL     1      -8.454   8.991  67.216  1.00  0.00    -0.114 OA 
BRANCH  32  33
HETATM   33  C   UNL     1      -7.030   9.018  67.189  1.00  0.00    -0.078 C  
HETATM   34  O   UNL     1      -6.078   6.776  63.714  1.00  0.00    -0.034 OA 
HETATM   35  C   UNL     1      -6.001   7.518  64.932  1.00  0.00    -0.038 C  
HETATM   36  H   UNL     1      -5.726   7.253  62.971  1.00  0.00     0.000 HD 
HETATM   37  C   UNL     1      -6.577   6.740  66.144  1.00  0.00    -0.051 C  
HETATM   38  O   UNL     1      -6.534   9.659  66.007  1.00  0.00    -0.073 OA 
HETATM   39  C   UNL     1      -6.046   9.718  63.687  1.00  0.00    -0.114 C  
HETATM   40  C   UNL     1      -6.681   8.900  64.812  1.00  0.00    -0.069 C  
HETATM   41  C   UNL     1      -6.374   7.649  67.375  1.00  0.00    -0.054 C  
HETATM   42  C   UNL     1      -5.836   5.424  66.413  1.00  0.00    -0.018 C  
BRANCH  37  43
HETATM   43  O   UNL     1      -7.994   6.510  66.045  1.00  0.00    -0.103 OA 
HETATM   44  C   UNL     1      -8.448   5.262  65.556  1.00  0.00    -0.141 C  
ENDBRANCH  37  43
ENDBRANCH  32  33
ENDBRANCH   9  32
BRANCH  13  45
HETATM   45  O   UNL     1      -9.450   8.180  70.944  1.00  0.00    -0.158 OA 
BRANCH  45  46
HETATM   46  C   UNL     1      -9.946   6.833  70.925  1.00  0.00    -0.186 C  
HETATM   47  C   UNL     1     -10.116   4.379  73.616  1.00  0.00    -0.201 C  
HETATM   48  C   UNL     1      -9.747   4.503  69.735  1.00  0.00    -0.215 C  
HETATM   49  C   UNL     1      -9.500   6.026  69.707  1.00  0.00    -0.149 C  
HETATM   50  C   UNL     1      -9.556   3.984  71.175  1.00  0.00    -0.242 C  
HETATM   51  H   UNL     1      -9.823   6.112  67.794  1.00  0.00     0.000 HD 
HETATM   52  O   UNL     1     -10.101   6.614  68.552  1.00  0.00    -0.148 OA 
HETATM   53  O   UNL     1      -9.593   6.176  72.140  1.00  0.00    -0.152 OA 
HETATM   54  C   UNL     1     -10.234   4.898  72.197  1.00  0.00    -0.196 C  
BRANCH  48  55
HETATM   55  N   UNL     1      -8.829   3.795  68.777  1.00  0.00    -0.101 NA 
HETATM   56  C   UNL     1      -7.594   3.325  69.401  1.00  0.00    -0.047 C  
HETATM   57  C   UNL     1      -9.433   2.724  67.993  1.00  0.00    -0.155 C  
ENDBRANCH  48  55
ENDBRANCH  45  46
ENDBRANCH  13  45
ENDBRANCH   2   3
TORSDOF 7
ENDMDL
MODEL       35
REMARK 921   NORMALIZED FREE ENERGY PREDICTED BY IDOCK:    0.46 KCAL/MOL
REMARK 922        TOTAL FREE ENERGY PREDICTED BY IDOCK:   -1.93 KCAL/MOL
REMARK 923 INTER-LIGAND FREE ENERGY PREDICTED BY IDOCK:   -1.76 KCAL/MOL
REMARK 924 INTRA-LIGAND FREE ENERGY PREDICTED BY IDOCK:   -0.17 KCAL/MOL
REMARK 927      BINDING AFFINITY PREDICTED BY RF-SCORE:    0.00 PKD
ROOT
HETATM    1  C   UNL     1     -13.587  13.119  71.255  1.00  0.00     0.156 C  
HETATM    2  C   UNL     1     -12.815  12.877  69.966  1.00  0.00     0.420 C  
ENDROOT
BRANCH   2   3
HETATM    3  C   UNL     1     -11.422  13.559  69.924  1.00  0.00    -0.124 C  
HETATM    4  O   UNL     1     -10.231  12.706  69.756  1.00  0.00     0.867 OA 
HETATM    5  C   UNL     1     -10.222  11.562  69.037  1.00  0.00    -0.088 C  
HETATM    6  C   UNL     1      -8.834  10.895  68.983  1.00  0.00    -0.105 C  
HETATM    7  O   UNL     1     -11.219  11.078  68.533  1.00  0.00    -0.224 OA 
HETATM    8  C   UNL     1      -7.750  11.807  69.575  1.00  0.00     0.507 C  
HETATM    9  C   UNL     1      -8.383  10.258  67.580  1.00  0.00    -0.114 C  
HETATM   10  C   UNL     1     -12.465  15.834  64.652  1.00  0.00     0.482 C  
HETATM   11  C   UNL     1      -9.596   9.770  66.665  1.00  0.00    -0.239 C  
HETATM   12  C   UNL     1      -9.393  14.422  66.341  1.00  0.00    -0.284 C  
HETATM   13  C   UNL     1      -9.267   9.397  65.121  1.00  0.00    -0.225 C  
HETATM   14  C   UNL     1     -10.245   8.651  67.512  1.00  0.00    -0.308 C  
HETATM   15  C   UNL     1     -10.784  15.064  66.287  1.00  0.00    -0.322 C  
HETATM   16  C   UNL     1     -11.718  14.594  67.474  1.00  0.00    -0.379 C  
HETATM   17  C   UNL     1      -9.353  10.404  63.814  1.00  0.00    -0.288 C  
HETATM   18  C   UNL     1      -9.512  11.939  64.024  1.00  0.00     0.024 C  
HETATM   19  C   UNL     1     -11.267  14.802  68.967  1.00  0.00    -0.270 C  
HETATM   20  C   UNL     1     -10.161   9.974  62.583  1.00  0.00     0.785 C  
HETATM   21  H   UNL     1      -9.800  15.980  68.472  1.00  0.00     0.000 HD 
HETATM   22  O   UNL     1      -7.986  10.279  63.251  1.00  0.00    -0.153 OA 
HETATM   23  C   UNL     1     -10.894  12.630  63.774  1.00  0.00    -0.466 C  
HETATM   24  H   UNL     1     -12.694  12.971  67.962  1.00  0.00     0.000 HD 
HETATM   25  N   UNL     1     -11.505  14.794  65.014  1.00  0.00    -0.375 NA 
HETATM   26  C   UNL     1     -12.066  12.046  64.550  1.00  0.00    -0.340 C  
HETATM   27  H   UNL     1      -8.036  10.858  62.500  1.00  0.00     0.000 HD 
HETATM   28  C   UNL     1     -12.044  16.000  69.546  1.00  0.00    -0.109 C  
HETATM   29  C   UNL     1     -10.847  14.193  63.852  1.00  0.00     0.740 C  
HETATM   30  O   UNL     1      -9.894  15.231  69.049  1.00  0.00    -0.208 OA 
HETATM   31  O   UNL     1     -12.133  13.253  67.249  1.00  0.00    -0.357 OA 
BRANCH   9  32
HETATM   32  O   UNL     1      -7.531   9.151  68.007  1.00  0.00    -0.083 OA 
BRANCH  32  33
HETATM   33  C   UNL     1      -8.115   8.011  68.631  1.00  0.00    -0.125 C  
HETATM   34  O   UNL     1      -5.132   6.765  71.378  1.00  0.00    -0.025 OA 
HETATM   35  C   UNL     1      -6.309   6.843  70.574  1.00  0.00    -0.042 C  
HETATM   36  H   UNL     1      -5.310   6.893  72.303  1.00  0.00     0.000 HD 
HETATM   37  C   UNL     1      -6.018   6.634  69.064  1.00  0.00    -0.022 C  
HETATM   38  O   UNL     1      -8.280   8.205  70.041  1.00  0.00    -0.115 OA 
HETATM   39  C   UNL     1      -7.459   8.333  72.262  1.00  0.00    -0.149 C  
HETATM   40  C   UNL     1      -7.071   8.168  70.793  1.00  0.00    -0.049 C  
HETATM   41  C   UNL     1      -7.384   6.699  68.349  1.00  0.00    -0.087 C  
HETATM   42  C   UNL     1      -5.400   5.263  68.762  1.00  0.00    -0.004 C  
BRANCH  37  43
HETATM   43  O   UNL     1      -5.217   7.685  68.493  1.00  0.00    -0.024 OA 
HETATM   44  C   UNL     1      -5.186   7.828  67.086  1.00  0.00    -0.031 C  
ENDBRANCH  37  43
ENDBRANCH  32  33
ENDBRANCH   9  32
BRANCH  13  45
HETATM   45  O   UNL     1      -9.387   8.003  64.723  1.00  0.00     0.703 OA 
BRANCH  45  46
HETATM   46  C   UNL     1      -8.235   7.146  64.689  1.00  0.00    -0.025 C  
HETATM   47  C   UNL     1      -5.296   7.288  62.536  1.00  0.00    -0.037 C  
HETATM   48  C   UNL     1      -7.433   4.659  64.469  1.00  0.00    -0.072 C  
HETATM   49  C   UNL     1      -8.567   5.658  64.775  1.00  0.00    -0.061 C  
HETATM   50  C   UNL     1      -6.538   5.233  63.351  1.00  0.00    -0.026 C  
HETATM   51  H   UNL     1      -9.329   4.485  66.122  1.00  0.00     0.000 HD 
HETATM   52  O   UNL     1      -9.123   5.410  66.068  1.00  0.00    -0.147 OA 
HETATM   53  O   UNL     1      -7.458   7.438  63.529  1.00  0.00    -0.089 OA 
HETATM   54  C   UNL     1      -6.226   6.711  63.585  1.00  0.00    -0.038 C  
BRANCH  48  55
HETATM   55  N   UNL     1      -7.992   3.318  64.079  1.00  0.00    -0.081 NA 
HETATM   56  C   UNL     1      -7.799   2.999  62.667  1.00  0.00    -0.067 C  
HETATM   57  C   UNL     1      -7.577   2.191  64.908  1.00  0.00    -0.068 C  
ENDBRANCH  48  55
ENDBRANCH  45  46
ENDBRANCH  13  45
ENDBRANCH   2   3
TORSDOF 7
ENDMDL
MODEL       36
REMARK 921   NORMALIZED FREE ENERGY PREDICTED BY IDOCK:    0.66 KCAL/MOL
REMARK 922        TOTAL FREE ENERGY PREDICTED BY IDOCK:   -1.65 KCAL/MOL
REMARK 923 INTER-LIGAND FREE ENERGY PREDICTED BY IDOCK:   -6.68 KCAL/MOL
REMARK 924 INTRA-LIGAND FREE ENERGY PREDICTED BY IDOCK:    5.02 KCAL/MOL
REMARK 927      BINDING AFFINITY PREDICTED BY RF-SCORE:    0.00 PKD
ROOT
HETATM    1  C   UNL     1      -8.146   7.550  63.524  1.00  0.00    -0.023 C  
HETATM    2  C   UNL     1      -7.994   6.827  64.855  1.00  0.00    -0.124 C  
ENDROOT
BRANCH   2   3
HETATM    3  C   UNL     1      -6.877   7.402  65.765  1.00  0.00    -0.056 C  
HETATM    4  O   UNL     1      -6.822   8.862  65.966  1.00  0.00    -0.074 OA 
HETATM    5  C   UNL     1      -7.913   9.658  65.992  1.00  0.00    -0.108 C  
HETATM    6  C   UNL     1      -7.575  11.136  66.269  1.00  0.00    -0.075 C  
HETATM    7  O   UNL     1      -9.040   9.260  65.761  1.00  0.00    -0.178 OA 
HETATM    8  C   UNL     1      -6.102  11.308  66.668  1.00  0.00    -0.143 C  
HETATM    9  C   UNL     1      -8.560  11.940  67.248  1.00  0.00    -0.170 C  
HETATM   10  C   UNL     1      -9.406   5.264  70.570  1.00  0.00    -0.157 C  
HETATM   11  C   UNL     1     -10.062  11.397  67.253  1.00  0.00    -0.218 C  
HETATM   12  C   UNL     1      -7.502   8.435  69.795  1.00  0.00    -0.072 C  
HETATM   13  C   UNL     1     -11.051  11.938  68.419  1.00  0.00    -0.244 C  
HETATM   14  C   UNL     1     -10.526  11.641  65.798  1.00  0.00    -0.308 C  
HETATM   15  C   UNL     1      -7.923   6.976  69.589  1.00  0.00    -0.124 C  
HETATM   16  C   UNL     1      -7.962   6.563  68.063  1.00  0.00    -0.109 C  
HETATM   17  C   UNL     1     -11.332  11.239  69.889  1.00  0.00    -0.249 C  
HETATM   18  C   UNL     1     -10.413  10.084  70.389  1.00  0.00    -0.304 C  
HETATM   19  C   UNL     1      -6.677   6.713  67.169  1.00  0.00    -0.063 C  
HETATM   20  C   UNL     1     -12.775  10.966  70.331  1.00  0.00    -0.326 C  
HETATM   21  H   UNL     1      -5.518   7.023  68.699  1.00  0.00     0.000 HD 
HETATM   22  O   UNL     1     -11.011  12.352  70.815  1.00  0.00     1.127 OA 
HETATM   23  C   UNL     1     -10.923   8.605  70.364  1.00  0.00    -0.256 C  
HETATM   24  H   UNL     1      -9.114   6.915  66.521  1.00  0.00     0.000 HD 
HETATM   25  N   UNL     1      -9.254   6.662  70.175  1.00  0.00    -0.155 NA 
HETATM   26  C   UNL     1     -11.410   8.104  69.012  1.00  0.00     0.560 C  
HETATM   27  H   UNL     1     -11.172  11.950  71.660  1.00  0.00     0.000 HD 
HETATM   28  C   UNL     1      -6.058   5.315  66.974  1.00  0.00    -0.030 C  
HETATM   29  C   UNL     1      -9.959   7.588  71.064  1.00  0.00    -0.186 C  
HETATM   30  O   UNL     1      -5.638   7.439  67.854  1.00  0.00    -0.024 OA 
HETATM   31  O   UNL     1      -9.091   7.163  67.438  1.00  0.00    -0.120 OA 
BRANCH   9  32
HETATM   32  O   UNL     1      -8.466  13.302  66.726  1.00  0.00    -0.115 OA 
BRANCH  32  33
HETATM   33  C   UNL     1      -8.889  14.396  67.533  1.00  0.00    -0.193 C  
HETATM   34  O   UNL     1      -5.315  16.602  68.137  1.00  0.00    -0.109 OA 
HETATM   35  C   UNL     1      -6.661  16.127  68.197  1.00  0.00    -0.124 C  
HETATM   36  H   UNL     1      -5.242  17.442  67.699  1.00  0.00     0.000 HD 
HETATM   37  C   UNL     1      -6.779  14.755  68.912  1.00  0.00    -0.098 C  
HETATM   38  O   UNL     1      -8.675  15.653  66.877  1.00  0.00    -0.211 OA 
HETATM   39  C   UNL     1      -7.298  17.432  66.128  1.00  0.00    -0.331 C  
HETATM   40  C   UNL     1      -7.312  16.058  66.799  1.00  0.00    -0.151 C  
HETATM   41  C   UNL     1      -8.283  14.411  68.936  1.00  0.00    -0.082 C  
HETATM   42  C   UNL     1      -6.290  14.797  70.365  1.00  0.00    -0.135 C  
BRANCH  37  43
HETATM   43  O   UNL     1      -6.135  13.686  68.194  1.00  0.00    -0.092 OA 
HETATM   44  C   UNL     1      -5.331  12.771  68.914  1.00  0.00    -0.067 C  
ENDBRANCH  37  43
ENDBRANCH  32  33
ENDBRANCH   9  32
BRANCH  13  45
HETATM   45  O   UNL     1     -12.156  12.797  68.022  1.00  0.00    -0.302 OA 
BRANCH  45  46
HETATM   46  C   UNL     1     -12.323  14.097  68.608  1.00  0.00    -0.018 C  
HETATM   47  C   UNL     1     -10.586  17.218  67.877  1.00  0.00    -0.384 C  
HETATM   48  C   UNL     1     -12.345  15.433  70.865  1.00  0.00    -0.398 C  
HETATM   49  C   UNL     1     -12.441  14.080  70.131  1.00  0.00    -0.319 C  
HETATM   50  C   UNL     1     -11.331  16.337  70.134  1.00  0.00    -0.292 C  
HETATM   51  H   UNL     1     -13.732  13.398  71.412  1.00  0.00     0.000 HD 
HETATM   52  O   UNL     1     -13.658  13.409  70.465  1.00  0.00     0.465 OA 
HETATM   53  O   UNL     1     -11.267  14.954  68.179  1.00  0.00    -0.274 OA 
HETATM   54  C   UNL     1     -11.528  16.291  68.619  1.00  0.00    -0.288 C  
BRANCH  48  55
HETATM   55  N   UNL     1     -11.953  15.233  72.304  1.00  0.00    -0.388 NA 
HETATM   56  C   UNL     1     -11.992  16.464  73.090  1.00  0.00    -0.439 C  
HETATM   57  C   UNL     1     -12.654  14.166  73.011  1.00  0.00    -0.123 C  
ENDBRANCH  48  55
ENDBRANCH  45  46
ENDBRANCH  13  45
ENDBRANCH   2   3
TORSDOF 7
ENDMDL
MODEL       37
REMARK 921   NORMALIZED FREE ENERGY PREDICTED BY IDOCK:    1.00 KCAL/MOL
REMARK 922        TOTAL FREE ENERGY PREDICTED BY IDOCK:   -1.18 KCAL/MOL
REMARK 923 INTER-LIGAND FREE ENERGY PREDICTED BY IDOCK:   -4.84 KCAL/MOL
REMARK 924 INTRA-LIGAND FREE ENERGY PREDICTED BY IDOCK:    3.66 KCAL/MOL
REMARK 927      BINDING AFFINITY PREDICTED BY RF-SCORE:    0.00 PKD
ROOT
HETATM    1  C   UNL     1      -6.377   4.066  70.476  1.00  0.00    -0.026 C  
HETATM    2  C   UNL     1      -6.100   5.497  70.039  1.00  0.00    -0.022 C  
ENDROOT
BRANCH   2   3
HETATM    3  C   UNL     1      -5.817   6.475  71.210  1.00  0.00    -0.028 C  
HETATM    4  O   UNL     1      -5.754   7.919  70.916  1.00  0.00    -0.033 OA 
HETATM    5  C   UNL     1      -6.494   8.523  69.961  1.00  0.00    -0.038 C  
HETATM    6  C   UNL     1      -6.271  10.046  69.899  1.00  0.00    -0.060 C  
HETATM    7  O   UNL     1      -7.218   7.919  69.190  1.00  0.00    -0.077 OA 
HETATM    8  C   UNL     1      -5.427  10.537  71.084  1.00  0.00    -0.071 C  
HETATM    9  C   UNL     1      -7.564  10.966  69.661  1.00  0.00     0.023 C  
HETATM   10  C   UNL     1     -11.105   5.583  73.510  1.00  0.00    -0.167 C  
HETATM   11  C   UNL     1      -8.737  10.246  68.852  1.00  0.00    -0.152 C  
HETATM   12  C   UNL     1      -8.844   8.597  73.217  1.00  0.00     0.125 C  
HETATM   13  C   UNL     1     -10.186  10.975  68.824  1.00  0.00    -0.198 C  
HETATM   14  C   UNL     1      -8.090   9.964  67.476  1.00  0.00    -0.110 C  
HETATM   15  C   UNL     1      -9.174   7.101  73.267  1.00  0.00    -0.157 C  
HETATM   16  C   UNL     1      -8.234   6.238  72.333  1.00  0.00    -0.107 C  
HETATM   17  C   UNL     1     -11.444  10.729  69.865  1.00  0.00    -0.321 C  
HETATM   18  C   UNL     1     -11.218   9.924  71.180  1.00  0.00    -0.404 C  
HETATM   19  C   UNL     1      -6.673   6.285  72.520  1.00  0.00    -0.069 C  
HETATM   20  C   UNL     1     -12.835  10.405  69.305  1.00  0.00     1.112 C  
HETATM   21  H   UNL     1      -6.797   7.209  74.227  1.00  0.00     0.000 HD 
HETATM   22  O   UNL     1     -11.702  12.106  70.351  1.00  0.00    -0.519 OA 
HETATM   23  C   UNL     1     -11.736   8.452  71.302  1.00  0.00    -0.325 C  
HETATM   24  H   UNL     1      -8.026   5.935  70.411  1.00  0.00     0.000 HD 
HETATM   25  N   UNL     1     -10.582   6.799  72.892  1.00  0.00    -0.233 NA 
HETATM   26  C   UNL     1     -11.253   7.498  70.219  1.00  0.00    -0.253 C  
HETATM   27  H   UNL     1     -12.426  11.964  70.950  1.00  0.00     0.000 HD 
HETATM   28  C   UNL     1      -6.234   4.996  73.241  1.00  0.00    -0.039 C  
HETATM   29  C   UNL     1     -11.595   7.845  72.739  1.00  0.00    -0.329 C  
HETATM   30  O   UNL     1      -6.281   7.324  73.437  1.00  0.00    -0.060 OA 
HETATM   31  O   UNL     1      -8.591   6.453  70.973  1.00  0.00    -0.129 OA 
BRANCH   9  32
HETATM   32  O   UNL     1      -7.003  12.101  68.931  1.00  0.00    -0.097 OA 
BRANCH  32  33
HETATM   33  C   UNL     1      -5.639  12.459  69.126  1.00  0.00    -0.071 C  
HETATM   34  O   UNL     1      -5.882  16.352  70.795  1.00  0.00     0.010 OA 
HETATM   35  C   UNL     1      -5.408  15.129  70.231  1.00  0.00    -0.122 C  
HETATM   36  H   UNL     1      -5.647  16.449  71.711  1.00  0.00     0.000 HD 
HETATM   37  C   UNL     1      -5.794  14.971  68.737  1.00  0.00    -0.085 C  
HETATM   38  O   UNL     1      -5.344  12.691  70.510  1.00  0.00    -0.113 OA 
HETATM   39  C   UNL     1      -5.413  13.994  72.490  1.00  0.00    -0.175 C  
HETATM   40  C   UNL     1      -5.881  13.900  71.038  1.00  0.00    -0.198 C  
HETATM   41  C   UNL     1      -5.172  13.637  68.271  1.00  0.00    -0.107 C  
HETATM   42  C   UNL     1      -5.218  16.084  67.853  1.00  0.00    -0.138 C  
BRANCH  37  43
HETATM   43  O   UNL     1      -7.212  14.845  68.529  1.00  0.00    -0.104 OA 
HETATM   44  C   UNL     1      -7.714  14.904  67.207  1.00  0.00    -0.197 C  
ENDBRANCH  37  43
ENDBRANCH  32  33
ENDBRANCH   9  32
BRANCH  13  45
HETATM   45  O   UNL     1     -10.649  11.507  67.551  1.00  0.00    -0.192 OA 
BRANCH  45  46
HETATM   46  C   UNL     1     -11.451  12.697  67.500  1.00  0.00    -0.340 C  
HETATM   47  C   UNL     1     -13.644  13.911  64.853  1.00  0.00     1.381 C  
HETATM   48  C   UNL     1     -11.406  15.310  67.724  1.00  0.00    -0.326 C  
HETATM   49  C   UNL     1     -10.732  13.950  67.997  1.00  0.00    -0.247 C  
HETATM   50  C   UNL     1     -12.110  15.262  66.353  1.00  0.00     0.439 C  
HETATM   51  H   UNL     1     -10.034  14.560  69.704  1.00  0.00     0.000 HD 
HETATM   52  O   UNL     1     -10.481  13.781  69.394  1.00  0.00    -0.021 OA 
HETATM   53  O   UNL     1     -11.953  12.878  66.178  1.00  0.00    -0.404 OA 
HETATM   54  C   UNL     1     -12.890  13.960  66.167  1.00  0.00    -0.153 C  
BRANCH  48  55
HETATM   55  N   UNL     1     -10.398  16.426  67.777  1.00  0.00    -0.279 NA 
HETATM   56  C   UNL     1     -10.311  17.185  66.532  1.00  0.00    -0.306 C  
HETATM   57  C   UNL     1     -10.517  17.335  68.911  1.00  0.00    -0.327 C  
ENDBRANCH  48  55
ENDBRANCH  45  46
ENDBRANCH  13  45
ENDBRANCH   2   3
TORSDOF 7
ENDMDL
MODEL       38
REMARK 921   NORMALIZED FREE ENERGY PREDICTED BY IDOCK:    1.18 KCAL/MOL
REMARK 922        TOTAL FREE ENERGY PREDICTED BY IDOCK:   -0.92 KCAL/MOL
REMARK 923 INTER-LIGAND FREE ENERGY PREDICTED BY IDOCK:   -2.31 KCAL/MOL
REMARK 924 INTRA-LIGAND FREE ENERGY PREDICTED BY IDOCK:    1.39 KCAL/MOL
REMARK 927      BINDING AFFINITY PREDICTED BY RF-SCORE:    0.00 PKD
ROOT
HETATM    1  C   UNL     1      -5.470  16.947  69.452  1.00  0.00    -0.153 C  
HETATM    2  C   UNL     1      -6.591  15.923  69.339  1.00  0.00    -0.173 C  
ENDROOT
BRANCH   2   3
HETATM    3  C   UNL     1      -6.869  15.444  67.890  1.00  0.00    -0.149 C  
HETATM    4  O   UNL     1      -6.593  14.035  67.555  1.00  0.00    -0.219 OA 
HETATM    5  C   UNL     1      -6.734  13.014  68.428  1.00  0.00    -0.093 C  
HETATM    6  C   UNL     1      -6.429  11.639  67.803  1.00  0.00    -0.067 C  
HETATM    7  O   UNL     1      -7.016  13.169  69.603  1.00  0.00     0.074 OA 
HETATM    8  C   UNL     1      -6.252  11.743  66.281  1.00  0.00     0.374 C  
HETATM    9  C   UNL     1      -7.387  10.419  68.215  1.00  0.00    -0.088 C  
HETATM   10  C   UNL     1     -12.643  15.757  68.672  1.00  0.00     0.900 C  
HETATM   11  C   UNL     1      -8.046  10.567  69.662  1.00  0.00    -0.058 C  
HETATM   12  C   UNL     1     -10.374  13.402  66.777  1.00  0.00    -0.263 C  
HETATM   13  C   UNL     1      -9.252   9.552  70.043  1.00  0.00    -0.234 C  
HETATM   14  C   UNL     1      -6.821  10.555  70.606  1.00  0.00     0.257 C  
HETATM   15  C   UNL     1     -10.766  14.724  67.448  1.00  0.00    -0.281 C  
HETATM   16  C   UNL     1      -9.535  15.451  68.125  1.00  0.00    -0.202 C  
HETATM   17  C   UNL     1     -10.871   9.809  69.839  1.00  0.00    -0.272 C  
HETATM   18  C   UNL     1     -11.365  11.007  68.974  1.00  0.00    -0.345 C  
HETATM   19  C   UNL     1      -8.268  15.824  67.271  1.00  0.00    -0.184 C  
HETATM   20  C   UNL     1     -11.821   9.616  71.027  1.00  0.00    -0.428 C  
HETATM   21  H   UNL     1      -9.167  15.465  65.583  1.00  0.00     0.000 HD 
HETATM   22  O   UNL     1     -11.261   8.626  69.034  1.00  0.00    -0.416 OA 
HETATM   23  C   UNL     1     -11.953  12.285  69.659  1.00  0.00    -0.347 C  
HETATM   24  H   UNL     1      -8.425  15.191  69.715  1.00  0.00     0.000 HD 
HETATM   25  N   UNL     1     -11.820  14.565  68.485  1.00  0.00    -0.330 NA 
HETATM   26  C   UNL     1     -11.051  12.946  70.692  1.00  0.00     1.701 C  
HETATM   27  H   UNL     1     -12.192   8.775  68.916  1.00  0.00     0.000 HD 
HETATM   28  C   UNL     1      -8.309  17.337  66.979  1.00  0.00    -0.231 C  
HETATM   29  C   UNL     1     -12.570  13.318  68.657  1.00  0.00     0.678 C  
HETATM   30  O   UNL     1      -8.323  15.235  65.957  1.00  0.00     0.178 OA 
HETATM   31  O   UNL     1      -9.164  14.754  69.308  1.00  0.00    -0.139 OA 
BRANCH   9  32
HETATM   32  O   UNL     1      -6.480   9.277  68.134  1.00  0.00    -0.057 OA 
BRANCH  32  33
HETATM   33  C   UNL     1      -5.764   9.030  66.927  1.00  0.00    -0.045 C  
HETATM   34  O   UNL     1      -8.108   6.070  64.991  1.00  0.00    -0.122 OA 
HETATM   35  C   UNL     1      -7.070   6.988  65.338  1.00  0.00    -0.068 C  
HETATM   36  H   UNL     1      -8.584   6.333  64.212  1.00  0.00     0.000 HD 
HETATM   37  C   UNL     1      -6.294   6.559  66.611  1.00  0.00    -0.042 C  
HETATM   38  O   UNL     1      -6.549   9.347  65.771  1.00  0.00    -0.070 OA 
HETATM   39  C   UNL     1      -8.276   8.901  64.208  1.00  0.00    -0.169 C  
HETATM   40  C   UNL     1      -7.602   8.429  65.497  1.00  0.00    -0.090 C  
HETATM   41  C   UNL     1      -5.189   7.617  66.818  1.00  0.00    -0.024 C  
HETATM   42  C   UNL     1      -5.607   5.196  66.458  1.00  0.00    -0.017 C  
BRANCH  37  43
HETATM   43  O   UNL     1      -7.102   6.586  67.802  1.00  0.00    -0.082 OA 
HETATM   44  C   UNL     1      -8.460   6.199  67.710  1.00  0.00    -0.115 C  
ENDBRANCH  37  43
ENDBRANCH  32  33
ENDBRANCH   9  32
BRANCH  13  45
HETATM   45  O   UNL     1      -9.000   8.564  71.081  1.00  0.00    -0.153 OA 
BRANCH  45  46
HETATM   46  C   UNL     1      -8.464   7.273  70.753  1.00  0.00    -0.132 C  
HETATM   47  C   UNL     1     -10.145   4.046  70.532  1.00  0.00     0.007 C  
HETATM   48  C   UNL     1      -6.628   5.506  71.374  1.00  0.00    -0.044 C  
HETATM   49  C   UNL     1      -7.137   6.960  71.443  1.00  0.00    -0.074 C  
HETATM   50  C   UNL     1      -7.831   4.542  71.440  1.00  0.00    -0.086 C  
HETATM   51  H   UNL     1      -5.331   7.669  71.357  1.00  0.00     0.000 HD 
HETATM   52  O   UNL     1      -6.157   7.864  70.929  1.00  0.00    -0.034 OA 
HETATM   53  O   UNL     1      -9.439   6.268  71.024  1.00  0.00    -0.172 OA 
HETATM   54  C   UNL     1      -8.973   5.006  70.536  1.00  0.00    -0.125 C  
BRANCH  48  55
HETATM   55  N   UNL     1      -5.650   5.229  72.483  1.00  0.00    -0.017 NA 
HETATM   56  C   UNL     1      -6.018   5.860  73.749  1.00  0.00    -0.061 C  
HETATM   57  C   UNL     1      -5.318   3.825  72.701  1.00  0.00     0.000 C  
ENDBRANCH  48  55
ENDBRANCH  45  46
ENDBRANCH  13  45
ENDBRANCH   2   3
TORSDOF 7
ENDMDL
MODEL       39
REMARK 921   NORMALIZED FREE ENERGY PREDICTED BY IDOCK:    2.00 KCAL/MOL
REMARK 922        TOTAL FREE ENERGY PREDICTED BY IDOCK:    0.24 KCAL/MOL
REMARK 923 INTER-LIGAND FREE ENERGY PREDICTED BY IDOCK:   -3.93 KCAL/MOL
REMARK 924 INTRA-LIGAND FREE ENERGY PREDICTED BY IDOCK:    4.17 KCAL/MOL
REMARK 927      BINDING AFFINITY PREDICTED BY RF-SCORE:    0.00 PKD
ROOT
HETATM    1  C   UNL     1      -7.368   4.507  69.545  1.00  0.00    -0.051 C  
HETATM    2  C   UNL     1      -5.955   5.044  69.720  1.00  0.00    -0.021 C  
ENDROOT
BRANCH   2   3
HETATM    3  C   UNL     1      -5.680   5.664  71.115  1.00  0.00    -0.017 C  
HETATM    4  O   UNL     1      -5.691   7.133  71.243  1.00  0.00    -0.034 OA 
HETATM    5  C   UNL     1      -6.488   7.943  70.512  1.00  0.00    -0.037 C  
HETATM    6  C   UNL     1      -6.336   9.431  70.882  1.00  0.00    -0.078 C  
HETATM    7  O   UNL     1      -7.207   7.545  69.614  1.00  0.00    -0.073 OA 
HETATM    8  C   UNL     1      -5.478   9.610  72.143  1.00  0.00    -0.005 C  
HETATM    9  C   UNL     1      -7.676  10.312  70.937  1.00  0.00     1.313 C  
HETATM   10  C   UNL     1     -10.847   3.882  73.158  1.00  0.00    -0.174 C  
HETATM   11  C   UNL     1      -8.840   9.790  69.977  1.00  0.00    -0.245 C  
HETATM   12  C   UNL     1      -8.735   6.970  73.695  1.00  0.00    -0.172 C  
HETATM   13  C   UNL     1     -10.321  10.420  70.183  1.00  0.00    -0.056 C  
HETATM   14  C   UNL     1      -8.225   9.943  68.567  1.00  0.00    -0.106 C  
HETATM   15  C   UNL     1      -8.996   5.506  73.324  1.00  0.00    -0.123 C  
HETATM   16  C   UNL     1      -8.048   4.993  72.166  1.00  0.00    -0.112 C  
HETATM   17  C   UNL     1     -11.533   9.824  71.133  1.00  0.00    -0.398 C  
HETATM   18  C   UNL     1     -11.230   8.693  72.161  1.00  0.00    -0.438 C  
HETATM   19  C   UNL     1      -6.485   5.066  72.332  1.00  0.00    -0.043 C  
HETATM   20  C   UNL     1     -12.925   9.600  70.529  1.00  0.00     0.092 C  
HETATM   21  H   UNL     1      -6.597   5.462  74.233  1.00  0.00     0.000 HD 
HETATM   22  O   UNL     1     -11.838  10.992  71.995  1.00  0.00     0.830 OA 
HETATM   23  C   UNL     1     -11.677   7.222  71.869  1.00  0.00    -0.323 C  
HETATM   24  H   UNL     1      -7.887   5.257  70.234  1.00  0.00     0.000 HD 
HETATM   25  N   UNL     1     -10.399   5.249  72.903  1.00  0.00    -0.185 NA 
HETATM   26  C   UNL     1     -11.185   6.639  70.551  1.00  0.00    -0.388 C  
HETATM   27  H   UNL     1     -12.535  10.649  72.542  1.00  0.00     0.000 HD 
HETATM   28  C   UNL     1      -5.965   3.650  72.649  1.00  0.00    -0.008 C  
HETATM   29  C   UNL     1     -11.463   6.241  73.071  1.00  0.00     0.002 C  
HETATM   30  O   UNL     1      -6.112   5.822  73.500  1.00  0.00    -0.057 OA 
HETATM   31  O   UNL     1      -8.457   5.565  70.930  1.00  0.00    -0.119 OA 
BRANCH   9  32
HETATM   32  O   UNL     1      -7.190  11.634  70.550  1.00  0.00     0.817 OA 
BRANCH  32  33
HETATM   33  C   UNL     1      -5.790  11.891  70.527  1.00  0.00    -0.125 C  
HETATM   34  O   UNL     1      -5.571  16.125  70.705  1.00  0.00    -0.112 OA 
HETATM   35  C   UNL     1      -5.249  14.738  70.590  1.00  0.00    -0.126 C  
HETATM   36  H   UNL     1      -5.246  16.511  71.510  1.00  0.00     0.000 HD 
HETATM   37  C   UNL     1      -5.780  14.109  69.275  1.00  0.00    -0.084 C  
HETATM   38  O   UNL     1      -5.353  12.561  71.716  1.00  0.00    -0.377 OA 
HETATM   39  C   UNL     1      -5.137  14.473  73.101  1.00  0.00    -0.304 C  
HETATM   40  C   UNL     1      -5.742  13.927  71.808  1.00  0.00    -0.158 C  
HETATM   41  C   UNL     1      -5.311  12.638  69.281  1.00  0.00    -0.071 C  
HETATM   42  C   UNL     1      -5.201  14.774  68.020  1.00  0.00    -0.111 C  
BRANCH  37  43
HETATM   43  O   UNL     1      -7.217  14.070  69.207  1.00  0.00    -0.098 OA 
HETATM   44  C   UNL     1      -7.834  13.896  67.946  1.00  0.00    -0.161 C  
ENDBRANCH  37  43
ENDBRANCH  32  33
ENDBRANCH   9  32
BRANCH  13  45
HETATM   45  O   UNL     1     -10.847  11.266  69.122  1.00  0.00    -0.212 OA 
BRANCH  45  46
HETATM   46  C   UNL     1     -11.160  10.718  67.832  1.00  0.00    -0.308 C  
HETATM   47  C   UNL     1     -10.022   7.620  66.284  1.00  0.00    -0.021 C  
HETATM   48  C   UNL     1     -11.169  11.203  65.254  1.00  0.00     0.089 C  
HETATM   49  C   UNL     1     -11.122  11.742  66.699  1.00  0.00    -0.310 C  
HETATM   50  C   UNL     1     -10.390   9.874  65.182  1.00  0.00     0.155 C  
HETATM   51  H   UNL     1     -12.154  13.315  66.219  1.00  0.00     0.000 HD 
HETATM   52  O   UNL     1     -12.177  12.679  66.923  1.00  0.00    -0.489 OA 
HETATM   53  O   UNL     1     -10.301   9.613  67.562  1.00  0.00    -0.209 OA 
HETATM   54  C   UNL     1     -10.726   8.960  66.361  1.00  0.00     0.388 C  
BRANCH  48  55
HETATM   55  N   UNL     1     -10.610  12.212  64.289  1.00  0.00    -0.318 NA 
HETATM   56  C   UNL     1      -9.740  11.621  63.274  1.00  0.00    -0.368 C  
HETATM   57  C   UNL     1     -11.584  13.098  63.661  1.00  0.00    -0.390 C  
ENDBRANCH  48  55
ENDBRANCH  45  46
ENDBRANCH  13  45
ENDBRANCH   2   3
TORSDOF 7
ENDMDL
MODEL       40
REMARK 921   NORMALIZED FREE ENERGY PREDICTED BY IDOCK:    2.01 KCAL/MOL
REMARK 922        TOTAL FREE ENERGY PREDICTED BY IDOCK:    0.26 KCAL/MOL
REMARK 923 INTER-LIGAND FREE ENERGY PREDICTED BY IDOCK:   -3.77 KCAL/MOL
REMARK 924 INTRA-LIGAND FREE ENERGY PREDICTED BY IDOCK:    4.03 KCAL/MOL
REMARK 927      BINDING AFFINITY PREDICTED BY RF-SCORE:    0.00 PKD
ROOT
HETATM    1  C   UNL     1      -6.842  15.080  70.811  1.00  0.00     0.528 C  
HETATM    2  C   UNL     1      -5.424  14.924  70.283  1.00  0.00    -0.124 C  
ENDROOT
BRANCH   2   3
HETATM    3  C   UNL     1      -5.306  15.031  68.739  1.00  0.00    -0.088 C  
HETATM    4  O   UNL     1      -5.301  13.786  67.950  1.00  0.00    -0.135 OA 
HETATM    5  C   UNL     1      -5.986  12.674  68.298  1.00  0.00    -0.068 C  
HETATM    6  C   UNL     1      -5.848  11.534  67.270  1.00  0.00    -0.095 C  
HETATM    7  O   UNL     1      -6.600  12.563  69.344  1.00  0.00    -0.112 OA 
HETATM    8  C   UNL     1      -5.145  12.015  65.992  1.00  0.00     0.904 C  
HETATM    9  C   UNL     1      -7.166  10.678  66.946  1.00  0.00    -0.110 C  
HETATM   10  C   UNL     1     -10.721  17.155  68.265  1.00  0.00    -0.363 C  
HETATM   11  C   UNL     1      -8.216  10.616  68.147  1.00  0.00    -0.116 C  
HETATM   12  C   UNL     1      -8.623  14.820  66.160  1.00  0.00     0.386 C  
HETATM   13  C   UNL     1      -9.696  10.040  67.819  1.00  0.00    -0.150 C  
HETATM   14  C   UNL     1      -7.430   9.883  69.259  1.00  0.00    -0.096 C  
HETATM   15  C   UNL     1      -8.868  15.930  67.189  1.00  0.00    -0.207 C  
HETATM   16  C   UNL     1      -7.798  15.928  68.354  1.00  0.00    -0.145 C  
HETATM   17  C   UNL     1     -11.027  10.911  67.375  1.00  0.00    -0.293 C  
HETATM   18  C   UNL     1     -10.875  12.405  66.961  1.00  0.00    -0.282 C  
HETATM   19  C   UNL     1      -6.266  16.055  68.022  1.00  0.00    -0.126 C  
HETATM   20  C   UNL     1     -12.340  10.729  68.147  1.00  0.00     1.168 C  
HETATM   21  H   UNL     1      -6.599  16.563  66.174  1.00  0.00     0.000 HD 
HETATM   22  O   UNL     1     -11.409  10.245  66.106  1.00  0.00     0.379 OA 
HETATM   23  C   UNL     1     -11.315  13.543  67.941  1.00  0.00    -0.320 C  
HETATM   24  H   UNL     1      -7.398  14.825  69.919  1.00  0.00     0.000 HD 
HETATM   25  N   UNL     1     -10.215  15.860  67.816  1.00  0.00    -0.255 NA 
HETATM   26  C   UNL     1     -10.680  13.496  69.324  1.00  0.00    -0.039 C  
HETATM   27  H   UNL     1     -12.174  10.747  65.850  1.00  0.00     0.000 HD 
HETATM   28  C   UNL     1      -5.819  17.495  68.344  1.00  0.00    -0.160 C  
HETATM   29  C   UNL     1     -11.270  14.977  67.314  1.00  0.00    -0.338 C  
HETATM   30  O   UNL     1      -6.020  15.946  66.606  1.00  0.00    -0.118 OA 
HETATM   31  O   UNL     1      -8.042  14.826  69.220  1.00  0.00    -0.153 OA 
BRANCH   9  32
HETATM   32  O   UNL     1      -6.608   9.365  66.629  1.00  0.00    -0.066 OA 
BRANCH  32  33
HETATM   33  C   UNL     1      -7.483   8.276  66.355  1.00  0.00    -0.080 C  
HETATM   34  O   UNL     1      -5.908   6.637  62.772  1.00  0.00    -0.036 OA 
HETATM   35  C   UNL     1      -6.729   6.921  63.906  1.00  0.00    -0.049 C  
HETATM   36  H   UNL     1      -5.482   5.789  62.831  1.00  0.00     0.000 HD 
HETATM   37  C   UNL     1      -7.423   8.305  63.809  1.00  0.00    -0.121 C  
HETATM   38  O   UNL     1      -6.787   7.023  66.357  1.00  0.00    -0.058 OA 
HETATM   39  C   UNL     1      -5.344   5.410  65.387  1.00  0.00    -0.013 C  
HETATM   40  C   UNL     1      -5.943   6.808  65.231  1.00  0.00    -0.035 C  
HETATM   41  C   UNL     1      -8.300   8.436  65.072  1.00  0.00    -0.169 C  
HETATM   42  C   UNL     1      -8.345   8.424  62.590  1.00  0.00    -0.150 C  
BRANCH  37  43
HETATM   43  O   UNL     1      -6.496   9.406  63.850  1.00  0.00    -0.090 OA 
HETATM   44  C   UNL     1      -6.260  10.140  62.664  1.00  0.00    -0.128 C  
ENDBRANCH  37  43
ENDBRANCH  32  33
ENDBRANCH   9  32
BRANCH  13  45
HETATM   45  O   UNL     1     -10.072   8.767  68.415  1.00  0.00    -0.178 OA 
BRANCH  45  46
HETATM   46  C   UNL     1     -11.023   8.711  69.490  1.00  0.00    -0.055 C  
HETATM   47  C   UNL     1     -12.045  11.313  71.829  1.00  0.00     0.556 C  
HETATM   48  C   UNL     1     -11.693   7.432  71.680  1.00  0.00    -0.279 C  
HETATM   49  C   UNL     1     -10.910   7.453  70.351  1.00  0.00    -0.243 C  
HETATM   50  C   UNL     1     -11.689   8.847  72.295  1.00  0.00    -0.351 C  
HETATM   51  H   UNL     1     -11.198   5.553  70.071  1.00  0.00     0.000 HD 
HETATM   52  O   UNL     1     -11.268   6.335  69.536  1.00  0.00    -0.380 OA 
HETATM   53  O   UNL     1     -10.920   9.892  70.281  1.00  0.00    -0.262 OA 
HETATM   54  C   UNL     1     -11.980   9.917  71.242  1.00  0.00    -0.402 C  
BRANCH  48  55
HETATM   55  N   UNL     1     -11.103   6.427  72.631  1.00  0.00    -0.254 NA 
HETATM   56  C   UNL     1     -10.767   5.156  71.994  1.00  0.00    -0.169 C  
HETATM   57  C   UNL     1      -9.979   6.897  73.435  1.00  0.00    -0.236 C  
ENDBRANCH  48  55
ENDBRANCH  45  46
ENDBRANCH  13  45
ENDBRANCH   2   3
TORSDOF 7
ENDMDL
MODEL       41
REMARK 921   NORMALIZED FREE ENERGY PREDICTED BY IDOCK:    2.03 KCAL/MOL
REMARK 922        TOTAL FREE ENERGY PREDICTED BY IDOCK:    0.28 KCAL/MOL
REMARK 923 INTER-LIGAND FREE ENERGY PREDICTED BY IDOCK:   -5.97 KCAL/MOL
REMARK 924 INTRA-LIGAND FREE ENERGY PREDICTED BY IDOCK:    6.25 KCAL/MOL
REMARK 927      BINDING AFFINITY PREDICTED BY RF-SCORE:    0.00 PKD
ROOT
HETATM    1  C   UNL     1      -9.766   8.688  72.189  1.00  0.00    -0.383 C  
HETATM    2  C   UNL     1      -9.550   7.483  73.093  1.00  0.00    -0.286 C  
ENDROOT
BRANCH   2   3
HETATM    3  C   UNL     1      -8.241   6.701  72.807  1.00  0.00    -0.108 C  
HETATM    4  O   UNL     1      -8.128   5.970  71.531  1.00  0.00    -0.112 OA 
HETATM    5  C   UNL     1      -8.698   6.382  70.377  1.00  0.00    -0.147 C  
HETATM    6  C   UNL     1      -8.379   5.459  69.185  1.00  0.00    -0.097 C  
HETATM    7  O   UNL     1      -9.435   7.348  70.300  1.00  0.00    -0.165 OA 
HETATM    8  C   UNL     1      -7.311   4.419  69.551  1.00  0.00    -0.051 C  
HETATM    9  C   UNL     1      -8.073   6.165  67.776  1.00  0.00    -0.113 C  
HETATM   10  C   UNL     1      -5.215  11.633  72.050  1.00  0.00     0.279 C  
HETATM   11  C   UNL     1      -8.783   7.582  67.588  1.00  0.00    -0.122 C  
HETATM   12  C   UNL     1      -5.129   8.224  70.420  1.00  0.00    -0.022 C  
HETATM   13  C   UNL     1      -8.300   8.503  66.343  1.00  0.00    -0.114 C  
HETATM   14  C   UNL     1     -10.287   7.226  67.628  1.00  0.00    -0.290 C  
HETATM   15  C   UNL     1      -5.428   9.227  71.540  1.00  0.00    -0.063 C  
HETATM   16  C   UNL     1      -6.743   8.870  72.343  1.00  0.00     0.101 C  
HETATM   17  C   UNL     1      -7.126   9.665  66.362  1.00  0.00    -0.093 C  
HETATM   18  C   UNL     1      -6.166   9.780  67.583  1.00  0.00    -0.056 C  
HETATM   19  C   UNL     1      -6.886   7.470  73.046  1.00  0.00    -0.067 C  
HETATM   20  C   UNL     1      -7.446  11.069  65.834  1.00  0.00     0.019 C  
HETATM   21  H   UNL     1      -5.003   7.041  72.812  1.00  0.00     0.000 HD 
HETATM   22  O   UNL     1      -6.233   9.204  65.271  1.00  0.00    -0.062 OA 
HETATM   23  C   UNL     1      -6.351  10.932  68.626  1.00  0.00    -0.050 C  
HETATM   24  H   UNL     1      -8.672   8.940  72.022  1.00  0.00     0.000 HD 
HETATM   25  N   UNL     1      -5.566  10.626  71.051  1.00  0.00    -0.218 NA 
HETATM   26  C   UNL     1      -7.734  11.027  69.256  1.00  0.00    -0.071 C  
HETATM   27  H   UNL     1      -5.558   9.872  65.282  1.00  0.00     0.000 HD 
HETATM   28  C   UNL     1      -6.661   7.663  74.558  1.00  0.00    -0.112 C  
HETATM   29  C   UNL     1      -5.204  11.021  69.688  1.00  0.00    -0.041 C  
HETATM   30  O   UNL     1      -5.820   6.577  72.668  1.00  0.00    -0.038 OA 
HETATM   31  O   UNL     1      -7.882   9.155  71.540  1.00  0.00    -0.330 OA 
BRANCH   9  32
HETATM   32  O   UNL     1      -8.559   5.170  66.823  1.00  0.00    -0.110 OA 
BRANCH  32  33
HETATM   33  C   UNL     1      -8.027   3.849  66.850  1.00  0.00    -0.096 C  
HETATM   34  O   UNL     1      -7.500   2.927  62.742  1.00  0.00    -0.050 OA 
HETATM   35  C   UNL     1      -7.574   2.852  64.166  1.00  0.00    -0.075 C  
HETATM   36  H   UNL     1      -6.608   2.875  62.418  1.00  0.00     0.000 HD 
HETATM   37  C   UNL     1      -9.031   2.937  64.694  1.00  0.00    -0.121 C  
HETATM   38  O   UNL     1      -6.719   3.793  66.265  1.00  0.00    -0.047 OA 
HETATM   39  C   UNL     1      -5.235   3.778  64.416  1.00  0.00    -0.009 C  
HETATM   40  C   UNL     1      -6.695   3.923  64.848  1.00  0.00    -0.048 C  
HETATM   41  C   UNL     1      -8.941   2.793  66.228  1.00  0.00    -0.149 C  
HETATM   42  C   UNL     1      -9.920   1.802  64.172  1.00  0.00    -0.030 C  
BRANCH  37  43
HETATM   43  O   UNL     1      -9.646   4.215  64.448  1.00  0.00    -0.157 OA 
HETATM   44  C   UNL     1     -10.598   4.321  63.406  1.00  0.00     0.116 C  
ENDBRANCH  37  43
ENDBRANCH  32  33
ENDBRANCH   9  32
BRANCH  13  45
HETATM   45  O   UNL     1      -9.246   8.724  65.260  1.00  0.00    -0.157 OA 
BRANCH  45  46
HETATM   46  C   UNL     1     -10.250   9.746  65.358  1.00  0.00     0.021 C  
HETATM   47  C   UNL     1     -11.373  12.150  62.858  1.00  0.00     0.216 C  
HETATM   48  C   UNL     1     -11.036  11.838  66.731  1.00  0.00    -0.306 C  
HETATM   49  C   UNL     1     -10.188  10.552  66.654  1.00  0.00    -0.233 C  
HETATM   50  C   UNL     1     -11.056  12.517  65.346  1.00  0.00    -0.337 C  
HETATM   51  H   UNL     1     -10.473  10.170  68.537  1.00  0.00     0.000 HD 
HETATM   52  O   UNL     1     -10.511   9.669  67.731  1.00  0.00    -0.223 OA 
HETATM   53  O   UNL     1     -10.179  10.596  64.215  1.00  0.00    -0.351 OA 
HETATM   54  C   UNL     1     -11.287  11.503  64.226  1.00  0.00    -0.242 C  
BRANCH  48  55
HETATM   55  N   UNL     1     -10.501  12.769  67.784  1.00  0.00    -0.219 NA 
HETATM   56  C   UNL     1      -9.783  13.916  67.231  1.00  0.00    -0.245 C  
HETATM   57  C   UNL     1     -11.463  13.216  68.785  1.00  0.00    -0.307 C  
ENDBRANCH  48  55
ENDBRANCH  45  46
ENDBRANCH  13  45
ENDBRANCH   2   3
TORSDOF 7
ENDMDL
MODEL       42
REMARK 921   NORMALIZED FREE ENERGY PREDICTED BY IDOCK:    2.24 KCAL/MOL
REMARK 922        TOTAL FREE ENERGY PREDICTED BY IDOCK:    0.57 KCAL/MOL
REMARK 923 INTER-LIGAND FREE ENERGY PREDICTED BY IDOCK:    0.12 KCAL/MOL
REMARK 924 INTRA-LIGAND FREE ENERGY PREDICTED BY IDOCK:    0.46 KCAL/MOL
REMARK 927      BINDING AFFINITY PREDICTED BY RF-SCORE:    0.00 PKD
ROOT
HETATM    1  C   UNL     1     -11.865  16.248  72.123  1.00  0.00    -0.585 C  
HETATM    2  C   UNL     1     -11.555  15.863  70.683  1.00  0.00    -0.426 C  
ENDROOT
BRANCH   2   3
HETATM    3  C   UNL     1     -10.075  16.084  70.273  1.00  0.00     0.226 C  
HETATM    4  O   UNL     1      -9.249  14.900  69.974  1.00  0.00     0.158 OA 
HETATM    5  C   UNL     1      -9.732  13.768  69.417  1.00  0.00     0.604 C  
HETATM    6  C   UNL     1      -8.644  12.707  69.166  1.00  0.00     0.678 C  
HETATM    7  O   UNL     1     -10.915  13.582  69.193  1.00  0.00    -0.239 OA 
HETATM    8  C   UNL     1      -7.239  13.278  69.406  1.00  0.00     0.230 C  
HETATM    9  C   UNL     1      -8.731  11.881  67.793  1.00  0.00    -0.158 C  
HETATM   10  C   UNL     1     -11.622  18.254  65.081  1.00  0.00     2.719 C  
HETATM   11  C   UNL     1     -10.211  11.734  67.212  1.00  0.00    -0.226 C  
HETATM   12  C   UNL     1      -8.774  16.074  66.272  1.00  0.00    -0.372 C  
HETATM   13  C   UNL     1     -10.369  11.188  65.693  1.00  0.00    -0.254 C  
HETATM   14  C   UNL     1     -10.936  10.918  68.308  1.00  0.00    -0.293 C  
HETATM   15  C   UNL     1      -9.897  17.106  66.423  1.00  0.00    -0.300 C  
HETATM   16  C   UNL     1     -10.624  17.014  67.824  1.00  0.00    -0.350 C  
HETATM   17  C   UNL     1     -10.466  12.093  64.315  1.00  0.00    -0.339 C  
HETATM   18  C   UNL     1     -10.128  13.614  64.359  1.00  0.00     0.044 C  
HETATM   19  C   UNL     1      -9.799  17.161  69.155  1.00  0.00    -0.187 C  
HETATM   20  C   UNL     1     -11.625  11.860  63.338  1.00  0.00    -0.477 C  
HETATM   21  H   UNL     1      -8.215  17.805  68.228  1.00  0.00     0.000 HD 
HETATM   22  O   UNL     1      -9.360  11.524  63.506  1.00  0.00    -0.435 OA 
HETATM   23  C   UNL     1     -11.275  14.678  64.311  1.00  0.00    -0.057 C  
HETATM   24  H   UNL     1     -11.881  15.798  68.701  1.00  0.00     0.000 HD 
HETATM   25  N   UNL     1     -10.940  16.994  65.367  1.00  0.00    -0.322 NA 
HETATM   26  C   UNL     1     -12.351  14.526  65.376  1.00  0.00    -0.286 C  
HETATM   27  H   UNL     1      -9.416  12.046  62.714  1.00  0.00     0.000 HD 
HETATM   28  C   UNL     1     -10.047  18.572  69.725  1.00  0.00     0.612 C  
HETATM   29  C   UNL     1     -10.768  16.154  64.180  1.00  0.00     1.251 C  
HETATM   30  O   UNL     1      -8.381  17.155  68.902  1.00  0.00    -0.252 OA 
HETATM   31  O   UNL     1     -11.444  15.853  67.859  1.00  0.00    -0.299 OA 
BRANCH   9  32
HETATM   32  O   UNL     1      -8.154  10.593  68.173  1.00  0.00    -0.109 OA 
BRANCH  32  33
HETATM   33  C   UNL     1      -6.987  10.557  68.989  1.00  0.00    -0.076 C  
HETATM   34  O   UNL     1      -6.857   6.532  70.326  1.00  0.00    -0.054 OA 
HETATM   35  C   UNL     1      -6.596   7.923  70.134  1.00  0.00    -0.037 C  
HETATM   36  H   UNL     1      -6.169   5.979  69.974  1.00  0.00     0.000 HD 
HETATM   37  C   UNL     1      -7.719   8.827  70.708  1.00  0.00    -0.102 C  
HETATM   38  O   UNL     1      -6.012   9.639  68.479  1.00  0.00    -0.043 OA 
HETATM   39  C   UNL     1      -5.165   7.456  68.103  1.00  0.00    -0.025 C  
HETATM   40  C   UNL     1      -6.342   8.264  68.650  1.00  0.00    -0.053 C  
HETATM   41  C   UNL     1      -7.265  10.282  70.467  1.00  0.00     0.153 C  
HETATM   42  C   UNL     1      -7.914   8.646  72.219  1.00  0.00    -0.072 C  
BRANCH  37  43
HETATM   43  O   UNL     1      -8.972   8.678  70.017  1.00  0.00    -0.140 OA 
HETATM   44  C   UNL     1     -10.046   8.043  70.684  1.00  0.00    -0.194 C  
ENDBRANCH  37  43
ENDBRANCH  32  33
ENDBRANCH   9  32
BRANCH  13  45
HETATM   45  O   UNL     1     -10.969   9.875  65.506  1.00  0.00     0.560 OA 
BRANCH  45  46
HETATM   46  C   UNL     1     -10.157   8.692  65.480  1.00  0.00     0.934 C  
HETATM   47  C   UNL     1      -9.723   6.112  68.018  1.00  0.00    -0.122 C  
HETATM   48  C   UNL     1      -7.722   7.785  65.118  1.00  0.00    -0.101 C  
HETATM   49  C   UNL     1      -8.749   8.920  64.930  1.00  0.00    -0.149 C  
HETATM   50  C   UNL     1      -7.968   7.097  66.477  1.00  0.00    -0.112 C  
HETATM   51  H   UNL     1      -7.998   9.407  63.206  1.00  0.00     0.000 HD 
HETATM   52  O   UNL     1      -8.873   9.265  63.549  1.00  0.00    -0.205 OA 
HETATM   53  O   UNL     1     -10.117   8.111  66.781  1.00  0.00    -0.254 OA 
HETATM   54  C   UNL     1      -9.456   6.843  66.718  1.00  0.00    -0.165 C  
BRANCH  48  55
HETATM   55  N   UNL     1      -6.317   8.314  65.025  1.00  0.00    -0.049 NA 
HETATM   56  C   UNL     1      -5.648   7.961  63.775  1.00  0.00    -0.053 C  
HETATM   57  C   UNL     1      -6.157   9.739  65.293  1.00  0.00    -0.083 C  
ENDBRANCH  48  55
ENDBRANCH  45  46
ENDBRANCH  13  45
ENDBRANCH   2   3
TORSDOF 7
ENDMDL
MODEL       43
REMARK 921   NORMALIZED FREE ENERGY PREDICTED BY IDOCK:    2.26 KCAL/MOL
REMARK 922        TOTAL FREE ENERGY PREDICTED BY IDOCK:    0.61 KCAL/MOL
REMARK 923 INTER-LIGAND FREE ENERGY PREDICTED BY IDOCK:   -0.26 KCAL/MOL
REMARK 924 INTRA-LIGAND FREE ENERGY PREDICTED BY IDOCK:    0.87 KCAL/MOL
REMARK 927      BINDING AFFINITY PREDICTED BY RF-SCORE:    0.00 PKD
ROOT
HETATM    1  C   UNL     1     -10.102  14.261  68.758  1.00  0.00    -0.217 C  
HETATM    2  C   UNL     1      -9.318  13.232  67.956  1.00  0.00    -0.218 C  
ENDROOT
BRANCH   2   3
HETATM    3  C   UNL     1      -7.930  12.883  68.556  1.00  0.00    -0.095 C  
HETATM    4  O   UNL     1      -7.793  11.629  69.319  1.00  0.00     0.041 OA 
HETATM    5  C   UNL     1      -8.488  10.503  69.043  1.00  0.00    -0.157 C  
HETATM    6  C   UNL     1      -8.115   9.324  69.962  1.00  0.00    -0.140 C  
HETATM    7  O   UNL     1      -9.360  10.443  68.196  1.00  0.00    -0.141 OA 
HETATM    8  C   UNL     1      -6.886   9.652  70.823  1.00  0.00    -0.091 C  
HETATM    9  C   UNL     1      -8.002   7.874  69.283  1.00  0.00    -0.117 C  
HETATM   10  C   UNL     1      -5.703  11.752  63.282  1.00  0.00     2.473 C  
HETATM   11  C   UNL     1      -8.921   7.687  67.990  1.00  0.00    -0.126 C  
HETATM   12  C   UNL     1      -5.228  10.238  66.713  1.00  0.00    -0.041 C  
HETATM   13  C   UNL     1      -8.655   6.381  67.065  1.00  0.00    -0.112 C  
HETATM   14  C   UNL     1     -10.352   7.842  68.554  1.00  0.00    -0.226 C  
HETATM   15  C   UNL     1      -5.597  11.341  65.714  1.00  0.00     0.091 C  
HETATM   16  C   UNL     1      -6.794  12.244  66.219  1.00  0.00     1.207 C  
HETATM   17  C   UNL     1      -7.663   6.279  65.749  1.00  0.00    -0.091 C  
HETATM   18  C   UNL     1      -6.654   7.427  65.445  1.00  0.00    -0.044 C  
HETATM   19  C   UNL     1      -6.688  13.002  67.593  1.00  0.00    -0.157 C  
HETATM   20  C   UNL     1      -8.215   5.727  64.428  1.00  0.00    -0.114 C  
HETATM   21  H   UNL     1      -4.781  12.655  67.760  1.00  0.00     0.000 HD 
HETATM   22  O   UNL     1      -6.783   5.146  66.126  1.00  0.00    -0.051 OA 
HETATM   23  C   UNL     1      -6.939   8.440  64.286  1.00  0.00    -0.081 C  
HETATM   24  H   UNL     1      -8.729  12.054  66.438  1.00  0.00     0.000 HD 
HETATM   25  N   UNL     1      -5.966  10.815  64.372  1.00  0.00     0.043 NA 
HETATM   26  C   UNL     1      -8.278   9.160  64.361  1.00  0.00    -0.158 C  
HETATM   27  H   UNL     1      -6.212   5.088  65.368  1.00  0.00     0.000 HD 
HETATM   28  C   UNL     1      -6.399  14.489  67.304  1.00  0.00     0.348 C  
HETATM   29  C   UNL     1      -5.752   9.418  63.990  1.00  0.00    -0.075 C  
HETATM   30  O   UNL     1      -5.530  12.583  68.341  1.00  0.00    -0.051 OA 
HETATM   31  O   UNL     1      -8.010  11.511  66.134  1.00  0.00    -0.056 OA 
BRANCH   9  32
HETATM   32  O   UNL     1      -8.399   6.992  70.377  1.00  0.00    -0.126 OA 
BRANCH  32  33
HETATM   33  C   UNL     1      -8.064   7.337  71.718  1.00  0.00    -0.100 C  
HETATM   34  O   UNL     1      -8.665   3.711  73.838  1.00  0.00    -0.088 OA 
HETATM   35  C   UNL     1      -8.406   5.074  73.496  1.00  0.00    -0.106 C  
HETATM   36  H   UNL     1      -7.892   3.262  74.160  1.00  0.00     0.000 HD 
HETATM   37  C   UNL     1      -9.669   5.807  72.970  1.00  0.00    -0.155 C  
HETATM   38  O   UNL     1      -6.954   6.569  72.201  1.00  0.00    -0.070 OA 
HETATM   39  C   UNL     1      -5.971   4.579  73.035  1.00  0.00    -0.013 C  
HETATM   40  C   UNL     1      -7.251   5.205  72.480  1.00  0.00    -0.092 C  
HETATM   41  C   UNL     1      -9.237   7.263  72.696  1.00  0.00    -0.172 C  
HETATM   42  C   UNL     1     -10.805   5.847  73.999  1.00  0.00     0.035 C  
BRANCH  37  43
HETATM   43  O   UNL     1     -10.143   5.287  71.715  1.00  0.00    -0.186 OA 
HETATM   44  C   UNL     1     -11.482   5.543  71.335  1.00  0.00     0.215 C  
ENDBRANCH  37  43
ENDBRANCH  32  33
ENDBRANCH   9  32
BRANCH  13  45
HETATM   45  O   UNL     1      -9.689   5.358  67.028  1.00  0.00    -0.129 OA 
BRANCH  45  46
HETATM   46  C   UNL     1      -9.408   4.013  67.444  1.00  0.00    -0.183 C  
HETATM   47  C   UNL     1      -8.367   2.758  70.704  1.00  0.00    -0.082 C  
HETATM   48  C   UNL     1      -7.982   1.874  66.925  1.00  0.00    -0.068 C  
HETATM   49  C   UNL     1      -8.564   3.220  66.448  1.00  0.00    -0.121 C  
HETATM   50  C   UNL     1      -7.598   1.985  68.416  1.00  0.00    -0.050 C  
HETATM   51  H   UNL     1      -8.818   2.548  64.644  1.00  0.00     0.000 HD 
HETATM   52  O   UNL     1      -9.343   3.042  65.263  1.00  0.00    -0.149 OA 
HETATM   53  O   UNL     1      -8.807   4.029  68.737  1.00  0.00    -0.093 OA 
HETATM   54  C   UNL     1      -8.688   2.688  69.225  1.00  0.00    -0.083 C  
BRANCH  48  55
HETATM   55  N   UNL     1      -6.796   1.477  66.089  1.00  0.00    -0.033 NA 
HETATM   56  C   UNL     1      -6.702   2.218  64.833  1.00  0.00    -0.035 C  
HETATM   57  C   UNL     1      -5.507   1.483  66.772  1.00  0.00    -0.016 C  
ENDBRANCH  48  55
ENDBRANCH  45  46
ENDBRANCH  13  45
ENDBRANCH   2   3
TORSDOF 7
ENDMDL
MODEL       44
REMARK 921   NORMALIZED FREE ENERGY PREDICTED BY IDOCK:    2.43 KCAL/MOL
REMARK 922        TOTAL FREE ENERGY PREDICTED BY IDOCK:    0.85 KCAL/MOL
REMARK 923 INTER-LIGAND FREE ENERGY PREDICTED BY IDOCK:   -5.02 KCAL/MOL
REMARK 924 INTRA-LIGAND FREE ENERGY PREDICTED BY IDOCK:    5.87 KCAL/MOL
REMARK 927      BINDING AFFINITY PREDICTED BY RF-SCORE:    0.00 PKD
ROOT
HETATM    1  C   UNL     1     -11.113   5.517  69.250  1.00  0.00     0.115 C  
HETATM    2  C   UNL     1     -11.408   6.831  68.541  1.00  0.00    -0.056 C  
ENDROOT
BRANCH   2   3
HETATM    3  C   UNL     1     -10.694   6.988  67.172  1.00  0.00    -0.363 C  
HETATM    4  O   UNL     1     -10.661   8.324  66.550  1.00  0.00    -0.193 OA 
HETATM    5  C   UNL     1     -10.602   9.478  67.252  1.00  0.00    -0.248 C  
HETATM    6  C   UNL     1     -10.526  10.727  66.353  1.00  0.00    -0.293 C  
HETATM    7  O   UNL     1     -10.662   9.528  68.467  1.00  0.00    -0.218 OA 
HETATM    8  C   UNL     1     -10.314  10.346  64.881  1.00  0.00    -0.238 C  
HETATM    9  C   UNL     1      -9.538  11.903  66.818  1.00  0.00    -0.204 C  
HETATM   10  C   UNL     1      -5.435   6.266  69.596  1.00  0.00    -0.013 C  
HETATM   11  C   UNL     1      -9.308  11.977  68.396  1.00  0.00    -0.175 C  
HETATM   12  C   UNL     1      -6.757   8.417  66.783  1.00  0.00    -0.061 C  
HETATM   13  C   UNL     1      -8.105  12.923  68.934  1.00  0.00     0.212 C  
HETATM   14  C   UNL     1     -10.720  12.294  68.940  1.00  0.00    -0.210 C  
HETATM   15  C   UNL     1      -6.754   7.220  67.740  1.00  0.00    -0.065 C  
HETATM   16  C   UNL     1      -8.213   6.764  68.149  1.00  0.00    -0.114 C  
HETATM   17  C   UNL     1      -6.546  12.473  69.241  1.00  0.00    -0.089 C  
HETATM   18  C   UNL     1      -6.028  11.086  68.755  1.00  0.00    -0.043 C  
HETATM   19  C   UNL     1      -9.255   6.358  67.043  1.00  0.00    -0.129 C  
HETATM   20  C   UNL     1      -5.920  12.799  70.602  1.00  0.00    -0.005 C  
HETATM   21  H   UNL     1      -7.905   6.290  65.644  1.00  0.00     0.000 HD 
HETATM   22  O   UNL     1      -5.788  13.431  68.400  1.00  0.00    -0.075 OA 
HETATM   23  C   UNL     1      -5.835   9.915  69.775  1.00  0.00    -0.042 C  
HETATM   24  H   UNL     1      -9.647   7.438  69.297  1.00  0.00     0.000 HD 
HETATM   25  N   UNL     1      -5.994   7.474  68.994  1.00  0.00    -0.033 NA 
HETATM   26  C   UNL     1      -7.062   9.561  70.603  1.00  0.00    -0.128 C  
HETATM   27  H   UNL     1      -4.892  13.171  68.576  1.00  0.00     0.000 HD 
HETATM   28  C   UNL     1      -9.364   4.821  67.022  1.00  0.00    -0.144 C  
HETATM   29  C   UNL     1      -5.139   8.650  69.168  1.00  0.00    -0.035 C  
HETATM   30  O   UNL     1      -8.772   6.670  65.722  1.00  0.00    -0.153 OA 
HETATM   31  O   UNL     1      -8.770   7.712  69.051  1.00  0.00    -0.135 OA 
BRANCH   9  32
HETATM   32  O   UNL     1     -10.213  13.092  66.300  1.00  0.00    -0.274 OA 
BRANCH  32  33
HETATM   33  C   UNL     1      -9.927  13.546  64.981  1.00  0.00    -0.166 C  
HETATM   34  O   UNL     1     -13.358  15.828  63.970  1.00  0.00     0.075 OA 
HETATM   35  C   UNL     1     -12.112  15.131  63.926  1.00  0.00     0.124 C  
HETATM   36  H   UNL     1     -13.252  16.770  63.912  1.00  0.00     0.000 HD 
HETATM   37  C   UNL     1     -12.285  13.591  64.022  1.00  0.00    -0.402 C  
HETATM   38  O   UNL     1      -9.871  14.976  64.913  1.00  0.00    -0.188 OA 
HETATM   39  C   UNL     1     -10.872  17.125  64.859  1.00  0.00     0.196 C  
HETATM   40  C   UNL     1     -11.133  15.627  65.012  1.00  0.00    -0.389 C  
HETATM   41  C   UNL     1     -10.868  12.992  63.911  1.00  0.00    -0.347 C  
HETATM   42  C   UNL     1     -13.124  13.015  62.875  1.00  0.00     1.366 C  
BRANCH  37  43
HETATM   43  O   UNL     1     -12.804  13.160  65.293  1.00  0.00    -0.617 OA 
HETATM   44  C   UNL     1     -12.701  14.033  66.402  1.00  0.00    -0.096 C  
ENDBRANCH  37  43
ENDBRANCH  32  33
ENDBRANCH   9  32
BRANCH  13  45
HETATM   45  O   UNL     1      -8.469  14.115  69.686  1.00  0.00     0.481 OA 
BRANCH  45  46
HETATM   46  C   UNL     1      -9.622  14.889  69.323  1.00  0.00    -0.128 C  
HETATM   47  C   UNL     1      -9.819  18.245  67.913  1.00  0.00    -0.329 C  
HETATM   48  C   UNL     1     -11.899  15.859  70.192  1.00  0.00    -0.314 C  
HETATM   49  C   UNL     1     -10.746  14.849  70.358  1.00  0.00    -0.019 C  
HETATM   50  C   UNL     1     -11.336  17.188  69.648  1.00  0.00     0.849 C  
HETATM   51  H   UNL     1     -11.947  13.486  71.046  1.00  0.00     0.000 HD 
HETATM   52  O   UNL     1     -11.248  13.512  70.402  1.00  0.00     0.157 OA 
HETATM   53  O   UNL     1      -9.227  16.229  69.039  1.00  0.00    -0.240 OA 
HETATM   54  C   UNL     1     -10.342  16.954  68.510  1.00  0.00    -0.336 C  
BRANCH  48  55
HETATM   55  N   UNL     1     -12.617  16.069  71.497  1.00  0.00    -0.392 NA 
HETATM   56  C   UNL     1     -13.740  15.155  71.693  1.00  0.00    -0.485 C  
HETATM   57  C   UNL     1     -11.776  16.091  72.689  1.00  0.00    -0.408 C  
ENDBRANCH  48  55
ENDBRANCH  45  46
ENDBRANCH  13  45
ENDBRANCH   2   3
TORSDOF 7
ENDMDL
MODEL       45
REMARK 921   NORMALIZED FREE ENERGY PREDICTED BY IDOCK:    2.47 KCAL/MOL
REMARK 922        TOTAL FREE ENERGY PREDICTED BY IDOCK:    0.91 KCAL/MOL
REMARK 923 INTER-LIGAND FREE ENERGY PREDICTED BY IDOCK:   -4.91 KCAL/MOL
REMARK 924 INTRA-LIGAND FREE ENERGY PREDICTED BY IDOCK:    5.82 KCAL/MOL
REMARK 927      BINDING AFFINITY PREDICTED BY RF-SCORE:    0.00 PKD
ROOT
HETATM    1  C   UNL     1      -5.233   6.040  69.516  1.00  0.00    -0.005 C  
HETATM    2  C   UNL     1      -5.129   4.954  68.455  1.00  0.00     0.000 C  
ENDROOT
BRANCH   2   3
HETATM    3  C   UNL     1      -6.483   4.289  68.092  1.00  0.00    -0.038 C  
HETATM    4  O   UNL     1      -7.724   4.917  68.582  1.00  0.00    -0.076 OA 
HETATM    5  C   UNL     1      -7.877   6.249  68.745  1.00  0.00    -0.101 C  
HETATM    6  C   UNL     1      -9.290   6.640  69.221  1.00  0.00    -0.142 C  
HETATM    7  O   UNL     1      -6.976   7.053  68.589  1.00  0.00    -0.073 OA 
HETATM    8  C   UNL     1     -10.245   5.439  69.183  1.00  0.00    -0.302 C  
HETATM    9  C   UNL     1      -9.945   7.951  68.567  1.00  0.00    -0.187 C  
HETATM   10  C   UNL     1      -6.019   5.910  62.505  1.00  0.00    -0.025 C  
HETATM   11  C   UNL     1      -8.882   9.038  68.079  1.00  0.00    -0.129 C  
HETATM   12  C   UNL     1      -8.911   5.604  64.918  1.00  0.00     0.098 C  
HETATM   13  C   UNL     1      -9.423  10.246  67.141  1.00  0.00    -0.158 C  
HETATM   14  C   UNL     1      -8.183   9.457  69.393  1.00  0.00    -0.119 C  
HETATM   15  C   UNL     1      -7.511   5.300  64.374  1.00  0.00    -0.066 C  
HETATM   16  C   UNL     1      -6.455   5.037  65.523  1.00  0.00    -0.036 C  
HETATM   17  C   UNL     1      -9.459  10.284  65.490  1.00  0.00    -0.223 C  
HETATM   18  C   UNL     1      -9.204   8.980  64.677  1.00  0.00     0.078 C  
HETATM   19  C   UNL     1      -6.702   3.899  66.580  1.00  0.00    -0.046 C  
HETATM   20  C   UNL     1      -8.836  11.474  64.749  1.00  0.00     0.333 C  
HETATM   21  H   UNL     1      -8.164   3.121  65.560  1.00  0.00     0.000 HD 
HETATM   22  O   UNL     1     -10.891  10.571  65.230  1.00  0.00    -0.053 OA 
HETATM   23  C   UNL     1      -7.835   8.759  63.951  1.00  0.00    -0.141 C  
HETATM   24  H   UNL     1      -5.500   6.109  66.852  1.00  0.00     0.000 HD 
HETATM   25  N   UNL     1      -6.972   6.382  63.507  1.00  0.00    -0.045 NA 
HETATM   26  C   UNL     1      -6.601   8.868  64.835  1.00  0.00    -0.069 C  
HETATM   27  H   UNL     1     -10.911  10.593  64.280  1.00  0.00     0.000 HD 
HETATM   28  C   UNL     1      -5.802   2.701  66.220  1.00  0.00    -0.023 C  
HETATM   29  C   UNL     1      -7.800   7.492  63.031  1.00  0.00    -0.133 C  
HETATM   30  O   UNL     1      -8.032   3.356  66.471  1.00  0.00    -0.083 OA 
HETATM   31  O   UNL     1      -6.134   6.267  66.162  1.00  0.00    -0.031 OA 
BRANCH   9  32
HETATM   32  O   UNL     1     -10.786   8.448  69.654  1.00  0.00    -0.232 OA 
BRANCH  32  33
HETATM   33  C   UNL     1     -10.313   8.382  70.996  1.00  0.00    -0.198 C  
HETATM   34  O   UNL     1     -13.278   6.068  72.962  1.00  0.00     0.305 OA 
HETATM   35  C   UNL     1     -12.144   6.888  72.675  1.00  0.00     0.136 C  
HETATM   36  H   UNL     1     -13.036   5.190  73.232  1.00  0.00     0.000 HD 
HETATM   37  C   UNL     1     -12.539   8.322  72.233  1.00  0.00    -0.311 C  
HETATM   38  O   UNL     1     -10.051   7.032  71.401  1.00  0.00    -0.189 OA 
HETATM   39  C   UNL     1     -10.731   4.871  72.101  1.00  0.00    -0.193 C  
HETATM   40  C   UNL     1     -11.214   6.242  71.625  1.00  0.00    -0.285 C  
HETATM   41  C   UNL     1     -11.215   9.084  72.013  1.00  0.00    -0.379 C  
HETATM   42  C   UNL     1     -13.336   9.076  73.304  1.00  0.00     1.015 C  
BRANCH  37  43
HETATM   43  O   UNL     1     -13.233   8.352  70.973  1.00  0.00    -0.071 OA 
HETATM   44  C   UNL     1     -13.661   9.601  70.462  1.00  0.00     0.373 C  
ENDBRANCH  37  43
ENDBRANCH  32  33
ENDBRANCH   9  32
BRANCH  13  45
HETATM   45  O   UNL     1      -9.419  11.589  67.701  1.00  0.00    -0.163 OA 
BRANCH  45  46
HETATM   46  C   UNL     1     -10.498  12.499  67.437  1.00  0.00    -0.219 C  
HETATM   47  C   UNL     1     -10.627  15.358  65.180  1.00  0.00    -0.458 C  
HETATM   48  C   UNL     1     -12.208  14.156  68.536  1.00  0.00    -0.169 C  
HETATM   49  C   UNL     1     -11.227  12.976  68.691  1.00  0.00    -0.277 C  
HETATM   50  C   UNL     1     -11.654  15.143  67.487  1.00  0.00    -0.268 C  
HETATM   51  H   UNL     1     -12.338  12.143  70.049  1.00  0.00     0.000 HD 
HETATM   52  O   UNL     1     -11.884  11.846  69.269  1.00  0.00    -0.296 OA 
HETATM   53  O   UNL     1     -10.017  13.598  66.666  1.00  0.00    -0.267 OA 
HETATM   54  C   UNL     1     -11.121  14.412  66.255  1.00  0.00    -0.331 C  
BRANCH  48  55
HETATM   55  N   UNL     1     -12.434  14.841  69.856  1.00  0.00    -0.280 NA 
HETATM   56  C   UNL     1     -13.390  14.142  70.713  1.00  0.00    -0.072 C  
HETATM   57  C   UNL     1     -11.233  15.173  70.614  1.00  0.00    -0.287 C  
ENDBRANCH  48  55
ENDBRANCH  45  46
ENDBRANCH  13  45
ENDBRANCH   2   3
TORSDOF 7
ENDMDL
MODEL       46
REMARK 921   NORMALIZED FREE ENERGY PREDICTED BY IDOCK:    2.74 KCAL/MOL
REMARK 922        TOTAL FREE ENERGY PREDICTED BY IDOCK:    1.28 KCAL/MOL
REMARK 923 INTER-LIGAND FREE ENERGY PREDICTED BY IDOCK:    0.01 KCAL/MOL
REMARK 924 INTRA-LIGAND FREE ENERGY PREDICTED BY IDOCK:    1.27 KCAL/MOL
REMARK 927      BINDING AFFINITY PREDICTED BY RF-SCORE:    0.00 PKD
ROOT
HETATM    1  C   UNL     1      -7.777  17.106  69.393  1.00  0.00     0.169 C  
HETATM    2  C   UNL     1      -7.277  16.156  68.314  1.00  0.00    -0.136 C  
ENDROOT
BRANCH   2   3
HETATM    3  C   UNL     1      -8.280  15.932  67.152  1.00  0.00    -0.203 C  
HETATM    4  O   UNL     1      -8.360  14.590  66.546  1.00  0.00     0.001 OA 
HETATM    5  C   UNL     1      -8.167  13.444  67.234  1.00  0.00    -0.154 C  
HETATM    6  C   UNL     1      -8.360  12.182  66.371  1.00  0.00     0.102 C  
HETATM    7  O   UNL     1      -7.818  13.411  68.401  1.00  0.00    -0.131 OA 
HETATM    8  C   UNL     1      -8.941  12.530  64.993  1.00  0.00     0.990 C  
HETATM    9  C   UNL     1      -9.120  10.942  67.048  1.00  0.00    -0.149 C  
HETATM   10  C   UNL     1     -12.857  16.292  70.754  1.00  0.00     1.164 C  
HETATM   11  C   UNL     1      -8.965  10.869  68.635  1.00  0.00    -0.162 C  
HETATM   12  C   UNL     1     -12.081  14.213  67.695  1.00  0.00    -0.337 C  
HETATM   13  C   UNL     1      -9.933   9.843  69.437  1.00  0.00    -0.212 C  
HETATM   14  C   UNL     1      -7.445  10.662  68.828  1.00  0.00    -0.104 C  
HETATM   15  C   UNL     1     -11.946  15.418  68.634  1.00  0.00    -0.216 C  
HETATM   16  C   UNL     1     -10.470  15.984  68.689  1.00  0.00    -0.251 C  
HETATM   17  C   UNL     1     -11.404  10.181  70.106  1.00  0.00    -0.303 C  
HETATM   18  C   UNL     1     -12.124  11.520  69.766  1.00  0.00    -0.374 C  
HETATM   19  C   UNL     1      -9.752  16.453  67.371  1.00  0.00    -0.238 C  
HETATM   20  C   UNL     1     -11.665   9.824  71.575  1.00  0.00    -0.450 C  
HETATM   21  H   UNL     1     -11.395  16.406  66.331  1.00  0.00     0.000 HD 
HETATM   22  O   UNL     1     -12.266   9.160  69.461  1.00  0.00     0.284 OA 
HETATM   23  C   UNL     1     -12.157  12.685  70.810  1.00  0.00    -0.239 C  
HETATM   24  H   UNL     1      -8.760  15.430  69.460  1.00  0.00     0.000 HD 
HETATM   25  N   UNL     1     -12.367  15.122  70.030  1.00  0.00    -0.329 NA 
HETATM   26  C   UNL     1     -10.798  13.138  71.327  1.00  0.00     4.400 C  
HETATM   27  H   UNL     1     -13.113   9.355  69.846  1.00  0.00     0.000 HD 
HETATM   28  C   UNL     1      -9.765  17.994  67.335  1.00  0.00    -0.296 C  
HETATM   29  C   UNL     1     -13.068  13.889  70.394  1.00  0.00     0.099 C  
HETATM   30  O   UNL     1     -10.509  16.092  66.199  1.00  0.00    -0.308 OA 
HETATM   31  O   UNL     1      -9.647  15.089  69.427  1.00  0.00    -0.202 OA 
BRANCH   9  32
HETATM   32  O   UNL     1      -8.501   9.800  66.378  1.00  0.00    -0.122 OA 
BRANCH  32  33
HETATM   33  C   UNL     1      -9.255   9.040  65.439  1.00  0.00    -0.176 C  
HETATM   34  O   UNL     1      -8.397   5.027  66.518  1.00  0.00    -0.108 OA 
HETATM   35  C   UNL     1      -8.872   6.197  65.849  1.00  0.00    -0.143 C  
HETATM   36  H   UNL     1      -9.098   4.525  66.918  1.00  0.00     0.000 HD 
HETATM   37  C   UNL     1      -7.728   7.017  65.196  1.00  0.00    -0.113 C  
HETATM   38  O   UNL     1     -10.237   8.221  66.086  1.00  0.00    -0.097 OA 
HETATM   39  C   UNL     1     -10.904   6.326  67.346  1.00  0.00    -0.448 C  
HETATM   40  C   UNL     1      -9.710   7.097  66.782  1.00  0.00    -0.192 C  
HETATM   41  C   UNL     1      -8.405   8.206  64.481  1.00  0.00    -0.067 C  
HETATM   42  C   UNL     1      -6.952   6.221  64.140  1.00  0.00    -0.044 C  
BRANCH  37  43
HETATM   43  O   UNL     1      -6.825   7.591  66.159  1.00  0.00    -0.058 OA 
HETATM   44  C   UNL     1      -5.434   7.532  65.906  1.00  0.00    -0.029 C  
ENDBRANCH  37  43
ENDBRANCH  32  33
ENDBRANCH   9  32
BRANCH  13  45
HETATM   45  O   UNL     1      -9.315   8.690  70.073  1.00  0.00    -0.156 OA 
BRANCH  45  46
HETATM   46  C   UNL     1      -8.748   8.792  71.389  1.00  0.00    -0.214 C  
HETATM   47  C   UNL     1      -5.410   9.842  72.408  1.00  0.00     0.031 C  
HETATM   48  C   UNL     1      -8.274   7.486  73.613  1.00  0.00    -0.149 C  
HETATM   49  C   UNL     1      -9.060   7.599  72.291  1.00  0.00    -0.140 C  
HETATM   50  C   UNL     1      -6.833   7.990  73.393  1.00  0.00    -0.120 C  
HETATM   51  H   UNL     1     -10.661   6.854  73.099  1.00  0.00     0.000 HD 
HETATM   52  O   UNL     1     -10.467   7.596  72.538  1.00  0.00    -0.224 OA 
HETATM   53  O   UNL     1      -7.344   9.013  71.288  1.00  0.00    -0.140 OA 
HETATM   54  C   UNL     1      -6.809   9.289  72.587  1.00  0.00     0.608 C  
BRANCH  48  55
HETATM   55  N   UNL     1      -8.281   6.069  74.119  1.00  0.00    -0.106 NA 
HETATM   56  C   UNL     1      -9.159   5.186  73.355  1.00  0.00    -0.124 C  
HETATM   57  C   UNL     1      -6.971   5.449  74.289  1.00  0.00    -0.078 C  
ENDBRANCH  48  55
ENDBRANCH  45  46
ENDBRANCH  13  45
ENDBRANCH   2   3
TORSDOF 7
ENDMDL
MODEL       47
REMARK 921   NORMALIZED FREE ENERGY PREDICTED BY IDOCK:    3.34 KCAL/MOL
REMARK 922        TOTAL FREE ENERGY PREDICTED BY IDOCK:    2.13 KCAL/MOL
REMARK 923 INTER-LIGAND FREE ENERGY PREDICTED BY IDOCK:    1.53 KCAL/MOL
REMARK 924 INTRA-LIGAND FREE ENERGY PREDICTED BY IDOCK:    0.60 KCAL/MOL
REMARK 927      BINDING AFFINITY PREDICTED BY RF-SCORE:    0.00 PKD
ROOT
HETATM    1  C   UNL     1      -7.261   4.241  69.402  1.00  0.00    -0.051 C  
HETATM    2  C   UNL     1      -6.536   5.577  69.311  1.00  0.00    -0.047 C  
ENDROOT
BRANCH   2   3
HETATM    3  C   UNL     1      -6.289   6.260  70.682  1.00  0.00    -0.040 C  
HETATM    4  O   UNL     1      -5.980   7.701  70.699  1.00  0.00    -0.030 OA 
HETATM    5  C   UNL     1      -6.481   8.587  69.810  1.00  0.00    -0.035 C  
HETATM    6  C   UNL     1      -6.038  10.036  70.088  1.00  0.00    -0.070 C  
HETATM    7  O   UNL     1      -7.165   8.266  68.855  1.00  0.00    -0.074 OA 
HETATM    8  C   UNL     1      -5.313  10.152  71.436  1.00  0.00    -0.068 C  
HETATM    9  C   UNL     1      -7.140  11.188  69.898  1.00  0.00     0.086 C  
HETATM   10  C   UNL     1     -11.927   5.857  72.133  1.00  0.00    -0.130 C  
HETATM   11  C   UNL     1      -8.273  10.836  68.830  1.00  0.00    -0.149 C  
HETATM   12  C   UNL     1      -9.243   8.452  72.723  1.00  0.00    -0.311 C  
HETATM   13  C   UNL     1      -9.585  11.790  68.788  1.00  0.00    -0.042 C  
HETATM   14  C   UNL     1      -7.481  10.709  67.509  1.00  0.00    -0.093 C  
HETATM   15  C   UNL     1      -9.786   7.049  72.429  1.00  0.00    -0.153 C  
HETATM   16  C   UNL     1      -8.853   6.228  71.450  1.00  0.00    -0.139 C  
HETATM   17  C   UNL     1     -11.002  11.570  69.607  1.00  0.00    -0.064 C  
HETATM   18  C   UNL     1     -11.085  10.510  70.746  1.00  0.00    -0.065 C  
HETATM   19  C   UNL     1      -7.344   5.977  71.819  1.00  0.00    -0.093 C  
HETATM   20  C   UNL     1     -12.329  11.594  68.838  1.00  0.00     0.095 C  
HETATM   21  H   UNL     1      -7.581   6.578  73.653  1.00  0.00     0.000 HD 
HETATM   22  O   UNL     1     -11.129  12.858  70.332  1.00  0.00    -0.019 OA 
HETATM   23  C   UNL     1     -11.819   9.149  70.504  1.00  0.00    -0.137 C  
HETATM   24  H   UNL     1      -8.414   6.254  69.543  1.00  0.00     0.000 HD 
HETATM   25  N   UNL     1     -11.153   7.061  71.842  1.00  0.00    -0.237 NA 
HETATM   26  C   UNL     1     -11.325   8.344  69.311  1.00  0.00     0.421 C  
HETATM   27  H   UNL     1     -11.945  12.731  70.803  1.00  0.00     0.000 HD 
HETATM   28  C   UNL     1      -7.201   4.522  72.306  1.00  0.00    -0.071 C  
HETATM   29  C   UNL     1     -11.974   8.272  71.792  1.00  0.00    -0.316 C  
HETATM   30  O   UNL     1      -6.945   6.749  72.968  1.00  0.00    -0.074 OA 
HETATM   31  O   UNL     1      -8.975   6.747  70.131  1.00  0.00    -0.147 OA 
BRANCH   9  32
HETATM   32  O   UNL     1      -6.324  12.327  69.484  1.00  0.00    -0.114 OA 
BRANCH  32  33
HETATM   33  C   UNL     1      -6.100  13.400  70.394  1.00  0.00    -0.077 C  
HETATM   34  O   UNL     1      -8.159  16.647  68.599  1.00  0.00    -0.214 OA 
HETATM   35  C   UNL     1      -7.345  15.843  69.454  1.00  0.00    -0.217 C  
HETATM   36  H   UNL     1      -8.952  16.949  69.026  1.00  0.00     0.000 HD 
HETATM   37  C   UNL     1      -6.050  15.349  68.756  1.00  0.00    -0.098 C  
HETATM   38  O   UNL     1      -7.327  13.893  70.945  1.00  0.00     1.327 OA 
HETATM   39  C   UNL     1      -9.348  15.129  70.821  1.00  0.00     1.591 C  
HETATM   40  C   UNL     1      -8.127  14.646  70.038  1.00  0.00     0.593 C  
HETATM   41  C   UNL     1      -5.268  14.547  69.818  1.00  0.00    -0.092 C  
HETATM   42  C   UNL     1      -5.150  16.500  68.290  1.00  0.00    -0.105 C  
BRANCH  37  43
HETATM   43  O   UNL     1      -6.305  14.437  67.672  1.00  0.00    -0.217 OA 
HETATM   44  C   UNL     1      -5.205  13.897  66.966  1.00  0.00     1.174 C  
ENDBRANCH  37  43
ENDBRANCH  32  33
ENDBRANCH   9  32
BRANCH  13  45
HETATM   45  O   UNL     1      -9.779  12.618  67.607  1.00  0.00    -0.189 OA 
BRANCH  45  46
HETATM   46  C   UNL     1     -10.590  12.160  66.514  1.00  0.00    -0.237 C  
HETATM   47  C   UNL     1      -9.707  10.007  63.707  1.00  0.00    -0.065 C  
HETATM   48  C   UNL     1     -12.153  12.926  64.552  1.00  0.00    -0.413 C  
HETATM   49  C   UNL     1     -11.464  13.249  65.893  1.00  0.00    -0.332 C  
HETATM   50  C   UNL     1     -11.218  12.043  63.699  1.00  0.00    -0.528 C  
HETATM   51  H   UNL     1     -12.970  14.322  66.487  1.00  0.00     0.000 HD 
HETATM   52  O   UNL     1     -12.426  13.645  66.873  1.00  0.00    -0.320 OA 
HETATM   53  O   UNL     1      -9.762  11.538  65.533  1.00  0.00    -0.220 OA 
HETATM   54  C   UNL     1     -10.583  10.929  64.532  1.00  0.00    -0.265 C  
BRANCH  48  55
HETATM   55  N   UNL     1     -12.520  14.189  63.822  1.00  0.00    -0.806 NA 
HETATM   56  C   UNL     1     -11.640  15.313  64.133  1.00  0.00    -0.067 C  
HETATM   57  C   UNL     1     -12.681  14.064  62.377  1.00  0.00     3.473 C  
ENDBRANCH  48  55
ENDBRANCH  45  46
ENDBRANCH  13  45
ENDBRANCH   2   3
TORSDOF 7
ENDMDL
MODEL       48
REMARK 921   NORMALIZED FREE ENERGY PREDICTED BY IDOCK:    3.52 KCAL/MOL
REMARK 922        TOTAL FREE ENERGY PREDICTED BY IDOCK:    2.38 KCAL/MOL
REMARK 923 INTER-LIGAND FREE ENERGY PREDICTED BY IDOCK:   -4.61 KCAL/MOL
REMARK 924 INTRA-LIGAND FREE ENERGY PREDICTED BY IDOCK:    6.98 KCAL/MOL
REMARK 927      BINDING AFFINITY PREDICTED BY RF-SCORE:    0.00 PKD
ROOT
HETATM    1  C   UNL     1      -7.428   4.466  68.863  1.00  0.00    -0.056 C  
HETATM    2  C   UNL     1      -6.797   5.792  68.462  1.00  0.00    -0.063 C  
ENDROOT
BRANCH   2   3
HETATM    3  C   UNL     1      -6.235   6.613  69.653  1.00  0.00    -0.041 C  
HETATM    4  O   UNL     1      -6.440   8.073  69.653  1.00  0.00    -0.036 OA 
HETATM    5  C   UNL     1      -7.528   8.679  69.129  1.00  0.00    -0.083 C  
HETATM    6  C   UNL     1      -7.511  10.209  69.309  1.00  0.00    -0.111 C  
HETATM    7  O   UNL     1      -8.402   8.084  68.526  1.00  0.00    -0.125 OA 
HETATM    8  C   UNL     1      -6.369  10.652  70.234  1.00  0.00    -0.141 C  
HETATM    9  C   UNL     1      -8.901  10.916  69.690  1.00  0.00     0.428 C  
HETATM   10  C   UNL     1     -10.261   4.477  73.297  1.00  0.00    -0.169 C  
HETATM   11  C   UNL     1     -10.194  10.136  69.172  1.00  0.00    -0.229 C  
HETATM   12  C   UNL     1      -8.594   7.846  72.911  1.00  0.00    -0.236 C  
HETATM   13  C   UNL     1     -11.633  10.598  69.758  1.00  0.00    -0.309 C  
HETATM   14  C   UNL     1     -10.037  10.184  67.634  1.00  0.00    -0.231 C  
HETATM   15  C   UNL     1      -8.717   6.326  72.761  1.00  0.00    -0.126 C  
HETATM   16  C   UNL     1      -8.070   5.792  71.419  1.00  0.00    -0.114 C  
HETATM   17  C   UNL     1     -12.416   9.981  71.076  1.00  0.00    -0.362 C  
HETATM   18  C   UNL     1     -11.659   9.037  72.057  1.00  0.00    -0.413 C  
HETATM   19  C   UNL     1      -6.557   6.079  71.101  1.00  0.00    -0.050 C  
HETATM   20  C   UNL     1     -13.869   9.511  70.939  1.00  0.00     0.094 C  
HETATM   21  H   UNL     1      -6.182   6.696  72.907  1.00  0.00     0.000 HD 
HETATM   22  O   UNL     1     -12.641  11.203  71.887  1.00  0.00    -0.266 OA 
HETATM   23  C   UNL     1     -11.935   7.496  72.038  1.00  0.00    -0.330 C  
HETATM   24  H   UNL     1      -8.510   5.826  69.513  1.00  0.00     0.000 HD 
HETATM   25  N   UNL     1     -10.124   5.845  72.804  1.00  0.00    -0.180 NA 
HETATM   26  C   UNL     1     -11.755   6.817  70.688  1.00  0.00    -0.440 C  
HETATM   27  H   UNL     1     -13.090  10.847  72.645  1.00  0.00     0.000 HD 
HETATM   28  C   UNL     1      -5.753   4.791  71.367  1.00  0.00    -0.012 C  
HETATM   29  C   UNL     1     -11.237   6.710  73.199  1.00  0.00    -0.086 C  
HETATM   30  O   UNL     1      -5.989   7.018  72.035  1.00  0.00    -0.038 OA 
HETATM   31  O   UNL     1      -8.899   6.147  70.319  1.00  0.00    -0.145 OA 
BRANCH   9  32
HETATM   32  O   UNL     1      -8.758  12.229  69.064  1.00  0.00     0.193 OA 
BRANCH  32  33
HETATM   33  C   UNL     1      -7.566  12.544  68.351  1.00  0.00    -0.129 C  
HETATM   34  O   UNL     1      -6.479  16.342  69.898  1.00  0.00    -0.192 OA 
HETATM   35  C   UNL     1      -6.541  15.141  69.127  1.00  0.00    -0.128 C  
HETATM   36  H   UNL     1      -5.709  16.382  70.452  1.00  0.00     0.000 HD 
HETATM   37  C   UNL     1      -7.799  15.076  68.221  1.00  0.00    -0.119 C  
HETATM   38  O   UNL     1      -6.445  12.691  69.231  1.00  0.00    -0.101 OA 
HETATM   39  C   UNL     1      -5.164  13.882  70.832  1.00  0.00    -0.130 C  
HETATM   40  C   UNL     1      -6.455  13.880  70.014  1.00  0.00    -0.054 C  
HETATM   41  C   UNL     1      -7.690  13.757  67.428  1.00  0.00    -0.158 C  
HETATM   42  C   UNL     1      -7.861  16.224  67.206  1.00  0.00    -0.203 C  
BRANCH  37  43
HETATM   43  O   UNL     1      -9.028  14.996  68.967  1.00  0.00    -0.199 OA 
HETATM   44  C   UNL     1      -9.371  16.064  69.829  1.00  0.00     0.093 C  
ENDBRANCH  37  43
ENDBRANCH  32  33
ENDBRANCH   9  32
BRANCH  13  45
HETATM   45  O   UNL     1     -12.566  11.230  68.837  1.00  0.00    -0.327 OA 
BRANCH  45  46
HETATM   46  C   UNL     1     -12.805  12.645  68.889  1.00  0.00     1.528 C  
HETATM   47  C   UNL     1     -11.338  15.324  66.899  1.00  0.00    -0.209 C  
HETATM   48  C   UNL     1     -12.831  14.748  70.456  1.00  0.00    -0.322 C  
HETATM   49  C   UNL     1     -12.857  13.213  70.306  1.00  0.00     0.198 C  
HETATM   50  C   UNL     1     -11.919  15.350  69.366  1.00  0.00    -0.351 C  
HETATM   51  H   UNL     1     -14.038  13.015  71.835  1.00  0.00     0.000 HD 
HETATM   52  O   UNL     1     -14.005  12.662  70.953  1.00  0.00     1.364 OA 
HETATM   53  O   UNL     1     -11.835  13.322  68.093  1.00  0.00    -0.335 OA 
HETATM   54  C   UNL     1     -12.176  14.709  68.002  1.00  0.00    -0.054 C  
BRANCH  48  55
HETATM   55  N   UNL     1     -12.365  15.143  71.831  1.00  0.00    -0.327 NA 
HETATM   56  C   UNL     1     -11.429  16.265  71.824  1.00  0.00    -0.234 C  
HETATM   57  C   UNL     1     -13.416  15.373  72.815  1.00  0.00    -0.538 C  
ENDBRANCH  48  55
ENDBRANCH  45  46
ENDBRANCH  13  45
ENDBRANCH   2   3
TORSDOF 7
ENDMDL
MODEL       49
REMARK 921   NORMALIZED FREE ENERGY PREDICTED BY IDOCK:    4.05 KCAL/MOL
REMARK 922        TOTAL FREE ENERGY PREDICTED BY IDOCK:    3.13 KCAL/MOL
REMARK 923 INTER-LIGAND FREE ENERGY PREDICTED BY IDOCK:    0.62 KCAL/MOL
REMARK 924 INTRA-LIGAND FREE ENERGY PREDICTED BY IDOCK:    2.51 KCAL/MOL
REMARK 927      BINDING AFFINITY PREDICTED BY RF-SCORE:    0.00 PKD
ROOT
HETATM    1  C   UNL     1     -11.883   5.400  71.044  1.00  0.00     1.281 C  
HETATM    2  C   UNL     1     -11.522   6.711  70.362  1.00  0.00    -0.444 C  
ENDROOT
BRANCH   2   3
HETATM    3  C   UNL     1     -11.025   6.551  68.901  1.00  0.00    -0.314 C  
HETATM    4  O   UNL     1     -11.004   7.744  68.034  1.00  0.00    -0.034 OA 
HETATM    5  C   UNL     1     -10.760   8.994  68.485  1.00  0.00    -0.095 C  
HETATM    6  C   UNL     1     -10.747  10.048  67.361  1.00  0.00    -0.336 C  
HETATM    7  O   UNL     1     -10.623   9.268  69.663  1.00  0.00    -0.218 OA 
HETATM    8  C   UNL     1     -10.796   9.389  65.975  1.00  0.00     0.829 C  
HETATM    9  C   UNL     1      -9.623  11.191  67.443  1.00  0.00    -0.168 C  
HETATM   10  C   UNL     1      -5.507   5.789  70.637  1.00  0.00    -0.013 C  
HETATM   11  C   UNL     1      -9.141  11.526  68.928  1.00  0.00     0.015 C  
HETATM   12  C   UNL     1      -7.115   7.511  67.682  1.00  0.00    -0.085 C  
HETATM   13  C   UNL     1      -7.809  12.437  69.095  1.00  0.00     0.351 C  
HETATM   14  C   UNL     1     -10.425  12.068  69.597  1.00  0.00     0.545 C  
HETATM   15  C   UNL     1      -7.039   6.511  68.842  1.00  0.00    -0.082 C  
HETATM   16  C   UNL     1      -8.440   6.276  69.536  1.00  0.00    -0.129 C  
HETATM   17  C   UNL     1      -6.254  11.905  69.256  1.00  0.00    -0.094 C  
HETATM   18  C   UNL     1      -5.910  10.411  68.977  1.00  0.00    -0.040 C  
HETATM   19  C   UNL     1      -9.669   5.776  68.690  1.00  0.00    -0.131 C  
HETATM   20  C   UNL     1      -5.399  12.412  70.425  1.00  0.00    -0.131 C  
HETATM   21  H   UNL     1      -8.565   5.330  67.152  1.00  0.00     0.000 HD 
HETATM   22  O   UNL     1      -5.578  12.621  68.146  1.00  0.00    -0.062 OA 
HETATM   23  C   UNL     1      -5.635   9.431  70.165  1.00  0.00    -0.031 C  
HETATM   24  H   UNL     1      -9.627   7.277  70.726  1.00  0.00     0.000 HD 
HETATM   25  N   UNL     1      -6.075   6.915  69.901  1.00  0.00    -0.023 NA 
HETATM   26  C   UNL     1      -6.735   9.349  71.213  1.00  0.00    -0.008 C  
HETATM   27  H   UNL     1      -4.684  12.314  68.238  1.00  0.00     0.000 HD 
HETATM   28  C   UNL     1      -9.880   4.277  68.982  1.00  0.00    -0.148 C  
HETATM   29  C   UNL     1      -5.128   8.018  69.721  1.00  0.00    -0.023 C  
HETATM   30  O   UNL     1      -9.383   5.798  67.278  1.00  0.00    -0.113 OA 
HETATM   31  O   UNL     1      -8.785   7.419  70.309  1.00  0.00    -0.143 OA 
BRANCH   9  32
HETATM   32  O   UNL     1     -10.292  12.324  66.808  1.00  0.00    -0.215 OA 
BRANCH  32  33
HETATM   33  C   UNL     1     -11.693  12.507  66.990  1.00  0.00    -0.367 C  
HETATM   34  O   UNL     1     -12.426  16.277  65.186  1.00  0.00     1.323 OA 
HETATM   35  C   UNL     1     -12.564  15.049  65.902  1.00  0.00     0.532 C  
HETATM   36  H   UNL     1     -12.913  16.282  64.370  1.00  0.00     0.000 HD 
HETATM   37  C   UNL     1     -11.768  15.041  67.234  1.00  0.00    -0.223 C  
HETATM   38  O   UNL     1     -12.381  12.607  65.737  1.00  0.00    -0.594 OA 
HETATM   39  C   UNL     1     -13.027  13.768  63.772  1.00  0.00     0.778 C  
HETATM   40  C   UNL     1     -12.172  13.830  65.038  1.00  0.00    -0.424 C  
HETATM   41  C   UNL     1     -12.059  13.680  67.900  1.00  0.00    -0.318 C  
HETATM   42  C   UNL     1     -12.221  16.139  68.204  1.00  0.00     0.828 C  
BRANCH  37  43
HETATM   43  O   UNL     1     -10.343  15.096  67.041  1.00  0.00    -0.262 OA 
HETATM   44  C   UNL     1      -9.780  16.254  66.453  1.00  0.00    -0.288 C  
ENDBRANCH  37  43
ENDBRANCH  32  33
ENDBRANCH   9  32
BRANCH  13  45
HETATM   45  O   UNL     1      -7.971  13.774  69.647  1.00  0.00     0.525 OA 
BRANCH  45  46
HETATM   46  C   UNL     1      -7.040  14.819  69.327  1.00  0.00    -0.154 C  
HETATM   47  C   UNL     1      -5.400  17.225  71.521  1.00  0.00     0.264 C  
HETATM   48  C   UNL     1      -6.645  16.940  67.836  1.00  0.00    -0.141 C  
HETATM   49  C   UNL     1      -7.425  15.635  68.094  1.00  0.00    -0.124 C  
HETATM   50  C   UNL     1      -6.309  17.607  69.185  1.00  0.00    -0.232 C  
HETATM   51  H   UNL     1      -7.590  15.276  66.193  1.00  0.00     0.000 HD 
HETATM   52  O   UNL     1      -7.351  14.769  66.960  1.00  0.00    -0.097 OA 
HETATM   53  O   UNL     1      -6.852  15.657  70.465  1.00  0.00     0.259 OA 
HETATM   54  C   UNL     1      -5.797  16.589  70.204  1.00  0.00    -0.171 C  
BRANCH  48  55
HETATM   55  N   UNL     1      -7.435  17.869  66.954  1.00  0.00    -0.192 NA 
HETATM   56  C   UNL     1      -7.621  19.197  67.534  1.00  0.00    -0.236 C  
HETATM   57  C   UNL     1      -6.970  17.984  65.576  1.00  0.00    -0.010 C  
ENDBRANCH  48  55
ENDBRANCH  45  46
ENDBRANCH  13  45
ENDBRANCH   2   3
TORSDOF 7
ENDMDL
MODEL       50
REMARK 921   NORMALIZED FREE ENERGY PREDICTED BY IDOCK:    4.43 KCAL/MOL
REMARK 922        TOTAL FREE ENERGY PREDICTED BY IDOCK:    3.67 KCAL/MOL
REMARK 923 INTER-LIGAND FREE ENERGY PREDICTED BY IDOCK:    1.36 KCAL/MOL
REMARK 924 INTRA-LIGAND FREE ENERGY PREDICTED BY IDOCK:    2.31 KCAL/MOL
REMARK 927      BINDING AFFINITY PREDICTED BY RF-SCORE:    0.00 PKD
ROOT
HETATM    1  C   UNL     1      -6.263   5.065  67.653  1.00  0.00    -0.039 C  
HETATM    2  C   UNL     1      -6.023   6.543  67.927  1.00  0.00    -0.020 C  
ENDROOT
BRANCH   2   3
HETATM    3  C   UNL     1      -6.120   6.935  69.424  1.00  0.00    -0.033 C  
HETATM    4  O   UNL     1      -5.874   8.340  69.797  1.00  0.00    -0.026 OA 
HETATM    5  C   UNL     1      -6.191   9.391  69.009  1.00  0.00    -0.042 C  
HETATM    6  C   UNL     1      -5.874  10.751  69.662  1.00  0.00    -0.052 C  
HETATM    7  O   UNL     1      -6.626   9.276  67.878  1.00  0.00    -0.062 OA 
HETATM    8  C   UNL     1      -5.480  10.585  71.137  1.00  0.00    -0.071 C  
HETATM    9  C   UNL     1      -6.943  11.929  69.454  1.00  0.00    -0.001 C  
HETATM   10  C   UNL     1     -11.922   6.313  69.428  1.00  0.00     0.807 C  
HETATM   11  C   UNL     1      -7.790  11.811  68.106  1.00  0.00    -0.135 C  
HETATM   12  C   UNL     1      -9.537   8.707  71.122  1.00  0.00    -0.281 C  
HETATM   13  C   UNL     1      -9.090  12.769  67.952  1.00  0.00    -0.204 C  
HETATM   14  C   UNL     1      -6.713  11.942  67.005  1.00  0.00    -0.119 C  
HETATM   15  C   UNL     1      -9.948   7.397  70.439  1.00  0.00    -0.188 C  
HETATM   16  C   UNL     1      -8.788   6.779  69.559  1.00  0.00    -0.139 C  
HETATM   17  C   UNL     1     -10.648  12.406  68.362  1.00  0.00    -0.236 C  
HETATM   18  C   UNL     1     -10.952  11.140  69.219  1.00  0.00    -0.300 C  
HETATM   19  C   UNL     1      -7.396   6.442  70.209  1.00  0.00    -0.089 C  
HETATM   20  C   UNL     1     -11.765  12.597  67.328  1.00  0.00    -0.435 C  
HETATM   21  H   UNL     1      -8.066   6.666  72.021  1.00  0.00     0.000 HD 
HETATM   22  O   UNL     1     -10.984  13.523  69.278  1.00  0.00    -0.372 OA 
HETATM   23  C   UNL     1     -11.562   9.863  68.551  1.00  0.00     0.207 C  
HETATM   24  H   UNL     1      -7.928   7.181  67.849  1.00  0.00     0.000 HD 
HETATM   25  N   UNL     1     -11.145   7.542  69.567  1.00  0.00    -0.117 NA 
HETATM   26  C   UNL     1     -10.781   9.308  67.368  1.00  0.00    -0.263 C  
HETATM   27  H   UNL     1     -11.880  13.313  69.514  1.00  0.00     0.000 HD 
HETATM   28  C   UNL     1      -7.316   4.917  70.419  1.00  0.00    -0.054 C  
HETATM   29  C   UNL     1     -11.976   8.748  69.569  1.00  0.00     1.176 C  
HETATM   30  O   UNL     1      -7.297   6.963  71.549  1.00  0.00    -0.079 OA 
HETATM   31  O   UNL     1      -8.625   7.553  68.377  1.00  0.00    -0.125 OA 
BRANCH   9  32
HETATM   32  O   UNL     1      -6.095  13.119  69.474  1.00  0.00    -0.100 OA 
BRANCH  32  33
HETATM   33  C   UNL     1      -6.214  14.051  70.544  1.00  0.00    -0.114 C  
HETATM   34  O   UNL     1      -8.121  17.380  68.730  1.00  0.00    -0.269 OA 
HETATM   35  C   UNL     1      -7.454  16.514  69.650  1.00  0.00     0.219 C  
HETATM   36  H   UNL     1      -9.021  17.554  68.978  1.00  0.00     0.000 HD 
HETATM   37  C   UNL     1      -5.984  16.229  69.245  1.00  0.00    -0.146 C  
HETATM   38  O   UNL     1      -7.584  14.364  70.825  1.00  0.00     1.082 OA 
HETATM   39  C   UNL     1      -9.637  15.454  70.357  1.00  0.00     0.556 C  
HETATM   40  C   UNL     1      -8.219  15.188  69.853  1.00  0.00     0.164 C  
HETATM   41  C   UNL     1      -5.398  15.330  70.354  1.00  0.00    -0.132 C  
HETATM   42  C   UNL     1      -5.128  17.500  69.178  1.00  0.00    -0.172 C  
BRANCH  37  43
HETATM   43  O   UNL     1      -5.870  15.480  68.021  1.00  0.00    -0.116 OA 
HETATM   44  C   UNL     1      -6.556  15.944  66.874  1.00  0.00     0.148 C  
ENDBRANCH  37  43
ENDBRANCH  32  33
ENDBRANCH   9  32
BRANCH  13  45
HETATM   45  O   UNL     1      -9.039  13.819  66.945  1.00  0.00    -0.239 OA 
BRANCH  45  46
HETATM   46  C   UNL     1     -10.246  14.375  66.402  1.00  0.00    -0.289 C  
HETATM   47  C   UNL     1     -11.939  13.637  63.259  1.00  0.00    -0.051 C  
HETATM   48  C   UNL     1     -11.457  16.607  65.741  1.00  0.00     0.807 C  
HETATM   49  C   UNL     1     -10.341  15.895  66.533  1.00  0.00    -0.300 C  
HETATM   50  C   UNL     1     -11.659  15.888  64.391  1.00  0.00    -0.234 C  
HETATM   51  H   UNL     1     -10.491  17.151  68.006  1.00  0.00     0.000 HD 
HETATM   52  O   UNL     1     -10.432  16.206  67.924  1.00  0.00    -0.272 OA 
HETATM   53  O   UNL     1     -10.395  13.961  65.046  1.00  0.00    -0.370 OA 
HETATM   54  C   UNL     1     -11.679  14.368  64.560  1.00  0.00    -0.419 C  
BRANCH  48  55
HETATM   55  N   UNL     1     -11.123  18.059  65.536  1.00  0.00    -0.083 NA 
HETATM   56  C   UNL     1     -11.568  18.914  66.634  1.00  0.00     1.461 C  
HETATM   57  C   UNL     1      -9.733  18.351  65.205  1.00  0.00     1.518 C  
ENDBRANCH  48  55
ENDBRANCH  45  46
ENDBRANCH  13  45
ENDBRANCH   2   3
TORSDOF 7
ENDMDL
MODEL       51
REMARK 921   NORMALIZED FREE ENERGY PREDICTED BY IDOCK:    5.56 KCAL/MOL
REMARK 922        TOTAL FREE ENERGY PREDICTED BY IDOCK:    5.26 KCAL/MOL
REMARK 923 INTER-LIGAND FREE ENERGY PREDICTED BY IDOCK:    1.95 KCAL/MOL
REMARK 924 INTRA-LIGAND FREE ENERGY PREDICTED BY IDOCK:    3.31 KCAL/MOL
REMARK 927      BINDING AFFINITY PREDICTED BY RF-SCORE:    0.00 PKD
ROOT
HETATM    1  C   UNL     1     -12.054  16.360  68.935  1.00  0.00     0.447 C  
HETATM    2  C   UNL     1     -10.729  16.724  69.590  1.00  0.00    -0.229 C  
ENDROOT
BRANCH   2   3
HETATM    3  C   UNL     1      -9.529  16.773  68.609  1.00  0.00    -0.255 C  
HETATM    4  O   UNL     1      -8.522  15.698  68.680  1.00  0.00    -0.159 OA 
HETATM    5  C   UNL     1      -8.811  14.421  69.014  1.00  0.00     0.009 C  
HETATM    6  C   UNL     1      -7.583  13.492  68.961  1.00  0.00     0.080 C  
HETATM    7  O   UNL     1      -9.915  14.055  69.375  1.00  0.00     0.097 OA 
HETATM    8  C   UNL     1      -6.374  14.197  68.329  1.00  0.00    -0.118 C  
HETATM    9  C   UNL     1      -7.804  12.021  68.358  1.00  0.00    -0.147 C  
HETATM   10  C   UNL     1     -12.924  15.429  64.057  1.00  0.00     1.212 C  
HETATM   11  C   UNL     1      -9.287  11.459  68.535  1.00  0.00    -0.180 C  
HETATM   12  C   UNL     1      -9.382  14.550  65.041  1.00  0.00     1.030 C  
HETATM   13  C   UNL     1      -9.689  10.126  67.702  1.00  0.00    -0.161 C  
HETATM   14  C   UNL     1      -9.447  11.375  70.071  1.00  0.00     1.840 C  
HETATM   15  C   UNL     1     -10.662  15.395  65.043  1.00  0.00    -0.438 C  
HETATM   16  C   UNL     1     -10.938  16.077  66.443  1.00  0.00    -0.070 C  
HETATM   17  C   UNL     1     -10.389  10.061  66.208  1.00  0.00    -0.165 C  
HETATM   18  C   UNL     1     -10.476  11.347  65.333  1.00  0.00    -0.336 C  
HETATM   19  C   UNL     1      -9.861  17.025  67.089  1.00  0.00    -0.269 C  
HETATM   20  C   UNL     1     -11.657   9.222  66.005  1.00  0.00     4.319 C  
HETATM   21  H   UNL     1      -8.815  17.128  65.452  1.00  0.00     0.000 HD 
HETATM   22  O   UNL     1      -9.426   9.211  65.465  1.00  0.00    -0.325 OA 
HETATM   23  C   UNL     1     -11.838  12.101  65.175  1.00  0.00    -0.356 C  
HETATM   24  H   UNL     1     -11.539  15.502  68.214  1.00  0.00     0.000 HD 
HETATM   25  N   UNL     1     -11.876  14.619  64.673  1.00  0.00    -0.441 NA 
HETATM   26  C   UNL     1     -12.511  12.515  66.476  1.00  0.00     0.491 C  
HETATM   27  H   UNL     1      -9.829   9.174  64.605  1.00  0.00     0.000 HD 
HETATM   28  C   UNL     1     -10.322  18.483  66.895  1.00  0.00    -0.431 C  
HETATM   29  C   UNL     1     -11.804  13.263  64.125  1.00  0.00    -0.443 C  
HETATM   30  O   UNL     1      -8.614  16.977  66.368  1.00  0.00    -0.245 OA 
HETATM   31  O   UNL     1     -11.373  15.092  67.373  1.00  0.00    -0.328 OA 
BRANCH   9  32
HETATM   32  O   UNL     1      -6.821  11.235  69.100  1.00  0.00    -0.089 OA 
BRANCH  32  33
HETATM   33  C   UNL     1      -5.616  10.826  68.458  1.00  0.00    -0.040 C  
HETATM   34  O   UNL     1      -6.851   7.546  66.066  1.00  0.00    -0.055 OA 
HETATM   35  C   UNL     1      -6.073   8.533  66.745  1.00  0.00    -0.054 C  
HETATM   36  H   UNL     1      -6.865   7.675  65.125  1.00  0.00     0.000 HD 
HETATM   37  C   UNL     1      -6.051   8.323  68.282  1.00  0.00    -0.046 C  
HETATM   38  O   UNL     1      -5.709  10.943  67.033  1.00  0.00    -0.048 OA 
HETATM   39  C   UNL     1      -6.459  10.220  64.902  1.00  0.00    -0.113 C  
HETATM   40  C   UNL     1      -6.536   9.967  66.408  1.00  0.00    -0.073 C  
HETATM   41  C   UNL     1      -5.139   9.429  68.854  1.00  0.00    -0.037 C  
HETATM   42  C   UNL     1      -5.453   6.971  68.690  1.00  0.00    -0.018 C  
BRANCH  37  43
HETATM   43  O   UNL     1      -7.340   8.510  68.896  1.00  0.00    -0.082 OA 
HETATM   44  C   UNL     1      -7.490   8.203  70.269  1.00  0.00    -0.067 C  
ENDBRANCH  37  43
ENDBRANCH  32  33
ENDBRANCH   9  32
BRANCH  13  45
HETATM   45  O   UNL     1      -9.938   8.908  68.457  1.00  0.00    -0.167 OA 
BRANCH  45  46
HETATM   46  C   UNL     1     -11.138   8.755  69.232  1.00  0.00     0.117 C  
HETATM   47  C   UNL     1     -13.137  11.279  70.941  1.00  0.00    -0.095 C  
HETATM   48  C   UNL     1     -12.217   7.503  71.269  1.00  0.00    -0.329 C  
HETATM   49  C   UNL     1     -11.100   7.581  70.208  1.00  0.00    -0.248 C  
HETATM   50  C   UNL     1     -12.587   8.931  71.722  1.00  0.00    -0.420 C  
HETATM   51  H   UNL     1     -11.027   5.647  70.045  1.00  0.00     0.000 HD 
HETATM   52  O   UNL     1     -11.050   6.378  69.438  1.00  0.00    -0.323 OA 
HETATM   53  O   UNL     1     -11.431   9.978  69.904  1.00  0.00    -0.244 OA 
HETATM   54  C   UNL     1     -12.713   9.883  70.532  1.00  0.00    -0.064 C  
BRANCH  48  55
HETATM   55  N   UNL     1     -11.786   6.659  72.437  1.00  0.00    -0.236 NA 
HETATM   56  C   UNL     1     -12.058   5.235  72.252  1.00  0.00     0.492 C  
HETATM   57  C   UNL     1     -10.413   6.852  72.889  1.00  0.00    -0.244 C  
ENDBRANCH  48  55
ENDBRANCH  45  46
ENDBRANCH  13  45
ENDBRANCH   2   3
TORSDOF 7
ENDMDL
MODEL       52
REMARK 921   NORMALIZED FREE ENERGY PREDICTED BY IDOCK:    5.64 KCAL/MOL
REMARK 922        TOTAL FREE ENERGY PREDICTED BY IDOCK:    5.37 KCAL/MOL
REMARK 923 INTER-LIGAND FREE ENERGY PREDICTED BY IDOCK:   -2.36 KCAL/MOL
REMARK 924 INTRA-LIGAND FREE ENERGY PREDICTED BY IDOCK:    7.73 KCAL/MOL
REMARK 927      BINDING AFFINITY PREDICTED BY RF-SCORE:    0.00 PKD
ROOT
HETATM    1  C   UNL     1      -6.180   5.989  69.364  1.00  0.00    -0.030 C  
HETATM    2  C   UNL     1      -6.296   4.720  68.532  1.00  0.00    -0.036 C  
ENDROOT
BRANCH   2   3
HETATM    3  C   UNL     1      -7.755   4.293  68.224  1.00  0.00    -0.075 C  
HETATM    4  O   UNL     1      -8.837   5.258  68.494  1.00  0.00    -0.097 OA 
HETATM    5  C   UNL     1      -8.698   6.596  68.371  1.00  0.00    -0.122 C  
HETATM    6  C   UNL     1      -9.999   7.368  68.664  1.00  0.00    -0.174 C  
HETATM    7  O   UNL     1      -7.639   7.140  68.113  1.00  0.00    -0.109 OA 
HETATM    8  C   UNL     1     -11.194   6.415  68.809  1.00  0.00    -0.358 C  
HETATM    9  C   UNL     1     -10.338   8.616  67.714  1.00  0.00    -0.242 C  
HETATM   10  C   UNL     1      -6.839   4.548  62.467  1.00  0.00    -0.031 C  
HETATM   11  C   UNL     1      -9.054   9.325  67.084  1.00  0.00    -0.149 C  
HETATM   12  C   UNL     1      -9.775   5.380  64.698  1.00  0.00     0.699 C  
HETATM   13  C   UNL     1      -9.298  10.391  65.886  1.00  0.00    -0.182 C  
HETATM   14  C   UNL     1      -8.305   9.858  68.328  1.00  0.00    -0.110 C  
HETATM   15  C   UNL     1      -8.465   4.679  64.320  1.00  0.00    -0.131 C  
HETATM   16  C   UNL     1      -7.515   4.452  65.564  1.00  0.00    -0.081 C  
HETATM   17  C   UNL     1      -9.293  10.082  64.264  1.00  0.00    -0.288 C  
HETATM   18  C   UNL     1      -9.315   8.611  63.752  1.00  0.00     1.273 C  
HETATM   19  C   UNL     1      -8.026   3.644  66.814  1.00  0.00    -0.091 C  
HETATM   20  C   UNL     1      -8.410  10.928  63.337  1.00  0.00     0.081 C  
HETATM   21  H   UNL     1      -9.603   2.991  65.881  1.00  0.00     0.000 HD 
HETATM   22  O   UNL     1     -10.621  10.602  63.857  1.00  0.00    -0.479 OA 
HETATM   23  C   UNL     1      -8.014   7.957  63.178  1.00  0.00    -0.130 C  
HETATM   24  H   UNL     1      -6.374   5.557  66.706  1.00  0.00     0.000 HD 
HETATM   25  N   UNL     1      -7.685   5.412  63.287  1.00  0.00    -0.074 NA 
HETATM   26  C   UNL     1      -6.804   7.990  64.100  1.00  0.00    -0.066 C  
HETATM   27  H   UNL     1     -10.618  10.424  62.924  1.00  0.00     0.000 HD 
HETATM   28  C   UNL     1      -7.404   2.235  66.766  1.00  0.00    -0.061 C  
HETATM   29  C   UNL     1      -8.240   6.544  62.541  1.00  0.00    -0.040 C  
HETATM   30  O   UNL     1      -9.440   3.382  66.731  1.00  0.00    -0.191 OA 
HETATM   31  O   UNL     1      -6.944   5.694  65.958  1.00  0.00    -0.060 OA 
BRANCH   9  32
HETATM   32  O   UNL     1     -11.070   9.499  68.620  1.00  0.00    -0.121 OA 
BRANCH  32  33
HETATM   33  C   UNL     1     -10.675   9.593  69.985  1.00  0.00    -0.259 C  
HETATM   34  O   UNL     1     -14.358   9.402  72.082  1.00  0.00    -0.208 OA 
HETATM   35  C   UNL     1     -12.977   9.542  71.745  1.00  0.00    -0.412 C  
HETATM   36  H   UNL     1     -14.535   8.612  72.580  1.00  0.00     0.000 HD 
HETATM   37  C   UNL     1     -12.689  10.831  70.932  1.00  0.00    -0.384 C  
HETATM   38  O   UNL     1     -11.045   8.424  70.726  1.00  0.00    -0.249 OA 
HETATM   39  C   UNL     1     -12.620   7.041  71.834  1.00  0.00    -0.331 C  
HETATM   40  C   UNL     1     -12.438   8.305  70.994  1.00  0.00    -0.093 C  
HETATM   41  C   UNL     1     -11.164  10.857  70.693  1.00  0.00     0.058 C  
HETATM   42  C   UNL     1     -13.060  12.110  71.693  1.00  0.00    -0.413 C  
BRANCH  37  43
HETATM   43  O   UNL     1     -13.298  10.825  69.628  1.00  0.00     0.174 OA 
HETATM   44  C   UNL     1     -13.018  11.893  68.742  1.00  0.00     2.389 C  
ENDBRANCH  37  43
ENDBRANCH  32  33
ENDBRANCH   9  32
BRANCH  13  45
HETATM   45  O   UNL     1      -9.010  11.791  66.159  1.00  0.00    -0.201 OA 
BRANCH  45  46
HETATM   46  C   UNL     1      -7.751  12.186  66.724  1.00  0.00     0.029 C  
HETATM   47  C   UNL     1      -5.165  10.151  68.292  1.00  0.00    -0.035 C  
HETATM   48  C   UNL     1      -6.599  13.774  68.465  1.00  0.00    -0.099 C  
HETATM   49  C   UNL     1      -7.830  13.435  67.600  1.00  0.00    -0.173 C  
HETATM   50  C   UNL     1      -5.953  12.465  68.965  1.00  0.00    -0.071 C  
HETATM   51  H   UNL     1      -8.221  15.314  67.301  1.00  0.00     0.000 HD 
HETATM   52  O   UNL     1      -8.172  14.537  66.757  1.00  0.00    -0.120 OA 
HETATM   53  O   UNL     1      -7.181  11.090  67.435  1.00  0.00    -0.094 OA 
HETATM   54  C   UNL     1      -5.852  11.426  67.847  1.00  0.00    -0.044 C  
BRANCH  48  55
HETATM   55  N   UNL     1      -6.983  14.662  69.617  1.00  0.00    -0.162 NA 
HETATM   56  C   UNL     1      -6.302  14.319  70.864  1.00  0.00     0.023 C  
HETATM   57  C   UNL     1      -6.888  16.097  69.372  1.00  0.00    -0.214 C  
ENDBRANCH  48  55
ENDBRANCH  45  46
ENDBRANCH  13  45
ENDBRANCH   2   3
TORSDOF 7
ENDMDL
MODEL       53
REMARK 921   NORMALIZED FREE ENERGY PREDICTED BY IDOCK:    6.50 KCAL/MOL
REMARK 922        TOTAL FREE ENERGY PREDICTED BY IDOCK:    6.58 KCAL/MOL
REMARK 923 INTER-LIGAND FREE ENERGY PREDICTED BY IDOCK:   -0.59 KCAL/MOL
REMARK 924 INTRA-LIGAND FREE ENERGY PREDICTED BY IDOCK:    7.17 KCAL/MOL
REMARK 927      BINDING AFFINITY PREDICTED BY RF-SCORE:    0.00 PKD
ROOT
HETATM    1  C   UNL     1      -5.523  14.121  70.507  1.00  0.00    -0.127 C  
HETATM    2  C   UNL     1      -5.197  15.445  69.830  1.00  0.00    -0.099 C  
ENDROOT
BRANCH   2   3
HETATM    3  C   UNL     1      -5.206  15.384  68.280  1.00  0.00    -0.110 C  
HETATM    4  O   UNL     1      -5.587  14.115  67.632  1.00  0.00    -0.307 OA 
HETATM    5  C   UNL     1      -6.490  13.251  68.146  1.00  0.00    -0.112 C  
HETATM    6  C   UNL     1      -6.739  12.029  67.241  1.00  0.00    -0.144 C  
HETATM    7  O   UNL     1      -7.008  13.394  69.239  1.00  0.00    -0.085 OA 
HETATM    8  C   UNL     1      -6.066  12.200  65.872  1.00  0.00     2.069 C  
HETATM    9  C   UNL     1      -8.253  11.516  67.107  1.00  0.00    -0.161 C  
HETATM   10  C   UNL     1      -9.942  18.778  67.965  1.00  0.00    -0.356 C  
HETATM   11  C   UNL     1      -9.165  11.831  68.379  1.00  0.00    -0.175 C  
HETATM   12  C   UNL     1      -8.704  15.808  65.982  1.00  0.00    -0.169 C  
HETATM   13  C   UNL     1     -10.766  11.628  68.222  1.00  0.00    -0.213 C  
HETATM   14  C   UNL     1      -8.483  11.020  69.505  1.00  0.00     0.300 C  
HETATM   15  C   UNL     1      -8.565  17.029  66.898  1.00  0.00    -0.225 C  
HETATM   16  C   UNL     1      -7.422  16.854  67.977  1.00  0.00    -0.173 C  
HETATM   17  C   UNL     1     -11.876  12.770  67.782  1.00  0.00    -0.332 C  
HETATM   18  C   UNL     1     -11.398  14.133  67.198  1.00  0.00    -0.348 C  
HETATM   19  C   UNL     1      -5.945  16.554  67.525  1.00  0.00    -0.149 C  
HETATM   20  C   UNL     1     -13.112  12.999  68.661  1.00  0.00     2.619 C  
HETATM   21  H   UNL     1      -6.319  16.967  65.661  1.00  0.00     0.000 HD 
HETATM   22  O   UNL     1     -12.532  12.116  66.623  1.00  0.00    -0.188 OA 
HETATM   23  C   UNL     1     -11.444  15.426  68.078  1.00  0.00    -0.333 C  
HETATM   24  H   UNL     1      -7.160  15.826  69.621  1.00  0.00     0.000 HD 
HETATM   25  N   UNL     1      -9.820  17.363  67.624  1.00  0.00    -0.274 NA 
HETATM   26  C   UNL     1     -10.711  15.338  69.409  1.00  0.00    -0.266 C  
HETATM   27  H   UNL     1     -13.169  12.774  66.370  1.00  0.00     0.000 HD 
HETATM   28  C   UNL     1      -5.126  17.853  67.657  1.00  0.00    -0.130 C  
HETATM   29  C   UNL     1     -11.105  16.740  67.297  1.00  0.00     0.076 C  
HETATM   30  O   UNL     1      -5.873  16.262  66.116  1.00  0.00     0.429 OA 
HETATM   31  O   UNL     1      -7.847  15.931  68.973  1.00  0.00    -0.186 OA 
BRANCH   9  32
HETATM   32  O   UNL     1      -8.073  10.081  66.895  1.00  0.00    -0.116 OA 
BRANCH  32  33
HETATM   33  C   UNL     1      -9.181   9.284  66.489  1.00  0.00    -0.161 C  
HETATM   34  O   UNL     1      -7.696   7.204  63.102  1.00  0.00    -0.108 OA 
HETATM   35  C   UNL     1      -8.539   7.730  64.128  1.00  0.00     0.340 C  
HETATM   36  H   UNL     1      -7.542   6.271  63.197  1.00  0.00     0.000 HD 
HETATM   37  C   UNL     1      -8.789   9.254  63.973  1.00  0.00    -0.133 C  
HETATM   38  O   UNL     1      -8.879   7.885  66.553  1.00  0.00    -0.137 OA 
HETATM   39  C   UNL     1      -7.847   5.911  65.741  1.00  0.00    -0.103 C  
HETATM   40  C   UNL     1      -7.995   7.419  65.539  1.00  0.00    -0.122 C  
HETATM   41  C   UNL     1      -9.746   9.651  65.116  1.00  0.00    -0.287 C  
HETATM   42  C   UNL     1      -9.474   9.612  62.649  1.00  0.00     0.095 C  
BRANCH  37  43
HETATM   43  O   UNL     1      -7.599  10.043  64.155  1.00  0.00    -0.136 OA 
HETATM   44  C   UNL     1      -7.149  10.851  63.084  1.00  0.00     0.359 C  
ENDBRANCH  37  43
ENDBRANCH  32  33
ENDBRANCH   9  32
BRANCH  13  45
HETATM   45  O   UNL     1     -11.388  10.551  68.978  1.00  0.00    -0.249 OA 
BRANCH  45  46
HETATM   46  C   UNL     1     -11.710  10.719  70.367  1.00  0.00    -0.351 C  
HETATM   47  C   UNL     1     -13.716   8.608  72.561  1.00  0.00    -0.362 C  
HETATM   48  C   UNL     1     -12.742  12.361  72.134  1.00  0.00     0.104 C  
HETATM   49  C   UNL     1     -12.116  12.144  70.741  1.00  0.00    -0.181 C  
HETATM   50  C   UNL     1     -13.614  11.141  72.495  1.00  0.00     0.571 C  
HETATM   51  H   UNL     1     -11.225  13.868  70.797  1.00  0.00     0.000 HD 
HETATM   52  O   UNL     1     -10.973  12.982  70.564  1.00  0.00     1.006 OA 
HETATM   53  O   UNL     1     -12.714   9.778  70.742  1.00  0.00    -0.266 OA 
HETATM   54  C   UNL     1     -12.908   9.826  72.159  1.00  0.00    -0.360 C  
BRANCH  48  55
HETATM   55  N   UNL     1     -13.548  13.631  72.166  1.00  0.00    -0.492 NA 
HETATM   56  C   UNL     1     -12.973  14.658  73.032  1.00  0.00    -0.510 C  
HETATM   57  C   UNL     1     -13.885  14.202  70.866  1.00  0.00     0.182 C  
ENDBRANCH  48  55
ENDBRANCH  45  46
ENDBRANCH  13  45
ENDBRANCH   2   3
TORSDOF 7
ENDMDL
MODEL       54
REMARK 921   NORMALIZED FREE ENERGY PREDICTED BY IDOCK:    6.61 KCAL/MOL
REMARK 922        TOTAL FREE ENERGY PREDICTED BY IDOCK:    6.73 KCAL/MOL
REMARK 923 INTER-LIGAND FREE ENERGY PREDICTED BY IDOCK:   -0.09 KCAL/MOL
REMARK 924 INTRA-LIGAND FREE ENERGY PREDICTED BY IDOCK:    6.83 KCAL/MOL
REMARK 927      BINDING AFFINITY PREDICTED BY RF-SCORE:    0.00 PKD
ROOT
HETATM    1  C   UNL     1      -5.125   9.985  64.540  1.00  0.00    -0.078 C  
HETATM    2  C   UNL     1      -5.452   8.746  63.718  1.00  0.00    -0.062 C  
ENDROOT
BRANCH   2   3
HETATM    3  C   UNL     1      -6.539   7.835  64.347  1.00  0.00    -0.056 C  
HETATM    4  O   UNL     1      -6.622   7.759  65.817  1.00  0.00    -0.045 OA 
HETATM    5  C   UNL     1      -6.333   8.792  66.640  1.00  0.00    -0.059 C  
HETATM    6  C   UNL     1      -6.553   8.457  68.128  1.00  0.00    -0.061 C  
HETATM    7  O   UNL     1      -5.889   9.856  66.250  1.00  0.00    -0.055 OA 
HETATM    8  C   UNL     1      -7.257   7.103  68.299  1.00  0.00    -0.091 C  
HETATM    9  C   UNL     1      -7.212   9.597  69.044  1.00  0.00    -0.071 C  
HETATM   10  C   UNL     1     -10.814  11.463  62.730  1.00  0.00     0.459 C  
HETATM   11  C   UNL     1      -6.925  11.085  68.542  1.00  0.00    -0.070 C  
HETATM   12  C   UNL     1     -10.221   9.292  65.767  1.00  0.00     0.078 C  
HETATM   13  C   UNL     1      -7.788  12.283  69.214  1.00  0.00     0.472 C  
HETATM   14  C   UNL     1      -5.388  11.204  68.662  1.00  0.00    -0.043 C  
HETATM   15  C   UNL     1     -10.051   9.722  64.305  1.00  0.00     0.722 C  
HETATM   16  C   UNL     1      -8.595   9.441  63.753  1.00  0.00    -0.211 C  
HETATM   17  C   UNL     1      -9.210  12.915  68.663  1.00  0.00     0.041 C  
HETATM   18  C   UNL     1     -10.001  12.184  67.536  1.00  0.00    -0.202 C  
HETATM   19  C   UNL     1      -8.004   7.983  63.786  1.00  0.00    -0.123 C  
HETATM   20  C   UNL     1      -9.338  14.432  68.469  1.00  0.00    -0.204 C  
HETATM   21  H   UNL     1      -9.725   7.180  64.208  1.00  0.00     0.000 HD 
HETATM   22  O   UNL     1     -10.087  12.757  69.849  1.00  0.00     0.724 OA 
HETATM   23  C   UNL     1      -9.988  12.742  66.075  1.00  0.00    -0.277 C  
HETATM   24  H   UNL     1      -6.809  10.204  63.989  1.00  0.00     0.000 HD 
HETATM   25  N   UNL     1     -10.346  11.163  64.081  1.00  0.00    -0.336 NA 
HETATM   26  C   UNL     1      -8.608  12.939  65.463  1.00  0.00     1.559 C  
HETATM   27  H   UNL     1     -10.905  13.121  69.531  1.00  0.00     0.000 HD 
HETATM   28  C   UNL     1      -8.073   7.400  62.361  1.00  0.00    -0.119 C  
HETATM   29  C   UNL     1     -10.971  12.005  65.103  1.00  0.00    -0.310 C  
HETATM   30  O   UNL     1      -8.842   7.090  64.547  1.00  0.00     0.372 OA 
HETATM   31  O   UNL     1      -7.684  10.373  64.320  1.00  0.00    -0.130 OA 
BRANCH   9  32
HETATM   32  O   UNL     1      -6.611   9.327  70.349  1.00  0.00    -0.052 OA 
BRANCH  32  33
HETATM   33  C   UNL     1      -7.445   9.195  71.495  1.00  0.00     0.089 C  
HETATM   34  O   UNL     1      -5.445   6.267  73.825  1.00  0.00    -0.040 OA 
HETATM   35  C   UNL     1      -6.398   7.206  73.325  1.00  0.00    -0.064 C  
HETATM   36  H   UNL     1      -5.029   6.559  74.628  1.00  0.00     0.000 HD 
HETATM   37  C   UNL     1      -7.076   6.730  72.014  1.00  0.00    -0.075 C  
HETATM   38  O   UNL     1      -6.754   9.552  72.699  1.00  0.00    -0.034 OA 
HETATM   39  C   UNL     1      -5.202   9.133  74.443  1.00  0.00    -0.117 C  
HETATM   40  C   UNL     1      -5.779   8.607  73.128  1.00  0.00    -0.083 C  
HETATM   41  C   UNL     1      -8.100   7.821  71.638  1.00  0.00    -0.114 C  
HETATM   42  C   UNL     1      -7.844   5.413  72.186  1.00  0.00    -0.106 C  
BRANCH  37  43
HETATM   43  O   UNL     1      -6.162   6.640  70.906  1.00  0.00    -0.037 OA 
HETATM   44  C   UNL     1      -5.546   5.396  70.632  1.00  0.00    -0.008 C  
ENDBRANCH  37  43
ENDBRANCH  32  33
ENDBRANCH   9  32
BRANCH  13  45
HETATM   45  O   UNL     1      -7.080  13.232  70.060  1.00  0.00     0.400 OA 
BRANCH  45  46
HETATM   46  C   UNL     1      -6.277  14.274  69.485  1.00  0.00    -0.122 C  
HETATM   47  C   UNL     1      -5.127  17.404  70.955  1.00  0.00    -0.197 C  
HETATM   48  C   UNL     1      -6.067  15.936  67.467  1.00  0.00    -0.145 C  
HETATM   49  C   UNL     1      -6.682  14.653  68.061  1.00  0.00    -0.143 C  
HETATM   50  C   UNL     1      -5.916  16.991  68.582  1.00  0.00    -0.148 C  
HETATM   51  H   UNL     1      -6.668  13.764  66.334  1.00  0.00     0.000 HD 
HETATM   52  O   UNL     1      -6.416  13.529  67.220  1.00  0.00    -0.276 OA 
HETATM   53  O   UNL     1      -6.281  15.411  70.345  1.00  0.00    -0.112 OA 
HETATM   54  C   UNL     1      -5.344  16.379  69.861  1.00  0.00    -0.158 C  
BRANCH  48  55
HETATM   55  N   UNL     1      -6.911  16.460  66.337  1.00  0.00    -0.125 NA 
HETATM   56  C   UNL     1      -8.293  16.734  66.726  1.00  0.00    -0.237 C  
HETATM   57  C   UNL     1      -6.361  17.597  65.607  1.00  0.00    -0.012 C  
ENDBRANCH  48  55
ENDBRANCH  45  46
ENDBRANCH  13  45
ENDBRANCH   2   3
TORSDOF 7
ENDMDL
MODEL       55
REMARK 921   NORMALIZED FREE ENERGY PREDICTED BY IDOCK:    6.66 KCAL/MOL
REMARK 922        TOTAL FREE ENERGY PREDICTED BY IDOCK:    6.80 KCAL/MOL
REMARK 923 INTER-LIGAND FREE ENERGY PREDICTED BY IDOCK:   -4.17 KCAL/MOL
REMARK 924 INTRA-LIGAND FREE ENERGY PREDICTED BY IDOCK:   10.97 KCAL/MOL
REMARK 927      BINDING AFFINITY PREDICTED BY RF-SCORE:    0.00 PKD
ROOT
HETATM    1  C   UNL     1     -10.289   2.009  71.229  1.00  0.00     0.417 C  
HETATM    2  C   UNL     1      -9.593   3.138  70.483  1.00  0.00    -0.201 C  
ENDROOT
BRANCH   2   3
HETATM    3  C   UNL     1      -8.060   2.952  70.336  1.00  0.00    -0.041 C  
HETATM    4  O   UNL     1      -7.404   3.482  69.126  1.00  0.00    -0.049 OA 
HETATM    5  C   UNL     1      -7.811   4.595  68.478  1.00  0.00    -0.080 C  
HETATM    6  C   UNL     1      -6.918   4.954  67.275  1.00  0.00    -0.061 C  
HETATM    7  O   UNL     1      -8.814   5.217  68.778  1.00  0.00    -0.096 OA 
HETATM    8  C   UNL     1      -5.653   4.084  67.238  1.00  0.00    -0.021 C  
HETATM    9  C   UNL     1      -6.585   6.508  67.049  1.00  0.00    -0.051 C  
HETATM   10  C   UNL     1      -6.971   6.853  74.536  1.00  0.00    -0.094 C  
HETATM   11  C   UNL     1      -7.705   7.502  67.602  1.00  0.00    -0.115 C  
HETATM   12  C   UNL     1      -5.276   5.962  71.277  1.00  0.00    -0.013 C  
HETATM   13  C   UNL     1      -7.328   9.077  67.695  1.00  0.00    -0.084 C  
HETATM   14  C   UNL     1      -8.941   7.147  66.743  1.00  0.00    -0.151 C  
HETATM   15  C   UNL     1      -6.165   5.712  72.501  1.00  0.00    -0.047 C  
HETATM   16  C   UNL     1      -7.401   4.779  72.176  1.00  0.00    -0.081 C  
HETATM   17  C   UNL     1      -6.700   9.875  68.998  1.00  0.00    -0.053 C  
HETATM   18  C   UNL     1      -6.149   9.068  70.211  1.00  0.00    -0.039 C  
HETATM   19  C   UNL     1      -7.172   3.342  71.578  1.00  0.00    -0.036 C  
HETATM   20  C   UNL     1      -7.387  11.149  69.506  1.00  0.00    -0.023 C  
HETATM   21  H   UNL     1      -5.262   3.376  71.947  1.00  0.00     0.000 HD 
HETATM   22  O   UNL     1      -5.480  10.484  68.414  1.00  0.00    -0.038 OA 
HETATM   23  C   UNL     1      -6.973   8.979  71.539  1.00  0.00    -0.045 C  
HETATM   24  H   UNL     1      -9.096   4.944  71.213  1.00  0.00     0.000 HD 
HETATM   25  N   UNL     1      -6.694   6.964  73.106  1.00  0.00    -0.070 NA 
HETATM   26  C   UNL     1      -8.396   8.461  71.390  1.00  0.00    -0.182 C  
HETATM   27  H   UNL     1      -5.119  10.942  69.164  1.00  0.00     0.000 HD 
HETATM   28  C   UNL     1      -7.379   2.311  72.705  1.00  0.00    -0.032 C  
HETATM   29  C   UNL     1      -6.208   8.290  72.718  1.00  0.00    -0.079 C  
HETATM   30  O   UNL     1      -5.797   3.140  71.198  1.00  0.00    -0.013 OA 
HETATM   31  O   UNL     1      -8.354   5.505  71.409  1.00  0.00    -0.122 OA 
BRANCH   9  32
HETATM   32  O   UNL     1      -6.446   6.582  65.596  1.00  0.00    -0.040 OA 
BRANCH  32  33
HETATM   33  C   UNL     1      -7.608   6.546  64.774  1.00  0.00    -0.099 C  
HETATM   34  O   UNL     1      -8.639   2.430  64.725  1.00  0.00    -0.089 OA 
HETATM   35  C   UNL     1      -8.587   3.835  64.470  1.00  0.00    -0.105 C  
HETATM   36  H   UNL     1      -9.424   2.172  65.196  1.00  0.00     0.000 HD 
HETATM   37  C   UNL     1      -7.306   4.256  63.703  1.00  0.00    -0.054 C  
HETATM   38  O   UNL     1      -8.750   6.060  65.492  1.00  0.00    -0.154 OA 
HETATM   39  C   UNL     1     -10.044   4.333  66.475  1.00  0.00    -0.155 C  
HETATM   40  C   UNL     1      -8.731   4.663  65.765  1.00  0.00    -0.124 C  
HETATM   41  C   UNL     1      -7.427   5.776  63.466  1.00  0.00    -0.068 C  
HETATM   42  C   UNL     1      -7.185   3.581  62.331  1.00  0.00    -0.040 C  
BRANCH  37  43
HETATM   43  O   UNL     1      -6.101   4.064  64.467  1.00  0.00    -0.021 OA 
HETATM   44  C   UNL     1      -5.272   2.958  64.163  1.00  0.00    -0.008 C  
ENDBRANCH  37  43
ENDBRANCH  32  33
ENDBRANCH   9  32
BRANCH  13  45
HETATM   45  O   UNL     1      -8.021   9.991  66.799  1.00  0.00    -0.112 OA 
BRANCH  45  46
HETATM   46  C   UNL     1      -8.997  10.916  67.304  1.00  0.00    -0.137 C  
HETATM   47  C   UNL     1     -12.239  10.268  68.840  1.00  0.00     0.571 C  
HETATM   48  C   UNL     1     -10.463  13.007  66.705  1.00  0.00    -0.264 C  
HETATM   49  C   UNL     1      -9.246  12.113  66.388  1.00  0.00    -0.207 C  
HETATM   50  C   UNL     1     -11.615  12.128  67.234  1.00  0.00    -0.404 C  
HETATM   51  H   UNL     1      -8.202  13.634  65.781  1.00  0.00     0.000 HD 
HETATM   52  O   UNL     1      -8.047  12.889  66.350  1.00  0.00     0.325 OA 
HETATM   53  O   UNL     1     -10.209  10.222  67.592  1.00  0.00    -0.184 OA 
HETATM   54  C   UNL     1     -11.118  11.105  68.256  1.00  0.00    -0.251 C  
BRANCH  48  55
HETATM   55  N   UNL     1     -10.888  13.782  65.488  1.00  0.00    -0.292 NA 
HETATM   56  C   UNL     1     -10.814  13.005  64.252  1.00  0.00    -0.405 C  
HETATM   57  C   UNL     1     -12.180  14.453  65.581  1.00  0.00    -0.344 C  
ENDBRANCH  48  55
ENDBRANCH  45  46
ENDBRANCH  13  45
ENDBRANCH   2   3
TORSDOF 7
ENDMDL
MODEL       56
REMARK 921   NORMALIZED FREE ENERGY PREDICTED BY IDOCK:    7.29 KCAL/MOL
REMARK 922        TOTAL FREE ENERGY PREDICTED BY IDOCK:    7.70 KCAL/MOL
REMARK 923 INTER-LIGAND FREE ENERGY PREDICTED BY IDOCK:    6.99 KCAL/MOL
REMARK 924 INTRA-LIGAND FREE ENERGY PREDICTED BY IDOCK:    0.71 KCAL/MOL
REMARK 927      BINDING AFFINITY PREDICTED BY RF-SCORE:    0.00 PKD
ROOT
HETATM    1  C   UNL     1     -11.418  17.060  70.335  1.00  0.00     0.959 C  
HETATM    2  C   UNL     1     -10.599  15.791  70.521  1.00  0.00    -0.174 C  
ENDROOT
BRANCH   2   3
HETATM    3  C   UNL     1      -9.194  15.841  69.866  1.00  0.00     0.141 C  
HETATM    4  O   UNL     1      -8.448  14.578  69.713  1.00  0.00     0.273 OA 
HETATM    5  C   UNL     1      -9.035  13.383  69.487  1.00  0.00     1.391 C  
HETATM    6  C   UNL     1      -8.021  12.235  69.316  1.00  0.00     0.536 C  
HETATM    7  O   UNL     1     -10.242  13.219  69.478  1.00  0.00     0.386 OA 
HETATM    8  C   UNL     1      -6.584  12.767  69.225  1.00  0.00    -0.086 C  
HETATM    9  C   UNL     1      -8.333  11.147  68.178  1.00  0.00    -0.136 C  
HETATM   10  C   UNL     1     -11.457  16.961  64.605  1.00  0.00     0.517 C  
HETATM   11  C   UNL     1      -9.886  10.962  67.860  1.00  0.00    -0.189 C  
HETATM   12  C   UNL     1      -8.511  14.927  65.817  1.00  0.00     1.511 C  
HETATM   13  C   UNL     1     -10.284  10.121  66.532  1.00  0.00    -0.223 C  
HETATM   14  C   UNL     1     -10.456  10.433  69.197  1.00  0.00    -0.248 C  
HETATM   15  C   UNL     1      -9.576  16.026  65.901  1.00  0.00    -0.335 C  
HETATM   16  C   UNL     1     -10.085  16.269  67.379  1.00  0.00    -0.260 C  
HETATM   17  C   UNL     1     -10.568  10.723  65.020  1.00  0.00    -0.173 C  
HETATM   18  C   UNL     1     -10.193  12.199  64.688  1.00  0.00    -0.312 C  
HETATM   19  C   UNL     1      -9.065  16.645  68.516  1.00  0.00    -0.234 C  
HETATM   20  C   UNL     1     -11.866  10.353  64.292  1.00  0.00     3.818 C  
HETATM   21  H   UNL     1      -7.625  16.995  67.256  1.00  0.00     0.000 HD 
HETATM   22  O   UNL     1      -9.610   9.939  64.203  1.00  0.00    -0.367 OA 
HETATM   23  C   UNL     1     -11.310  13.289  64.578  1.00  0.00    -0.392 C  
HETATM   24  H   UNL     1     -11.222  15.331  68.666  1.00  0.00     0.000 HD 
HETATM   25  N   UNL     1     -10.768  15.754  65.054  1.00  0.00    -0.483 NA 
HETATM   26  C   UNL     1     -12.217  13.422  65.793  1.00  0.00    -0.507 C  
HETATM   27  H   UNL     1      -9.773  10.286  63.333  1.00  0.00     0.000 HD 
HETATM   28  C   UNL     1      -9.193  18.155  68.800  1.00  0.00    -0.247 C  
HETATM   29  C   UNL     1     -10.797  14.676  64.063  1.00  0.00     0.837 C  
HETATM   30  O   UNL     1      -7.702  16.510  68.070  1.00  0.00    -0.153 OA 
HETATM   31  O   UNL     1     -10.916  15.186  67.778  1.00  0.00    -0.286 OA 
BRANCH   9  32
HETATM   32  O   UNL     1      -7.734   9.938  68.739  1.00  0.00    -0.081 OA 
BRANCH  32  33
HETATM   33  C   UNL     1      -7.051  10.003  69.987  1.00  0.00    -0.146 C  
HETATM   34  O   UNL     1      -7.735   6.171  71.675  1.00  0.00    -0.098 OA 
HETATM   35  C   UNL     1      -7.343   7.529  71.468  1.00  0.00    -0.075 C  
HETATM   36  H   UNL     1      -6.993   5.580  71.729  1.00  0.00     0.000 HD 
HETATM   37  C   UNL     1      -8.556   8.494  71.381  1.00  0.00    -0.175 C  
HETATM   38  O   UNL     1      -6.001   9.032  70.068  1.00  0.00    -0.030 OA 
HETATM   39  C   UNL     1      -5.190   6.821  70.349  1.00  0.00    -0.018 C  
HETATM   40  C   UNL     1      -6.443   7.688  70.224  1.00  0.00    -0.038 C  
HETATM   41  C   UNL     1      -7.967   9.910  71.208  1.00  0.00     1.230 C  
HETATM   42  C   UNL     1      -9.406   8.498  72.657  1.00  0.00    -0.284 C  
BRANCH  37  43
HETATM   43  O   UNL     1      -9.381   8.260  70.225  1.00  0.00    -0.157 OA 
HETATM   44  C   UNL     1     -10.451   7.340  70.329  1.00  0.00    -0.219 C  
ENDBRANCH  37  43
ENDBRANCH  32  33
ENDBRANCH   9  32
BRANCH  13  45
HETATM   45  O   UNL     1     -10.935   8.833  66.718  1.00  0.00    -0.009 OA 
BRANCH  45  46
HETATM   46  C   UNL     1     -10.161   7.639  66.912  1.00  0.00    -0.294 C  
HETATM   47  C   UNL     1      -6.547   7.172  66.824  1.00  0.00    -0.055 C  
HETATM   48  C   UNL     1      -9.815   5.167  66.105  1.00  0.00    -0.185 C  
HETATM   49  C   UNL     1     -10.717   6.416  66.185  1.00  0.00     0.577 C  
HETATM   50  C   UNL     1      -8.345   5.612  65.953  1.00  0.00    -0.128 C  
HETATM   51  H   UNL     1     -12.322   5.331  66.327  1.00  0.00     0.000 HD 
HETATM   52  O   UNL     1     -11.976   6.092  66.779  1.00  0.00     1.227 OA 
HETATM   53  O   UNL     1      -8.804   7.886  66.550  1.00  0.00    -0.137 OA 
HETATM   54  C   UNL     1      -8.002   6.756  66.907  1.00  0.00    -0.109 C  
BRANCH  48  55
HETATM   55  N   UNL     1     -10.232   4.278  64.966  1.00  0.00    -0.221 NA 
HETATM   56  C   UNL     1      -9.455   4.495  63.748  1.00  0.00    -0.007 C  
HETATM   57  C   UNL     1     -10.305   2.852  65.267  1.00  0.00     0.860 C  
ENDBRANCH  48  55
ENDBRANCH  45  46
ENDBRANCH  13  45
ENDBRANCH   2   3
TORSDOF 7
ENDMDL
MODEL       57
REMARK 921   NORMALIZED FREE ENERGY PREDICTED BY IDOCK:    8.11 KCAL/MOL
REMARK 922        TOTAL FREE ENERGY PREDICTED BY IDOCK:    8.85 KCAL/MOL
REMARK 923 INTER-LIGAND FREE ENERGY PREDICTED BY IDOCK:   -1.37 KCAL/MOL
REMARK 924 INTRA-LIGAND FREE ENERGY PREDICTED BY IDOCK:   10.22 KCAL/MOL
REMARK 927      BINDING AFFINITY PREDICTED BY RF-SCORE:    0.00 PKD
ROOT
HETATM    1  C   UNL     1      -5.404   6.019  69.057  1.00  0.00    -0.004 C  
HETATM    2  C   UNL     1      -5.401   4.806  68.138  1.00  0.00    -0.011 C  
ENDROOT
BRANCH   2   3
HETATM    3  C   UNL     1      -6.813   4.263  67.798  1.00  0.00    -0.052 C  
HETATM    4  O   UNL     1      -7.982   4.930  68.401  1.00  0.00    -0.085 OA 
HETATM    5  C   UNL     1      -8.035   6.252  68.673  1.00  0.00    -0.105 C  
HETATM    6  C   UNL     1      -9.392   6.695  69.252  1.00  0.00    -0.142 C  
HETATM    7  O   UNL     1      -7.088   7.005  68.531  1.00  0.00    -0.082 OA 
HETATM    8  C   UNL     1     -10.430   5.566  69.174  1.00  0.00    -0.315 C  
HETATM    9  C   UNL     1      -9.985   8.094  68.737  1.00  0.00    -0.189 C  
HETATM   10  C   UNL     1      -6.508   6.292  62.335  1.00  0.00    -0.030 C  
HETATM   11  C   UNL     1      -8.875   9.145  68.277  1.00  0.00    -0.129 C  
HETATM   12  C   UNL     1      -9.295   5.984  64.869  1.00  0.00     0.657 C  
HETATM   13  C   UNL     1      -9.375  10.457  67.465  1.00  0.00    -0.149 C  
HETATM   14  C   UNL     1      -8.085   9.410  69.580  1.00  0.00    -0.114 C  
HETATM   15  C   UNL     1      -7.947   5.633  64.229  1.00  0.00    -0.125 C  
HETATM   16  C   UNL     1      -6.858   5.211  65.296  1.00  0.00    -0.060 C  
HETATM   17  C   UNL     1      -9.487  10.629  65.826  1.00  0.00    -0.200 C  
HETATM   18  C   UNL     1      -9.363   9.381  64.903  1.00  0.00    -0.218 C  
HETATM   19  C   UNL     1      -7.132   4.011  66.275  1.00  0.00    -0.064 C  
HETATM   20  C   UNL     1      -8.819  11.831  65.146  1.00  0.00     0.387 C  
HETATM   21  H   UNL     1      -8.692   3.414  65.278  1.00  0.00     0.000 HD 
HETATM   22  O   UNL     1     -10.906  11.030  65.666  1.00  0.00    -0.198 OA 
HETATM   23  C   UNL     1      -8.050   9.129  64.090  1.00  0.00    -0.149 C  
HETATM   24  H   UNL     1      -5.768   6.108  66.651  1.00  0.00     0.000 HD 
HETATM   25  N   UNL     1      -7.376   6.744  63.419  1.00  0.00    -0.066 NA 
HETATM   26  C   UNL     1      -6.770   9.085  64.913  1.00  0.00    -0.069 C  
HETATM   27  H   UNL     1     -10.971  11.128  64.723  1.00  0.00     0.000 HD 
HETATM   28  C   UNL     1      -6.336   2.788  65.776  1.00  0.00    -0.024 C  
HETATM   29  C   UNL     1      -8.147   7.940  63.075  1.00  0.00    -0.108 C  
HETATM   30  O   UNL     1      -8.500   3.566  66.196  1.00  0.00    -0.107 OA 
HETATM   31  O   UNL     1      -6.422   6.362  66.010  1.00  0.00    -0.040 OA 
BRANCH   9  32
HETATM   32  O   UNL     1     -10.736   8.556  69.903  1.00  0.00    -0.228 OA 
BRANCH  32  33
HETATM   33  C   UNL     1     -10.279   8.228  71.211  1.00  0.00    -0.202 C  
HETATM   34  O   UNL     1     -13.318   5.662  72.690  1.00  0.00    -0.298 OA 
HETATM   35  C   UNL     1     -12.161   6.491  72.569  1.00  0.00     0.060 C  
HETATM   36  H   UNL     1     -13.100   4.743  72.791  1.00  0.00     0.000 HD 
HETATM   37  C   UNL     1     -12.517   7.992  72.402  1.00  0.00    -0.212 C  
HETATM   38  O   UNL     1     -10.054   6.819  71.356  1.00  0.00    -0.183 OA 
HETATM   39  C   UNL     1     -10.793   4.583  71.633  1.00  0.00     0.254 C  
HETATM   40  C   UNL     1     -11.237   6.031  71.421  1.00  0.00    -0.262 C  
HETATM   41  C   UNL     1     -11.173   8.748  72.336  1.00  0.00    -0.251 C  
HETATM   42  C   UNL     1     -13.306   8.552  73.592  1.00  0.00     2.748 C  
BRANCH  37  43
HETATM   43  O   UNL     1     -13.198   8.278  71.167  1.00  0.00    -0.166 OA 
HETATM   44  C   UNL     1     -13.527   9.621  70.866  1.00  0.00    -0.075 C  
ENDBRANCH  37  43
ENDBRANCH  32  33
ENDBRANCH   9  32
BRANCH  13  45
HETATM   45  O   UNL     1      -9.250  11.747  68.125  1.00  0.00    -0.174 OA 
BRANCH  45  46
HETATM   46  C   UNL     1      -7.985  12.424  68.185  1.00  0.00    -0.153 C  
HETATM   47  C   UNL     1      -5.534  12.536  70.881  1.00  0.00    -0.156 C  
HETATM   48  C   UNL     1      -6.794  14.747  67.925  1.00  0.00    -0.160 C  
HETATM   49  C   UNL     1      -8.022  13.854  67.650  1.00  0.00    -0.175 C  
HETATM   50  C   UNL     1      -6.223  14.409  69.318  1.00  0.00    -0.110 C  
HETATM   51  H   UNL     1      -8.316  14.677  65.916  1.00  0.00     0.000 HD 
HETATM   52  O   UNL     1      -8.293  13.787  66.249  1.00  0.00     0.491 OA 
HETATM   53  O   UNL     1      -7.484  12.382  69.519  1.00  0.00     0.282 OA 
HETATM   54  C   UNL     1      -6.149  12.899  69.545  1.00  0.00    -0.117 C  
BRANCH  48  55
HETATM   55  N   UNL     1      -7.159  16.203  67.828  1.00  0.00    -0.128 NA 
HETATM   56  C   UNL     1      -7.199  16.698  66.454  1.00  0.00    -0.133 C  
HETATM   57  C   UNL     1      -8.368  16.604  68.540  1.00  0.00    -0.228 C  
ENDBRANCH  48  55
ENDBRANCH  45  46
ENDBRANCH  13  45
ENDBRANCH   2   3
TORSDOF 7
ENDMDL
MODEL       58
REMARK 921   NORMALIZED FREE ENERGY PREDICTED BY IDOCK:    8.30 KCAL/MOL
REMARK 922        TOTAL FREE ENERGY PREDICTED BY IDOCK:    9.11 KCAL/MOL
REMARK 923 INTER-LIGAND FREE ENERGY PREDICTED BY IDOCK:    6.47 KCAL/MOL
REMARK 924 INTRA-LIGAND FREE ENERGY PREDICTED BY IDOCK:    2.64 KCAL/MOL
REMARK 927      BINDING AFFINITY PREDICTED BY RF-SCORE:    0.00 PKD
ROOT
HETATM    1  C   UNL     1     -10.055   3.154  69.987  1.00  0.00     0.676 C  
HETATM    2  C   UNL     1      -9.845   4.628  69.672  1.00  0.00    -0.293 C  
ENDROOT
BRANCH   2   3
HETATM    3  C   UNL     1     -10.678   5.145  68.470  1.00  0.00     0.202 C  
HETATM    4  O   UNL     1     -11.155   6.540  68.498  1.00  0.00    -0.296 OA 
HETATM    5  C   UNL     1     -10.474   7.555  69.075  1.00  0.00    -0.208 C  
HETATM    6  C   UNL     1     -11.174   8.918  68.916  1.00  0.00     0.291 C  
HETATM    7  O   UNL     1      -9.445   7.398  69.707  1.00  0.00    -0.160 OA 
HETATM    8  C   UNL     1     -12.364   8.828  67.949  1.00  0.00     6.236 C  
HETATM    9  C   UNL     1     -10.241  10.186  68.604  1.00  0.00    -0.176 C  
HETATM   10  C   UNL     1      -6.008   5.165  64.971  1.00  0.00    -0.025 C  
HETATM   11  C   UNL     1      -8.753  10.056  69.165  1.00  0.00    -0.168 C  
HETATM   12  C   UNL     1      -9.028   7.409  65.331  1.00  0.00     0.155 C  
HETATM   13  C   UNL     1      -7.659  11.135  68.647  1.00  0.00    -0.127 C  
HETATM   14  C   UNL     1      -8.963   9.981  70.696  1.00  0.00     0.524 C  
HETATM   15  C   UNL     1      -8.237   6.103  65.466  1.00  0.00    -0.144 C  
HETATM   16  C   UNL     1      -8.616   5.294  66.771  1.00  0.00    -0.106 C  
HETATM   17  C   UNL     1      -6.641  10.978  67.355  1.00  0.00    -0.069 C  
HETATM   18  C   UNL     1      -6.858   9.825  66.330  1.00  0.00    -0.088 C  
HETATM   19  C   UNL     1     -10.105   4.859  67.030  1.00  0.00    -0.205 C  
HETATM   20  C   UNL     1      -5.137  11.209  67.547  1.00  0.00    -0.040 C  
HETATM   21  H   UNL     1     -10.660   5.297  65.217  1.00  0.00     0.000 HD 
HETATM   22  O   UNL     1      -6.965  12.194  66.571  1.00  0.00    -0.362 OA 
HETATM   23  C   UNL     1      -5.918   8.574  66.340  1.00  0.00    -0.048 C  
HETATM   24  H   UNL     1      -8.299   5.463  68.695  1.00  0.00     0.000 HD 
HETATM   25  N   UNL     1      -6.764   6.309  65.476  1.00  0.00    -0.047 NA 
HETATM   26  C   UNL     1      -5.815   7.845  67.672  1.00  0.00    -0.041 C  
HETATM   27  H   UNL     1      -6.380  12.104  65.828  1.00  0.00     0.000 HD 
HETATM   28  C   UNL     1     -10.232   3.356  66.713  1.00  0.00     1.054 C  
HETATM   29  C   UNL     1      -6.149   7.595  65.140  1.00  0.00    -0.038 C  
HETATM   30  O   UNL     1     -11.006   5.470  66.085  1.00  0.00    -0.135 OA 
HETATM   31  O   UNL     1      -8.072   5.949  67.910  1.00  0.00    -0.104 OA 
BRANCH   9  32
HETATM   32  O   UNL     1     -10.981  11.274  69.240  1.00  0.00    -0.232 OA 
BRANCH  32  33
HETATM   33  C   UNL     1     -12.392  11.361  69.069  1.00  0.00     0.033 C  
HETATM   34  O   UNL     1     -13.785  12.352  72.953  1.00  0.00    -0.558 OA 
HETATM   35  C   UNL     1     -13.710  11.989  71.574  1.00  0.00     0.645 C  
HETATM   36  H   UNL     1     -14.126  13.230  73.083  1.00  0.00     0.000 HD 
HETATM   37  C   UNL     1     -13.153  10.556  71.362  1.00  0.00    -0.410 C  
HETATM   38  O   UNL     1     -12.882  12.675  69.367  1.00  0.00     0.602 OA 
HETATM   39  C   UNL     1     -13.496  14.407  70.867  1.00  0.00    -0.228 C  
HETATM   40  C   UNL     1     -12.890  13.007  70.752  1.00  0.00    -0.074 C  
HETATM   41  C   UNL     1     -13.183  10.303  69.840  1.00  0.00     0.616 C  
HETATM   42  C   UNL     1     -14.017   9.478  72.028  1.00  0.00    -0.275 C  
BRANCH  37  43
HETATM   43  O   UNL     1     -11.778  10.420  71.764  1.00  0.00    -0.052 OA 
HETATM   44  C   UNL     1     -11.394   9.272  72.498  1.00  0.00     0.682 C  
ENDBRANCH  37  43
ENDBRANCH  32  33
ENDBRANCH   9  32
BRANCH  13  45
HETATM   45  O   UNL     1      -7.141  12.090  69.615  1.00  0.00     0.066 OA 
BRANCH  45  46
HETATM   46  C   UNL     1      -7.098  13.493  69.313  1.00  0.00     0.038 C  
HETATM   47  C   UNL     1      -5.142  16.148  70.867  1.00  0.00    -0.179 C  
HETATM   48  C   UNL     1      -8.550  15.660  69.034  1.00  0.00    -0.232 C  
HETATM   49  C   UNL     1      -8.473  14.121  69.088  1.00  0.00     0.204 C  
HETATM   50  C   UNL     1      -7.532  16.255  70.029  1.00  0.00     0.763 C  
HETATM   51  H   UNL     1      -9.880  13.935  67.763  1.00  0.00     0.000 HD 
HETATM   52  O   UNL     1      -9.025  13.545  67.902  1.00  0.00    -0.181 OA 
HETATM   53  O   UNL     1      -6.375  14.180  70.332  1.00  0.00    -0.163 OA 
HETATM   54  C   UNL     1      -6.182  15.544  69.945  1.00  0.00    -0.157 C  
BRANCH  48  55
HETATM   55  N   UNL     1      -9.945  16.137  69.336  1.00  0.00    -0.248 NA 
HETATM   56  C   UNL     1     -10.083  17.590  69.284  1.00  0.00    -0.157 C  
HETATM   57  C   UNL     1     -11.012  15.504  68.568  1.00  0.00    -0.288 C  
ENDBRANCH  48  55
ENDBRANCH  45  46
ENDBRANCH  13  45
ENDBRANCH   2   3
TORSDOF 7
ENDMDL
MODEL       59
REMARK 921   NORMALIZED FREE ENERGY PREDICTED BY IDOCK:    8.31 KCAL/MOL
REMARK 922        TOTAL FREE ENERGY PREDICTED BY IDOCK:    9.13 KCAL/MOL
REMARK 923 INTER-LIGAND FREE ENERGY PREDICTED BY IDOCK:    7.87 KCAL/MOL
REMARK 924 INTRA-LIGAND FREE ENERGY PREDICTED BY IDOCK:    1.26 KCAL/MOL
REMARK 927      BINDING AFFINITY PREDICTED BY RF-SCORE:    0.00 PKD
ROOT
HETATM    1  C   UNL     1     -11.188   3.705  70.470  1.00  0.00     4.669 C  
HETATM    2  C   UNL     1     -10.380   4.820  69.823  1.00  0.00    -0.096 C  
ENDROOT
BRANCH   2   3
HETATM    3  C   UNL     1     -10.766   5.110  68.348  1.00  0.00     0.208 C  
HETATM    4  O   UNL     1     -11.216   6.469  67.997  1.00  0.00    -0.281 OA 
HETATM    5  C   UNL     1     -10.758   7.590  68.596  1.00  0.00    -0.077 C  
HETATM    6  C   UNL     1     -11.357   8.879  68.002  1.00  0.00     0.729 C  
HETATM    7  O   UNL     1      -9.997   7.579  69.546  1.00  0.00    -0.175 OA 
HETATM    8  C   UNL     1     -12.160   8.588  66.727  1.00  0.00     6.830 C  
HETATM    9  C   UNL     1     -10.365  10.127  67.815  1.00  0.00    -0.210 C  
HETATM   10  C   UNL     1      -5.202   4.814  66.615  1.00  0.00    -0.008 C  
HETATM   11  C   UNL     1      -9.147  10.153  68.847  1.00  0.00    -0.165 C  
HETATM   12  C   UNL     1      -8.157   6.944  65.606  1.00  0.00    -0.129 C  
HETATM   13  C   UNL     1      -7.935  11.190  68.550  1.00  0.00    -0.143 C  
HETATM   14  C   UNL     1      -9.851  10.302  70.215  1.00  0.00     0.122 C  
HETATM   15  C   UNL     1      -7.463   5.712  66.197  1.00  0.00    -0.082 C  
HETATM   16  C   UNL     1      -8.257   5.094  67.418  1.00  0.00    -0.107 C  
HETATM   17  C   UNL     1      -6.549  10.886  67.706  1.00  0.00    -0.064 C  
HETATM   18  C   UNL     1      -6.423   9.582  66.863  1.00  0.00    -0.067 C  
HETATM   19  C   UNL     1      -9.751   4.634  67.240  1.00  0.00    -0.185 C  
HETATM   20  C   UNL     1      -5.191  11.213  68.340  1.00  0.00    -0.039 C  
HETATM   21  H   UNL     1      -9.673   4.766  65.301  1.00  0.00     0.000 HD 
HETATM   22  O   UNL     1      -6.588  11.953  66.676  1.00  0.00    -0.340 OA 
HETATM   23  C   UNL     1      -5.547   8.392  67.378  1.00  0.00    -0.039 C  
HETATM   24  H   UNL     1      -8.593   5.568  69.286  1.00  0.00     0.000 HD 
HETATM   25  N   UNL     1      -6.074   5.985  66.656  1.00  0.00    -0.025 NA 
HETATM   26  C   UNL     1      -5.894   7.879  68.769  1.00  0.00    -0.035 C  
HETATM   27  H   UNL     1      -5.791  11.777  66.189  1.00  0.00     0.000 HD 
HETATM   28  C   UNL     1      -9.776   3.096  67.142  1.00  0.00     0.116 C  
HETATM   29  C   UNL     1      -5.375   7.232  66.341  1.00  0.00    -0.024 C  
HETATM   30  O   UNL     1     -10.285   5.052  65.968  1.00  0.00    -0.216 OA 
HETATM   31  O   UNL     1      -8.116   5.939  68.553  1.00  0.00    -0.104 OA 
BRANCH   9  32
HETATM   32  O   UNL     1     -11.266  11.264  67.994  1.00  0.00    -0.240 OA 
BRANCH  32  33
HETATM   33  C   UNL     1     -12.120  11.660  66.925  1.00  0.00     0.619 C  
HETATM   34  O   UNL     1      -9.910  14.729  65.000  1.00  0.00    -0.439 OA 
HETATM   35  C   UNL     1     -10.936  13.814  65.388  1.00  0.00    -0.309 C  
HETATM   36  H   UNL     1      -9.552  14.535  64.141  1.00  0.00     0.000 HD 
HETATM   37  C   UNL     1     -11.520  14.132  66.790  1.00  0.00    -0.369 C  
HETATM   38  O   UNL     1     -11.507  11.442  65.648  1.00  0.00    -0.104 OA 
HETATM   39  C   UNL     1      -9.978  11.993  63.920  1.00  0.00    -0.343 C  
HETATM   40  C   UNL     1     -10.456  12.348  65.329  1.00  0.00    -0.286 C  
HETATM   41  C   UNL     1     -12.637  13.095  67.035  1.00  0.00     0.399 C  
HETATM   42  C   UNL     1     -12.156  15.525  66.868  1.00  0.00     0.706 C  
BRANCH  37  43
HETATM   43  O   UNL     1     -10.566  13.952  67.853  1.00  0.00    -0.239 OA 
HETATM   44  C   UNL     1     -10.923  14.356  69.161  1.00  0.00    -0.265 C  
ENDBRANCH  37  43
ENDBRANCH  32  33
ENDBRANCH   9  32
BRANCH  13  45
HETATM   45  O   UNL     1      -7.761  12.305  69.470  1.00  0.00     0.418 OA 
BRANCH  45  46
HETATM   46  C   UNL     1      -7.113  13.513  69.045  1.00  0.00    -0.066 C  
HETATM   47  C   UNL     1      -5.146  15.899  70.976  1.00  0.00    -0.162 C  
HETATM   48  C   UNL     1      -7.474  15.819  67.848  1.00  0.00    -0.134 C  
HETATM   49  C   UNL     1      -7.969  14.386  68.129  1.00  0.00    -0.136 C  
HETATM   50  C   UNL     1      -6.800  16.382  69.117  1.00  0.00    -0.210 C  
HETATM   51  H   UNL     1      -8.698  14.214  66.337  1.00  0.00     0.000 HD 
HETATM   52  O   UNL     1      -8.166  13.671  66.907  1.00  0.00    -0.094 OA 
HETATM   53  O   UNL     1      -6.666  14.242  70.186  1.00  0.00    -0.117 OA 
HETATM   54  C   UNL     1      -5.870  15.354  69.762  1.00  0.00    -0.135 C  
BRANCH  48  55
HETATM   55  N   UNL     1      -8.610  16.700  67.403  1.00  0.00    -0.187 NA 
HETATM   56  C   UNL     1      -9.221  17.452  68.496  1.00  0.00    -0.277 C  
HETATM   57  C   UNL     1      -8.323  17.588  66.282  1.00  0.00    -0.224 C  
ENDBRANCH  48  55
ENDBRANCH  45  46
ENDBRANCH  13  45
ENDBRANCH   2   3
TORSDOF 7
ENDMDL
MODEL       60
REMARK 921   NORMALIZED FREE ENERGY PREDICTED BY IDOCK:    9.36 KCAL/MOL
REMARK 922        TOTAL FREE ENERGY PREDICTED BY IDOCK:   10.61 KCAL/MOL
REMARK 923 INTER-LIGAND FREE ENERGY PREDICTED BY IDOCK:    6.75 KCAL/MOL
REMARK 924 INTRA-LIGAND FREE ENERGY PREDICTED BY IDOCK:    3.86 KCAL/MOL
REMARK 927      BINDING AFFINITY PREDICTED BY RF-SCORE:    0.00 PKD
ROOT
HETATM    1  C   UNL     1      -9.898   6.251  62.867  1.00  0.00     2.956 C  
HETATM    2  C   UNL     1      -9.241   6.022  64.220  1.00  0.00     0.940 C  
ENDROOT
BRANCH   2   3
HETATM    3  C   UNL     1      -7.846   6.684  64.369  1.00  0.00    -0.114 C  
HETATM    4  O   UNL     1      -7.775   8.045  64.932  1.00  0.00    -0.102 OA 
HETATM    5  C   UNL     1      -8.626   8.515  65.869  1.00  0.00    -0.163 C  
HETATM    6  C   UNL     1      -8.296   9.952  66.319  1.00  0.00    -0.125 C  
HETATM    7  O   UNL     1      -9.590   7.891  66.274  1.00  0.00    -0.195 OA 
HETATM    8  C   UNL     1      -6.947  10.419  65.753  1.00  0.00    -0.136 C  
HETATM    9  C   UNL     1      -8.436  10.279  67.884  1.00  0.00    -0.118 C  
HETATM   10  C   UNL     1      -6.384   3.111  68.745  1.00  0.00    -0.029 C  
HETATM   11  C   UNL     1      -9.511   9.377  68.645  1.00  0.00    -0.147 C  
HETATM   12  C   UNL     1      -5.708   6.753  67.991  1.00  0.00    -0.016 C  
HETATM   13  C   UNL     1      -9.511   9.419  70.267  1.00  0.00    -0.251 C  
HETATM   14  C   UNL     1     -10.840   9.761  67.954  1.00  0.00    -0.298 C  
HETATM   15  C   UNL     1      -6.054   5.298  67.650  1.00  0.00    -0.030 C  
HETATM   16  C   UNL     1      -7.068   5.181  66.442  1.00  0.00    -0.072 C  
HETATM   17  C   UNL     1      -8.694   8.410  71.288  1.00  0.00    -0.162 C  
HETATM   18  C   UNL     1      -7.596   7.458  70.726  1.00  0.00    -0.083 C  
HETATM   19  C   UNL     1      -6.716   5.820  65.048  1.00  0.00    -0.047 C  
HETATM   20  C   UNL     1      -9.455   7.698  72.414  1.00  0.00    -0.217 C  
HETATM   21  H   UNL     1      -4.858   6.127  65.537  1.00  0.00     0.000 HD 
HETATM   22  O   UNL     1      -7.919   9.376  72.104  1.00  0.00     0.055 OA 
HETATM   23  C   UNL     1      -7.887   5.928  70.565  1.00  0.00    -0.101 C  
HETATM   24  H   UNL     1      -8.974   5.506  66.145  1.00  0.00     0.000 HD 
HETATM   25  N   UNL     1      -6.633   4.550  68.798  1.00  0.00    -0.044 NA 
HETATM   26  C   UNL     1      -9.112   5.581  69.732  1.00  0.00    -0.157 C  
HETATM   27  H   UNL     1      -7.449   8.795  72.691  1.00  0.00     0.000 HD 
HETATM   28  C   UNL     1      -6.285   4.690  64.092  1.00  0.00    -0.022 C  
HETATM   29  C   UNL     1      -6.633   5.081  70.162  1.00  0.00    -0.036 C  
HETATM   30  O   UNL     1      -5.539   6.648  65.128  1.00  0.00    -0.028 OA 
HETATM   31  O   UNL     1      -8.365   5.577  66.871  1.00  0.00    -0.108 OA 
BRANCH   9  32
HETATM   32  O   UNL     1      -8.809  11.692  67.869  1.00  0.00    -0.143 OA 
BRANCH  32  33
HETATM   33  C   UNL     1     -10.165  12.060  67.632  1.00  0.00    -0.199 C  
HETATM   34  O   UNL     1      -9.971  14.188  63.966  1.00  0.00    -0.303 OA 
HETATM   35  C   UNL     1     -10.417  13.598  65.188  1.00  0.00    -0.374 C  
HETATM   36  H   UNL     1     -10.346  13.770  63.200  1.00  0.00     0.000 HD 
HETATM   37  C   UNL     1      -9.805  14.281  66.440  1.00  0.00    -0.296 C  
HETATM   38  O   UNL     1     -10.665  11.488  66.417  1.00  0.00    -0.254 OA 
HETATM   39  C   UNL     1     -10.843  11.379  64.055  1.00  0.00    -0.450 C  
HETATM   40  C   UNL     1     -10.152  12.077  65.226  1.00  0.00    -0.260 C  
HETATM   41  C   UNL     1     -10.418  13.568  67.663  1.00  0.00    -0.239 C  
HETATM   42  C   UNL     1     -10.165  15.769  66.542  1.00  0.00    -0.294 C  
BRANCH  37  43
HETATM   43  O   UNL     1      -8.381  14.099  66.543  1.00  0.00     0.105 OA 
HETATM   44  C   UNL     1      -7.569  15.226  66.812  1.00  0.00     0.138 C  
ENDBRANCH  37  43
ENDBRANCH  32  33
ENDBRANCH   9  32
BRANCH  13  45
HETATM   45  O   UNL     1     -10.658  10.024  70.926  1.00  0.00    -0.271 OA 
BRANCH  45  46
HETATM   46  C   UNL     1     -11.171  11.293  70.493  1.00  0.00     0.372 C  
HETATM   47  C   UNL     1      -9.552  14.559  70.438  1.00  0.00     1.439 C  
HETATM   48  C   UNL     1     -13.119  13.023  70.798  1.00  0.00     0.154 C  
HETATM   49  C   UNL     1     -12.591  11.585  70.975  1.00  0.00    -0.357 C  
HETATM   50  C   UNL     1     -11.961  14.019  71.013  1.00  0.00    -0.313 C  
HETATM   51  H   UNL     1     -14.348  10.826  70.647  1.00  0.00     0.000 HD 
HETATM   52  O   UNL     1     -13.465  10.645  70.347  1.00  0.00     0.014 OA 
HETATM   53  O   UNL     1     -10.269  12.329  70.877  1.00  0.00     4.589 OA 
HETATM   54  C   UNL     1     -10.689  13.567  70.295  1.00  0.00     1.262 C  
BRANCH  48  55
HETATM   55  N   UNL     1     -14.253  13.297  71.747  1.00  0.00     0.155 NA 
HETATM   56  C   UNL     1     -14.255  12.418  72.914  1.00  0.00     1.631 C  
HETATM   57  C   UNL     1     -14.410  14.685  72.165  1.00  0.00    -0.503 C  
ENDBRANCH  48  55
ENDBRANCH  45  46
ENDBRANCH  13  45
ENDBRANCH   2   3
TORSDOF 7
ENDMDL
MODEL       61
REMARK 921   NORMALIZED FREE ENERGY PREDICTED BY IDOCK:    9.66 KCAL/MOL
REMARK 922        TOTAL FREE ENERGY PREDICTED BY IDOCK:   11.04 KCAL/MOL
REMARK 923 INTER-LIGAND FREE ENERGY PREDICTED BY IDOCK:    0.22 KCAL/MOL
REMARK 924 INTRA-LIGAND FREE ENERGY PREDICTED BY IDOCK:   10.82 KCAL/MOL
REMARK 927      BINDING AFFINITY PREDICTED BY RF-SCORE:    0.00 PKD
ROOT
HETATM    1  C   UNL     1     -13.004   8.298  71.483  1.00  0.00    -0.310 C  
HETATM    2  C   UNL     1     -13.112   7.757  70.064  1.00  0.00     2.022 C  
ENDROOT
BRANCH   2   3
HETATM    3  C   UNL     1     -12.218   6.520  69.786  1.00  0.00     0.647 C  
HETATM    4  O   UNL     1     -11.498   6.452  68.501  1.00  0.00    -0.228 OA 
HETATM    5  C   UNL     1     -11.025   7.536  67.848  1.00  0.00     0.044 C  
HETATM    6  C   UNL     1     -10.268   7.178  66.555  1.00  0.00    -0.131 C  
HETATM    7  O   UNL     1     -11.228   8.680  68.211  1.00  0.00     0.235 OA 
HETATM    8  C   UNL     1     -10.043   5.663  66.439  1.00  0.00    -0.199 C  
HETATM    9  C   UNL     1      -8.933   8.009  66.235  1.00  0.00    -0.171 C  
HETATM   10  C   UNL     1      -8.254   8.244  73.706  1.00  0.00    -0.199 C  
HETATM   11  C   UNL     1      -8.921   9.484  66.845  1.00  0.00    -0.148 C  
HETATM   12  C   UNL     1      -8.049   6.524  70.347  1.00  0.00    -0.117 C  
HETATM   13  C   UNL     1      -7.511  10.287  66.839  1.00  0.00    -0.101 C  
HETATM   14  C   UNL     1     -10.099  10.172  66.118  1.00  0.00    -0.314 C  
HETATM   15  C   UNL     1      -8.723   6.953  71.655  1.00  0.00    -0.124 C  
HETATM   16  C   UNL     1     -10.271   7.224  71.482  1.00  0.00    -0.193 C  
HETATM   17  C   UNL     1      -6.384  10.328  68.045  1.00  0.00    -0.056 C  
HETATM   18  C   UNL     1      -6.483   9.328  69.236  1.00  0.00    -0.045 C  
HETATM   19  C   UNL     1     -11.215   6.095  70.926  1.00  0.00    -0.299 C  
HETATM   20  C   UNL     1      -5.879  11.681  68.560  1.00  0.00    -0.049 C  
HETATM   21  H   UNL     1      -9.857   4.716  71.119  1.00  0.00     0.000 HD 
HETATM   22  O   UNL     1      -5.165   9.881  67.329  1.00  0.00    -0.038 OA 
HETATM   23  C   UNL     1      -6.986   9.816  70.635  1.00  0.00    -0.102 C  
HETATM   24  H   UNL     1     -11.394   8.606  70.671  1.00  0.00     0.000 HD 
HETATM   25  N   UNL     1      -8.117   8.173  72.253  1.00  0.00    -0.127 NA 
HETATM   26  C   UNL     1      -8.345  10.502  70.638  1.00  0.00     1.784 C  
HETATM   27  H   UNL     1      -4.517   9.904  68.023  1.00  0.00     0.000 HD 
HETATM   28  C   UNL     1     -12.002   5.496  72.109  1.00  0.00     0.135 C  
HETATM   29  C   UNL     1      -6.858   8.743  71.768  1.00  0.00    -0.062 C  
HETATM   30  O   UNL     1     -10.461   4.972  70.431  1.00  0.00    -0.249 OA 
HETATM   31  O   UNL     1     -10.464   8.443  70.775  1.00  0.00    -0.192 OA 
BRANCH   9  32
HETATM   32  O   UNL     1      -8.918   8.014  64.774  1.00  0.00     0.189 OA 
BRANCH  32  33
HETATM   33  C   UNL     1      -7.766   7.543  64.080  1.00  0.00    -0.125 C  
HETATM   34  O   UNL     1      -6.978   3.804  65.924  1.00  0.00    -0.059 OA 
HETATM   35  C   UNL     1      -6.895   4.982  65.121  1.00  0.00    -0.053 C  
HETATM   36  H   UNL     1      -7.143   3.022  65.410  1.00  0.00     0.000 HD 
HETATM   37  C   UNL     1      -6.626   6.260  65.961  1.00  0.00    -0.048 C  
HETATM   38  O   UNL     1      -8.026   6.311  63.396  1.00  0.00    -0.115 OA 
HETATM   39  C   UNL     1      -8.364   3.965  63.333  1.00  0.00    -0.091 C  
HETATM   40  C   UNL     1      -8.151   5.174  64.244  1.00  0.00    -0.125 C  
HETATM   41  C   UNL     1      -6.516   7.422  64.951  1.00  0.00    -0.037 C  
HETATM   42  C   UNL     1      -5.306   6.194  66.738  1.00  0.00    -0.009 C  
BRANCH  37  43
HETATM   43  O   UNL     1      -7.714   6.596  66.841  1.00  0.00    -0.102 OA 
HETATM   44  C   UNL     1      -7.499   6.539  68.239  1.00  0.00    -0.095 C  
ENDBRANCH  37  43
ENDBRANCH  32  33
ENDBRANCH   9  32
BRANCH  13  45
HETATM   45  O   UNL     1      -7.401  11.451  65.973  1.00  0.00     0.041 OA 
BRANCH  45  46
HETATM   46  C   UNL     1      -8.084  12.673  66.293  1.00  0.00     0.726 C  
HETATM   47  C   UNL     1      -8.252  14.483  69.453  1.00  0.00     0.135 C  
HETATM   48  C   UNL     1     -10.408  13.890  66.257  1.00  0.00    -0.293 C  
HETATM   49  C   UNL     1      -9.506  12.751  65.738  1.00  0.00    -0.010 C  
HETATM   50  C   UNL     1     -10.096  14.147  67.746  1.00  0.00    -0.239 C  
HETATM   51  H   UNL     1     -10.298  12.838  63.967  1.00  0.00     0.000 HD 
HETATM   52  O   UNL     1      -9.414  12.789  64.313  1.00  0.00     0.211 OA 
HETATM   53  O   UNL     1      -8.067  12.874  67.705  1.00  0.00    -0.142 OA 
HETATM   54  C   UNL     1      -8.590  14.171  68.009  1.00  0.00    -0.172 C  
BRANCH  48  55
HETATM   55  N   UNL     1     -11.860  13.553  66.058  1.00  0.00    -0.359 NA 
HETATM   56  C   UNL     1     -12.546  14.466  65.146  1.00  0.00    -0.315 C  
HETATM   57  C   UNL     1     -12.148  12.171  65.693  1.00  0.00    -0.104 C  
ENDBRANCH  48  55
ENDBRANCH  45  46
ENDBRANCH  13  45
ENDBRANCH   2   3
TORSDOF 7
ENDMDL
MODEL       62
REMARK 921   NORMALIZED FREE ENERGY PREDICTED BY IDOCK:   10.08 KCAL/MOL
REMARK 922        TOTAL FREE ENERGY PREDICTED BY IDOCK:   11.62 KCAL/MOL
REMARK 923 INTER-LIGAND FREE ENERGY PREDICTED BY IDOCK:    4.47 KCAL/MOL
REMARK 924 INTRA-LIGAND FREE ENERGY PREDICTED BY IDOCK:    7.15 KCAL/MOL
REMARK 927      BINDING AFFINITY PREDICTED BY RF-SCORE:    0.00 PKD
ROOT
HETATM    1  C   UNL     1      -8.480   5.880  67.612  1.00  0.00    -0.103 C  
HETATM    2  C   UNL     1      -8.056   4.711  68.489  1.00  0.00    -0.083 C  
ENDROOT
BRANCH   2   3
HETATM    3  C   UNL     1      -7.577   5.120  69.906  1.00  0.00    -0.064 C  
HETATM    4  O   UNL     1      -7.302   6.545  70.167  1.00  0.00    -0.084 OA 
HETATM    5  C   UNL     1      -7.977   7.559  69.582  1.00  0.00    -0.125 C  
HETATM    6  C   UNL     1      -7.522   8.948  70.071  1.00  0.00    -0.057 C  
HETATM    7  O   UNL     1      -8.817   7.395  68.716  1.00  0.00    -0.131 OA 
HETATM    8  C   UNL     1      -6.565   8.835  71.266  1.00  0.00    -0.075 C  
HETATM    9  C   UNL     1      -8.665  10.046  70.319  1.00  0.00     0.119 C  
HETATM   10  C   UNL     1     -12.842   4.104  72.208  1.00  0.00     3.704 C  
HETATM   11  C   UNL     1      -9.968   9.848  69.417  1.00  0.00    -0.227 C  
HETATM   12  C   UNL     1     -10.153   6.683  72.842  1.00  0.00    -0.200 C  
HETATM   13  C   UNL     1     -11.285  10.712  69.803  1.00  0.00    -0.297 C  
HETATM   14  C   UNL     1      -9.428  10.034  67.980  1.00  0.00    -0.150 C  
HETATM   15  C   UNL     1     -10.710   5.337  72.363  1.00  0.00    -0.229 C  
HETATM   16  C   UNL     1      -9.955   4.785  71.088  1.00  0.00    -0.202 C  
HETATM   17  C   UNL     1     -12.523  10.250  70.794  1.00  0.00    -0.346 C  
HETATM   18  C   UNL     1     -12.372   8.981  71.686  1.00  0.00    -0.416 C  
HETATM   19  C   UNL     1      -8.399   4.555  71.127  1.00  0.00    -0.091 C  
HETATM   20  C   UNL     1     -13.969  10.348  70.291  1.00  0.00     1.608 C  
HETATM   21  H   UNL     1      -8.309   4.763  73.059  1.00  0.00     0.000 HD 
HETATM   22  O   UNL     1     -12.544  11.357  71.781  1.00  0.00    -0.275 OA 
HETATM   23  C   UNL     1     -13.108   7.655  71.300  1.00  0.00    -0.279 C  
HETATM   24  H   UNL     1      -9.874   5.216  69.181  1.00  0.00     0.000 HD 
HETATM   25  N   UNL     1     -12.162   5.385  72.040  1.00  0.00     0.569 NA 
HETATM   26  C   UNL     1     -12.824   7.134  69.899  1.00  0.00     1.586 C  
HETATM   27  H   UNL     1     -13.256  11.091  72.351  1.00  0.00     0.000 HD 
HETATM   28  C   UNL     1      -8.137   3.043  71.270  1.00  0.00    -0.067 C  
HETATM   29  C   UNL     1     -13.005   6.531  72.386  1.00  0.00     0.278 C  
HETATM   30  O   UNL     1      -7.813   5.104  72.323  1.00  0.00    -0.097 OA 
HETATM   31  O   UNL     1     -10.329   5.548  69.947  1.00  0.00    -0.246 OA 
BRANCH   9  32
HETATM   32  O   UNL     1      -7.965  11.292  70.014  1.00  0.00     0.611 OA 
BRANCH  32  33
HETATM   33  C   UNL     1      -6.542  11.331  70.071  1.00  0.00    -0.066 C  
HETATM   34  O   UNL     1      -5.458  12.901  66.280  1.00  0.00     0.666 OA 
HETATM   35  C   UNL     1      -5.426  12.327  67.588  1.00  0.00    -0.100 C  
HETATM   36  H   UNL     1      -5.106  13.783  66.259  1.00  0.00     0.000 HD 
HETATM   37  C   UNL     1      -6.001  10.886  67.622  1.00  0.00    -0.043 C  
HETATM   38  O   UNL     1      -6.043  12.668  69.938  1.00  0.00    -0.130 OA 
HETATM   39  C   UNL     1      -5.513  14.606  68.678  1.00  0.00    -0.094 C  
HETATM   40  C   UNL     1      -6.144  13.214  68.627  1.00  0.00    -0.080 C  
HETATM   41  C   UNL     1      -5.849  10.397  69.078  1.00  0.00    -0.040 C  
HETATM   42  C   UNL     1      -5.227   9.914  66.723  1.00  0.00    -0.041 C  
BRANCH  37  43
HETATM   43  O   UNL     1      -7.409  10.833  67.327  1.00  0.00    -0.091 OA 
HETATM   44  C   UNL     1      -7.832  11.041  65.993  1.00  0.00    -0.077 C  
ENDBRANCH  37  43
ENDBRANCH  32  33
ENDBRANCH   9  32
BRANCH  13  45
HETATM   45  O   UNL     1     -11.711  11.746  68.872  1.00  0.00    -0.276 OA 
BRANCH  45  46
HETATM   46  C   UNL     1     -11.318  13.113  69.061  1.00  0.00    -0.282 C  
HETATM   47  C   UNL     1     -12.765  15.671  71.218  1.00  0.00    -0.537 C  
HETATM   48  C   UNL     1     -10.841  15.384  67.838  1.00  0.00    -0.300 C  
HETATM   49  C   UNL     1     -11.000  13.852  67.762  1.00  0.00    -0.256 C  
HETATM   50  C   UNL     1     -11.832  15.948  68.877  1.00  0.00    -0.314 C  
HETATM   51  H   UNL     1      -9.638  13.710  66.385  1.00  0.00     0.000 HD 
HETATM   52  O   UNL     1      -9.836  13.250  67.193  1.00  0.00    -0.228 OA 
HETATM   53  O   UNL     1     -12.316  13.797  69.816  1.00  0.00    -0.319 OA 
HETATM   54  C   UNL     1     -11.846  15.106  70.154  1.00  0.00    -0.313 C  
BRANCH  48  55
HETATM   55  N   UNL     1     -11.057  16.012  66.488  1.00  0.00    -0.073 NA 
HETATM   56  C   UNL     1     -12.052  17.082  66.500  1.00  0.00     3.106 C  
HETATM   57  C   UNL     1      -9.853  16.455  65.793  1.00  0.00    -0.271 C  
ENDBRANCH  48  55
ENDBRANCH  45  46
ENDBRANCH  13  45
ENDBRANCH   2   3
TORSDOF 7
ENDMDL
MODEL       63
REMARK 921   NORMALIZED FREE ENERGY PREDICTED BY IDOCK:   10.43 KCAL/MOL
REMARK 922        TOTAL FREE ENERGY PREDICTED BY IDOCK:   12.13 KCAL/MOL
REMARK 923 INTER-LIGAND FREE ENERGY PREDICTED BY IDOCK:   10.01 KCAL/MOL
REMARK 924 INTRA-LIGAND FREE ENERGY PREDICTED BY IDOCK:    2.11 KCAL/MOL
REMARK 927      BINDING AFFINITY PREDICTED BY RF-SCORE:    0.00 PKD
ROOT
HETATM    1  C   UNL     1     -10.892   4.314  70.593  1.00  0.00     1.328 C  
HETATM    2  C   UNL     1     -10.551   5.743  70.196  1.00  0.00    -0.377 C  
ENDROOT
BRANCH   2   3
HETATM    3  C   UNL     1     -11.307   6.250  68.940  1.00  0.00    -0.186 C  
HETATM    4  O   UNL     1     -11.630   7.686  68.851  1.00  0.00     0.581 OA 
HETATM    5  C   UNL     1     -10.852   8.664  69.363  1.00  0.00    -0.095 C  
HETATM    6  C   UNL     1     -11.397  10.078  69.084  1.00  0.00    -0.146 C  
HETATM    7  O   UNL     1      -9.854   8.449  70.028  1.00  0.00    -0.179 OA 
HETATM    8  C   UNL     1     -12.576  10.039  68.102  1.00  0.00     4.257 C  
HETATM    9  C   UNL     1     -10.329  11.211  68.697  1.00  0.00    -0.203 C  
HETATM   10  C   UNL     1      -6.614   5.496  65.554  1.00  0.00    -0.040 C  
HETATM   11  C   UNL     1      -8.871  10.967  69.300  1.00  0.00     0.020 C  
HETATM   12  C   UNL     1      -9.378   8.071  65.675  1.00  0.00     0.086 C  
HETATM   13  C   UNL     1      -7.659  11.879  68.725  1.00  0.00    -0.090 C  
HETATM   14  C   UNL     1      -9.109  11.035  70.826  1.00  0.00     4.175 C  
HETATM   15  C   UNL     1      -8.735   6.703  65.927  1.00  0.00    -0.137 C  
HETATM   16  C   UNL     1      -9.217   6.044  67.281  1.00  0.00    -0.114 C  
HETATM   17  C   UNL     1      -6.647  11.513  67.472  1.00  0.00    -0.087 C  
HETATM   18  C   UNL     1      -6.973  10.313  66.534  1.00  0.00    -0.107 C  
HETATM   19  C   UNL     1     -10.748   5.792  67.539  1.00  0.00    -0.236 C  
HETATM   20  C   UNL     1      -5.129  11.596  67.679  1.00  0.00    -0.058 C  
HETATM   21  H   UNL     1     -11.227   6.143  65.687  1.00  0.00     0.000 HD 
HETATM   22  O   UNL     1      -6.827  12.692  66.590  1.00  0.00    -0.368 OA 
HETATM   23  C   UNL     1      -6.174   8.973  66.660  1.00  0.00    -0.061 C  
HETATM   24  H   UNL     1      -8.910   6.329  69.193  1.00  0.00     0.000 HD 
HETATM   25  N   UNL     1      -7.248   6.750  65.954  1.00  0.00    -0.069 NA 
HETATM   26  C   UNL     1      -6.169   8.344  68.046  1.00  0.00    -0.052 C  
HETATM   27  H   UNL     1      -6.245  12.481  65.869  1.00  0.00     0.000 HD 
HETATM   28  C   UNL     1     -11.032   4.291  67.335  1.00  0.00     2.280 C  
HETATM   29  C   UNL     1      -6.493   7.933  65.534  1.00  0.00    -0.042 C  
HETATM   30  O   UNL     1     -11.564   6.420  66.531  1.00  0.00     0.286 OA 
HETATM   31  O   UNL     1      -8.621   6.725  68.379  1.00  0.00    -0.124 OA 
BRANCH   9  32
HETATM   32  O   UNL     1     -10.955  12.418  69.232  1.00  0.00    -0.191 OA 
BRANCH  32  33
HETATM   33  C   UNL     1     -12.304  12.722  68.891  1.00  0.00     0.217 C  
HETATM   34  O   UNL     1     -12.415  16.961  69.042  1.00  0.00     0.537 OA 
HETATM   35  C   UNL     1     -12.772  15.582  68.938  1.00  0.00     0.722 C  
HETATM   36  H   UNL     1     -12.498  17.424  68.216  1.00  0.00     0.000 HD 
HETATM   37  C   UNL     1     -12.636  14.826  70.286  1.00  0.00    -0.315 C  
HETATM   38  O   UNL     1     -12.384  13.504  67.692  1.00  0.00    -0.248 OA 
HETATM   39  C   UNL     1     -12.183  15.532  66.480  1.00  0.00     0.967 C  
HETATM   40  C   UNL     1     -11.969  14.858  67.836  1.00  0.00    -0.176 C  
HETATM   41  C   UNL     1     -13.101  13.380  70.017  1.00  0.00     0.660 C  
HETATM   42  C   UNL     1     -13.533  15.406  71.387  1.00  0.00    -0.607 C  
BRANCH  37  43
HETATM   43  O   UNL     1     -11.275  14.730  70.744  1.00  0.00    -0.220 OA 
HETATM   44  C   UNL     1     -10.802  15.683  71.678  1.00  0.00     0.244 C  
ENDBRANCH  37  43
ENDBRANCH  32  33
ENDBRANCH   9  32
BRANCH  13  45
HETATM   45  O   UNL     1      -7.055  12.846  69.628  1.00  0.00     0.165 OA 
BRANCH  45  46
HETATM   46  C   UNL     1      -6.731  14.170  69.177  1.00  0.00    -0.118 C  
HETATM   47  C   UNL     1      -5.240  16.949  71.006  1.00  0.00    -0.137 C  
HETATM   48  C   UNL     1      -7.690  16.329  68.035  1.00  0.00    -0.148 C  
HETATM   49  C   UNL     1      -7.823  14.820  68.329  1.00  0.00    -0.125 C  
HETATM   50  C   UNL     1      -7.080  17.034  69.264  1.00  0.00    -0.177 C  
HETATM   51  H   UNL     1      -8.610  14.480  66.587  1.00  0.00     0.000 HD 
HETATM   52  O   UNL     1      -7.931  14.076  67.114  1.00  0.00    -0.157 OA 
HETATM   53  O   UNL     1      -6.389  14.986  70.296  1.00  0.00    -0.159 OA 
HETATM   54  C   UNL     1      -5.899  16.249  69.835  1.00  0.00    -0.187 C  
BRANCH  48  55
HETATM   55  N   UNL     1      -9.024  16.923  67.676  1.00  0.00    -0.217 NA 
HETATM   56  C   UNL     1      -9.294  18.189  68.353  1.00  0.00    -0.309 C  
HETATM   57  C   UNL     1      -9.299  17.050  66.248  1.00  0.00    -0.248 C  
ENDBRANCH  48  55
ENDBRANCH  45  46
ENDBRANCH  13  45
ENDBRANCH   2   3
TORSDOF 7
ENDMDL
MODEL       64
REMARK 921   NORMALIZED FREE ENERGY PREDICTED BY IDOCK:   10.52 KCAL/MOL
REMARK 922        TOTAL FREE ENERGY PREDICTED BY IDOCK:   12.25 KCAL/MOL
REMARK 923 INTER-LIGAND FREE ENERGY PREDICTED BY IDOCK:    2.89 KCAL/MOL
REMARK 924 INTRA-LIGAND FREE ENERGY PREDICTED BY IDOCK:    9.36 KCAL/MOL
REMARK 927      BINDING AFFINITY PREDICTED BY RF-SCORE:    0.00 PKD
ROOT
HETATM    1  C   UNL     1     -11.499  15.359  70.846  1.00  0.00    -0.396 C  
HETATM    2  C   UNL     1     -11.086  16.692  70.238  1.00  0.00    -0.041 C  
ENDROOT
BRANCH   2   3
HETATM    3  C   UNL     1      -9.652  16.703  69.646  1.00  0.00     0.205 C  
HETATM    4  O   UNL     1      -8.828  15.488  69.787  1.00  0.00    -0.233 OA 
HETATM    5  C   UNL     1      -9.333  14.234  69.786  1.00  0.00     0.887 C  
HETATM    6  C   UNL     1      -8.247  13.147  69.896  1.00  0.00     2.295 C  
HETATM    7  O   UNL     1     -10.526  13.992  69.760  1.00  0.00     0.152 OA 
HETATM    8  C   UNL     1      -6.840  13.744  69.759  1.00  0.00     0.100 C  
HETATM    9  C   UNL     1      -8.434  11.833  68.993  1.00  0.00     0.217 C  
HETATM   10  C   UNL     1     -11.683  16.585  64.177  1.00  0.00     0.623 C  
HETATM   11  C   UNL     1      -9.954  11.484  68.654  1.00  0.00    -0.207 C  
HETATM   12  C   UNL     1      -8.697  15.038  65.903  1.00  0.00     0.517 C  
HETATM   13  C   UNL     1     -10.230  10.368  67.510  1.00  0.00    -0.210 C  
HETATM   14  C   UNL     1     -10.565  11.199  70.046  1.00  0.00     0.289 C  
HETATM   15  C   UNL     1      -9.826  16.059  65.715  1.00  0.00    -0.323 C  
HETATM   16  C   UNL     1     -10.428  16.559  67.089  1.00  0.00    -0.300 C  
HETATM   17  C   UNL     1     -10.464  10.632  65.897  1.00  0.00    -0.174 C  
HETATM   18  C   UNL     1     -10.156  12.033  65.287  1.00  0.00    -0.289 C  
HETATM   19  C   UNL     1      -9.495  17.225  68.167  1.00  0.00    -0.278 C  
HETATM   20  C   UNL     1     -11.697  10.037  65.206  1.00  0.00     4.268 C  
HETATM   21  H   UNL     1      -8.010  17.409  66.924  1.00  0.00     0.000 HD 
HETATM   22  O   UNL     1      -9.420   9.765  65.299  1.00  0.00    -0.241 OA 
HETATM   23  C   UNL     1     -11.326  13.001  64.908  1.00  0.00    -0.332 C  
HETATM   24  H   UNL     1     -11.579  15.827  68.492  1.00  0.00     0.000 HD 
HETATM   25  N   UNL     1     -10.952  15.542  64.892  1.00  0.00    -0.439 NA 
HETATM   26  C   UNL     1     -12.304  13.315  66.031  1.00  0.00    -0.449 C  
HETATM   27  H   UNL     1      -9.554   9.918  64.371  1.00  0.00     0.000 HD 
HETATM   28  C   UNL     1      -9.724  18.749  68.131  1.00  0.00    -0.384 C  
HETATM   29  C   UNL     1     -10.864  14.287  64.142  1.00  0.00     0.266 C  
HETATM   30  O   UNL     1      -8.104  17.094  67.816  1.00  0.00    -0.187 OA 
HETATM   31  O   UNL     1     -11.217  15.526  67.666  1.00  0.00    -0.323 OA 
BRANCH   9  32
HETATM   32  O   UNL     1      -7.799  10.805  69.814  1.00  0.00    -0.057 OA 
BRANCH  32  33
HETATM   33  C   UNL     1      -6.380  10.676  69.810  1.00  0.00    -0.099 C  
HETATM   34  O   UNL     1      -5.519   9.516  65.820  1.00  0.00    -0.039 OA 
HETATM   35  C   UNL     1      -5.417   9.835  67.209  1.00  0.00    -0.039 C  
HETATM   36  H   UNL     1      -5.086  10.154  65.265  1.00  0.00     0.000 HD 
HETATM   37  C   UNL     1      -6.125   8.793  68.115  1.00  0.00    -0.051 C  
HETATM   38  O   UNL     1      -5.768  11.588  68.889  1.00  0.00    -0.046 OA 
HETATM   39  C   UNL     1      -5.174  12.300  66.707  1.00  0.00     0.188 C  
HETATM   40  C   UNL     1      -5.941  11.254  67.516  1.00  0.00    -0.055 C  
HETATM   41  C   UNL     1      -5.882   9.251  69.568  1.00  0.00    -0.033 C  
HETATM   42  C   UNL     1      -5.540   7.382  67.969  1.00  0.00    -0.026 C  
BRANCH  37  43
HETATM   43  O   UNL     1      -7.553   8.767  67.937  1.00  0.00    -0.095 OA 
HETATM   44  C   UNL     1      -8.080   8.222  66.742  1.00  0.00    -0.103 C  
ENDBRANCH  37  43
ENDBRANCH  32  33
ENDBRANCH   9  32
BRANCH  13  45
HETATM   45  O   UNL     1     -10.816   9.103  67.929  1.00  0.00    -0.196 OA 
BRANCH  45  46
HETATM   46  C   UNL     1     -10.088   7.873  67.788  1.00  0.00    -0.192 C  
HETATM   47  C   UNL     1     -10.482   5.209  65.331  1.00  0.00     0.220 C  
HETATM   48  C   UNL     1      -9.331   5.689  69.027  1.00  0.00    -0.124 C  
HETATM   49  C   UNL     1      -9.852   7.138  69.106  1.00  0.00    -0.160 C  
HETATM   50  C   UNL     1      -9.956   4.990  67.802  1.00  0.00    -0.198 C  
HETATM   51  H   UNL     1      -8.836   7.488  70.724  1.00  0.00     0.000 HD 
HETATM   52  O   UNL     1      -8.983   7.945  69.904  1.00  0.00    -0.144 OA 
HETATM   53  O   UNL     1     -10.745   7.037  66.838  1.00  0.00    -0.324 OA 
HETATM   54  C   UNL     1      -9.930   5.891  66.567  1.00  0.00    -0.153 C  
BRANCH  48  55
HETATM   55  N   UNL     1      -9.640   4.940  70.294  1.00  0.00    -0.177 NA 
HETATM   56  C   UNL     1      -8.484   4.793  71.175  1.00  0.00    -0.106 C  
HETATM   57  C   UNL     1     -10.789   5.421  71.052  1.00  0.00    -0.119 C  
ENDBRANCH  48  55
ENDBRANCH  45  46
ENDBRANCH  13  45
ENDBRANCH   2   3
TORSDOF 7
ENDMDL
MODEL       65
REMARK 921   NORMALIZED FREE ENERGY PREDICTED BY IDOCK:   10.58 KCAL/MOL
REMARK 922        TOTAL FREE ENERGY PREDICTED BY IDOCK:   12.34 KCAL/MOL
REMARK 923 INTER-LIGAND FREE ENERGY PREDICTED BY IDOCK:    3.02 KCAL/MOL
REMARK 924 INTRA-LIGAND FREE ENERGY PREDICTED BY IDOCK:    9.32 KCAL/MOL
REMARK 927      BINDING AFFINITY PREDICTED BY RF-SCORE:    0.00 PKD
ROOT
HETATM    1  C   UNL     1     -10.460   8.785  67.053  1.00  0.00    -0.338 C  
HETATM    2  C   UNL     1     -10.498   8.382  65.586  1.00  0.00     1.984 C  
ENDROOT
BRANCH   2   3
HETATM    3  C   UNL     1      -9.535   9.193  64.679  1.00  0.00     0.312 C  
HETATM    4  O   UNL     1      -9.746  10.647  64.558  1.00  0.00    -0.253 OA 
HETATM    5  C   UNL     1     -10.223  11.422  65.557  1.00  0.00    -0.264 C  
HETATM    6  C   UNL     1     -10.298  12.914  65.180  1.00  0.00    -0.320 C  
HETATM    7  O   UNL     1     -10.610  10.979  66.623  1.00  0.00    -0.247 OA 
HETATM    8  C   UNL     1      -9.604  13.187  63.837  1.00  0.00     1.357 C  
HETATM    9  C   UNL     1      -9.868  13.975  66.305  1.00  0.00    -0.305 C  
HETATM   10  C   UNL     1      -5.126   8.568  68.450  1.00  0.00    -0.033 C  
HETATM   11  C   UNL     1     -10.090  13.465  67.801  1.00  0.00    -0.232 C  
HETATM   12  C   UNL     1      -6.255  11.364  66.171  1.00  0.00     0.066 C  
HETATM   13  C   UNL     1      -9.414  14.329  68.996  1.00  0.00     0.014 C  
HETATM   14  C   UNL     1     -11.623  13.276  67.882  1.00  0.00    -0.370 C  
HETATM   15  C   UNL     1      -6.140   9.910  66.644  1.00  0.00    -0.060 C  
HETATM   16  C   UNL     1      -7.447   9.069  66.348  1.00  0.00    -0.092 C  
HETATM   17  C   UNL     1      -7.928  14.093  69.676  1.00  0.00     0.543 C  
HETATM   18  C   UNL     1      -6.907  13.130  68.999  1.00  0.00    -0.090 C  
HETATM   19  C   UNL     1      -7.991   8.943  64.877  1.00  0.00    -0.129 C  
HETATM   20  C   UNL     1      -7.807  13.969  71.201  1.00  0.00     4.234 C  
HETATM   21  H   UNL     1      -6.368   9.681  64.099  1.00  0.00     0.000 HD 
HETATM   22  O   UNL     1      -7.304  15.427  69.500  1.00  0.00    -0.195 OA 
HETATM   23  C   UNL     1      -6.642  11.711  69.603  1.00  0.00    -0.096 C  
HETATM   24  H   UNL     1      -9.264   8.960  67.063  1.00  0.00     0.000 HD 
HETATM   25  N   UNL     1      -5.847   9.788  68.098  1.00  0.00    -0.040 NA 
HETATM   26  C   UNL     1      -7.876  10.839  69.790  1.00  0.00     0.125 C  
HETATM   27  H   UNL     1      -6.449  15.290  69.892  1.00  0.00     0.000 HD 
HETATM   28  C   UNL     1      -7.621   7.546  64.342  1.00  0.00    -0.111 C  
HETATM   29  C   UNL     1      -5.464  10.938  68.920  1.00  0.00    -0.040 C  
HETATM   30  O   UNL     1      -7.299   9.832  63.979  1.00  0.00    -0.118 OA 
HETATM   31  O   UNL     1      -8.479   9.465  67.242  1.00  0.00    -0.123 OA 
BRANCH   9  32
HETATM   32  O   UNL     1     -10.711  15.124  65.980  1.00  0.00    -0.310 OA 
BRANCH  32  33
HETATM   33  C   UNL     1     -10.227  16.123  65.088  1.00  0.00    -0.060 C  
HETATM   34  O   UNL     1      -8.214  18.832  67.661  1.00  0.00    -0.258 OA 
HETATM   35  C   UNL     1      -8.811  18.205  66.524  1.00  0.00    -0.271 C  
HETATM   36  H   UNL     1      -7.266  18.860  67.607  1.00  0.00     0.000 HD 
HETATM   37  C   UNL     1     -10.360  18.159  66.612  1.00  0.00    -0.376 C  
HETATM   38  O   UNL     1      -8.796  16.202  65.107  1.00  0.00     0.499 OA 
HETATM   39  C   UNL     1      -6.732  16.836  66.087  1.00  0.00     0.285 C  
HETATM   40  C   UNL     1      -8.247  16.788  66.283  1.00  0.00    -0.324 C  
HETATM   41  C   UNL     1     -10.845  17.505  65.301  1.00  0.00     0.123 C  
HETATM   42  C   UNL     1     -10.992  19.554  66.696  1.00  0.00    -0.370 C  
BRANCH  37  43
HETATM   43  O   UNL     1     -10.840  17.322  67.679  1.00  0.00    -0.335 OA 
HETATM   44  C   UNL     1     -10.605  17.722  69.016  1.00  0.00    -0.012 C  
ENDBRANCH  37  43
ENDBRANCH  32  33
ENDBRANCH   9  32
BRANCH  13  45
HETATM   45  O   UNL     1     -10.303  15.041  69.901  1.00  0.00    -0.207 OA 
BRANCH  45  46
HETATM   46  C   UNL     1     -11.615  14.534  70.192  1.00  0.00    -0.276 C  
HETATM   47  C   UNL     1     -14.346  16.081  72.045  1.00  0.00     0.267 C  
HETATM   48  C   UNL     1     -12.943  12.532  71.244  1.00  0.00    -0.208 C  
HETATM   49  C   UNL     1     -11.628  13.076  70.648  1.00  0.00     0.454 C  
HETATM   50  C   UNL     1     -13.635  13.648  72.053  1.00  0.00    -0.585 C  
HETATM   51  H   UNL     1     -11.210  11.365  69.830  1.00  0.00     0.000 HD 
HETATM   52  O   UNL     1     -11.202  12.272  69.547  1.00  0.00    -0.208 OA 
HETATM   53  O   UNL     1     -12.254  15.382  71.144  1.00  0.00    -0.309 OA 
HETATM   54  C   UNL     1     -13.618  14.980  71.302  1.00  0.00    -0.453 C  
BRANCH  48  55
HETATM   55  N   UNL     1     -12.681  11.324  72.102  1.00  0.00    -0.024 NA 
HETATM   56  C   UNL     1     -13.884  10.547  72.390  1.00  0.00     0.430 C  
HETATM   57  C   UNL     1     -11.612  10.442  71.647  1.00  0.00     0.363 C  
ENDBRANCH  48  55
ENDBRANCH  45  46
ENDBRANCH  13  45
ENDBRANCH   2   3
TORSDOF 7
ENDMDL
MODEL       66
REMARK 921   NORMALIZED FREE ENERGY PREDICTED BY IDOCK:   11.05 KCAL/MOL
REMARK 922        TOTAL FREE ENERGY PREDICTED BY IDOCK:   13.00 KCAL/MOL
REMARK 923 INTER-LIGAND FREE ENERGY PREDICTED BY IDOCK:    5.99 KCAL/MOL
REMARK 924 INTRA-LIGAND FREE ENERGY PREDICTED BY IDOCK:    7.01 KCAL/MOL
REMARK 927      BINDING AFFINITY PREDICTED BY RF-SCORE:    0.00 PKD
ROOT
HETATM    1  C   UNL     1     -10.017   2.874  68.936  1.00  0.00     0.563 C  
HETATM    2  C   UNL     1      -9.867   4.385  68.824  1.00  0.00    -0.149 C  
ENDROOT
BRANCH   2   3
HETATM    3  C   UNL     1     -10.734   5.028  67.710  1.00  0.00     0.255 C  
HETATM    4  O   UNL     1     -11.187   6.419  67.891  1.00  0.00    -0.319 OA 
HETATM    5  C   UNL     1     -10.470   7.363  68.539  1.00  0.00    -0.186 C  
HETATM    6  C   UNL     1     -11.152   8.745  68.539  1.00  0.00     0.239 C  
HETATM    7  O   UNL     1      -9.422   7.133  69.115  1.00  0.00    -0.148 OA 
HETATM    8  C   UNL     1     -12.376   8.764  67.613  1.00  0.00     6.908 C  
HETATM    9  C   UNL     1     -10.211  10.025  68.318  1.00  0.00    -0.173 C  
HETATM   10  C   UNL     1      -6.190   5.331  64.061  1.00  0.00    -0.022 C  
HETATM   11  C   UNL     1      -8.706   9.822  68.810  1.00  0.00    -0.128 C  
HETATM   12  C   UNL     1      -9.158   7.567  64.749  1.00  0.00     0.845 C  
HETATM   13  C   UNL     1      -7.613  10.933  68.359  1.00  0.00    -0.104 C  
HETATM   14  C   UNL     1      -8.863   9.600  70.332  1.00  0.00    -0.227 C  
HETATM   15  C   UNL     1      -8.384   6.244  64.726  1.00  0.00    -0.051 C  
HETATM   16  C   UNL     1      -8.730   5.316  65.960  1.00  0.00    -0.137 C  
HETATM   17  C   UNL     1      -6.644  10.890  67.022  1.00  0.00    -0.090 C  
HETATM   18  C   UNL     1      -6.916   9.846  65.898  1.00  0.00    -0.106 C  
HETATM   19  C   UNL     1     -10.216   4.876  66.228  1.00  0.00    -0.279 C  
HETATM   20  C   UNL     1      -5.131  11.082  67.181  1.00  0.00    -0.047 C  
HETATM   21  H   UNL     1     -10.827   5.497  64.489  1.00  0.00     0.000 HD 
HETATM   22  O   UNL     1      -6.976  12.182  66.372  1.00  0.00    -0.319 OA 
HETATM   23  C   UNL     1      -5.996   8.588  65.752  1.00  0.00    -0.048 C  
HETATM   24  H   UNL     1      -8.343   5.292  67.878  1.00  0.00     0.000 HD 
HETATM   25  N   UNL     1      -6.908   6.429  64.703  1.00  0.00    -0.042 NA 
HETATM   26  C   UNL     1      -5.858   7.731  67.002  1.00  0.00    -0.044 C  
HETATM   27  H   UNL     1      -6.419  12.156  65.603  1.00  0.00     0.000 HD 
HETATM   28  C   UNL     1     -10.378   3.413  65.771  1.00  0.00     0.761 C  
HETATM   29  C   UNL     1      -6.285   7.734  64.471  1.00  0.00    -0.045 C  
HETATM   30  O   UNL     1     -11.139   5.588  65.382  1.00  0.00     0.707 OA 
HETATM   31  O   UNL     1      -8.135   5.850  67.137  1.00  0.00    -0.102 OA 
BRANCH   9  32
HETATM   32  O   UNL     1     -10.910  11.055  69.084  1.00  0.00    -0.212 OA 
BRANCH  32  33
HETATM   33  C   UNL     1     -10.362  12.367  69.164  1.00  0.00     0.166 C  
HETATM   34  O   UNL     1     -13.176  14.728  67.038  1.00  0.00     1.031 OA 
HETATM   35  C   UNL     1     -12.024  14.279  67.755  1.00  0.00    -0.349 C  
HETATM   36  H   UNL     1     -13.711  15.328  67.544  1.00  0.00     0.000 HD 
HETATM   37  C   UNL     1     -11.151  13.298  66.928  1.00  0.00    -0.289 C  
HETATM   38  O   UNL     1     -11.241  13.268  69.849  1.00  0.00    -0.069 OA 
HETATM   39  C   UNL     1     -13.169  14.643  69.979  1.00  0.00     0.359 C  
HETATM   40  C   UNL     1     -12.399  13.646  69.112  1.00  0.00    -0.076 C  
HETATM   41  C   UNL     1      -9.937  12.951  67.816  1.00  0.00    -0.230 C  
HETATM   42  C   UNL     1     -10.615  13.924  65.634  1.00  0.00    -0.306 C  
BRANCH  37  43
HETATM   43  O   UNL     1     -11.812  12.050  66.649  1.00  0.00    -0.583 OA 
HETATM   44  C   UNL     1     -12.344  11.838  65.355  1.00  0.00     0.780 C  
ENDBRANCH  37  43
ENDBRANCH  32  33
ENDBRANCH   9  32
BRANCH  13  45
HETATM   45  O   UNL     1      -7.047  11.782  69.396  1.00  0.00    -0.076 OA 
BRANCH  45  46
HETATM   46  C   UNL     1      -6.630  13.124  69.101  1.00  0.00    -0.104 C  
HETATM   47  C   UNL     1      -5.152  15.634  71.293  1.00  0.00    -0.136 C  
HETATM   48  C   UNL     1      -7.403  15.428  68.114  1.00  0.00    -0.116 C  
HETATM   49  C   UNL     1      -7.626  13.908  68.248  1.00  0.00    -0.130 C  
HETATM   50  C   UNL     1      -6.853  15.981  69.446  1.00  0.00    -0.215 C  
HETATM   51  H   UNL     1      -8.298  13.777  66.431  1.00  0.00     0.000 HD 
HETATM   52  O   UNL     1      -7.679  13.290  66.961  1.00  0.00    -0.059 OA 
HETATM   53  O   UNL     1      -6.335  13.810  70.316  1.00  0.00    -0.123 OA 
HETATM   54  C   UNL     1      -5.754  15.084  70.016  1.00  0.00    -0.128 C  
BRANCH  48  55
HETATM   55  N   UNL     1      -8.678  16.124  67.724  1.00  0.00    -0.171 NA 
HETATM   56  C   UNL     1      -9.356  16.763  68.850  1.00  0.00    -0.233 C  
HETATM   57  C   UNL     1      -8.577  17.055  66.606  1.00  0.00    -0.252 C  
ENDBRANCH  48  55
ENDBRANCH  45  46
ENDBRANCH  13  45
ENDBRANCH   2   3
TORSDOF 7
ENDMDL
MODEL       67
REMARK 921   NORMALIZED FREE ENERGY PREDICTED BY IDOCK:   11.13 KCAL/MOL
REMARK 922        TOTAL FREE ENERGY PREDICTED BY IDOCK:   13.11 KCAL/MOL
REMARK 923 INTER-LIGAND FREE ENERGY PREDICTED BY IDOCK:    8.80 KCAL/MOL
REMARK 924 INTRA-LIGAND FREE ENERGY PREDICTED BY IDOCK:    4.31 KCAL/MOL
REMARK 927      BINDING AFFINITY PREDICTED BY RF-SCORE:    0.00 PKD
ROOT
HETATM    1  C   UNL     1      -6.100  19.097  64.108  1.00  0.00    -0.012 C  
HETATM    2  C   UNL     1      -5.876  19.515  65.554  1.00  0.00    -0.208 C  
ENDROOT
BRANCH   2   3
HETATM    3  C   UNL     1      -7.173  19.910  66.309  1.00  0.00    -0.276 C  
HETATM    4  O   UNL     1      -8.404  19.148  66.031  1.00  0.00    -0.429 OA 
HETATM    5  C   UNL     1      -8.418  17.833  65.719  1.00  0.00     0.293 C  
HETATM    6  C   UNL     1      -9.841  17.274  65.528  1.00  0.00     0.225 C  
HETATM    7  O   UNL     1      -7.409  17.173  65.548  1.00  0.00    -0.017 OA 
HETATM    8  C   UNL     1     -10.905  18.294  65.955  1.00  0.00    -0.008 C  
HETATM    9  C   UNL     1     -10.137  15.812  66.119  1.00  0.00    -0.318 C  
HETATM   10  C   UNL     1      -5.133  17.794  71.350  1.00  0.00    -0.045 C  
HETATM   11  C   UNL     1      -8.855  14.864  66.191  1.00  0.00     0.014 C  
HETATM   12  C   UNL     1      -8.548  17.889  69.732  1.00  0.00     1.333 C  
HETATM   13  C   UNL     1      -8.984  13.491  67.045  1.00  0.00    -0.231 C  
HETATM   14  C   UNL     1      -8.454  14.707  64.706  1.00  0.00     6.269 C  
HETATM   15  C   UNL     1      -7.108  18.354  69.979  1.00  0.00     0.729 C  
HETATM   16  C   UNL     1      -6.413  18.905  68.669  1.00  0.00    -0.248 C  
HETATM   17  C   UNL     1      -8.605  13.270  68.637  1.00  0.00     0.026 C  
HETATM   18  C   UNL     1      -8.329  14.503  69.549  1.00  0.00     0.255 C  
HETATM   19  C   UNL     1      -7.060  20.095  67.870  1.00  0.00    -0.290 C  
HETATM   20  C   UNL     1      -7.669  12.123  69.038  1.00  0.00     0.128 C  
HETATM   21  H   UNL     1      -8.312  20.514  69.299  1.00  0.00     0.000 HD 
HETATM   22  O   UNL     1      -9.878  12.730  69.174  1.00  0.00    -0.378 OA 
HETATM   23  C   UNL     1      -6.864  14.862  69.966  1.00  0.00    -0.129 C  
HETATM   24  H   UNL     1      -5.686  18.150  67.017  1.00  0.00     0.000 HD 
HETATM   25  N   UNL     1      -6.235  17.286  70.536  1.00  0.00     0.399 NA 
HETATM   26  C   UNL     1      -5.884  15.049  68.817  1.00  0.00    -0.085 C  
HETATM   27  H   UNL     1      -9.660  12.604  70.090  1.00  0.00     0.000 HD 
HETATM   28  C   UNL     1      -6.263  21.377  68.183  1.00  0.00    -0.074 C  
HETATM   29  C   UNL     1      -6.768  16.012  71.025  1.00  0.00     1.839 C  
HETATM   30  O   UNL     1      -8.381  20.403  68.358  1.00  0.00     0.038 OA 
HETATM   31  O   UNL     1      -6.103  17.819  67.804  1.00  0.00    -0.152 OA 
BRANCH   9  32
HETATM   32  O   UNL     1     -11.149  15.307  65.194  1.00  0.00    -0.370 OA 
BRANCH  32  33
HETATM   33  C   UNL     1     -12.454  15.002  65.675  1.00  0.00     0.330 C  
HETATM   34  O   UNL     1     -12.096  10.981  66.984  1.00  0.00     0.133 OA 
HETATM   35  C   UNL     1     -12.604  12.268  66.626  1.00  0.00     1.386 C  
HETATM   36  H   UNL     1     -12.124  10.824  67.921  1.00  0.00     0.000 HD 
HETATM   37  C   UNL     1     -12.558  12.524  65.097  1.00  0.00    -0.281 C  
HETATM   38  O   UNL     1     -12.442  14.676  67.071  1.00  0.00    -0.112 OA 
HETATM   39  C   UNL     1     -12.013  13.220  68.892  1.00  0.00    -0.336 C  
HETATM   40  C   UNL     1     -11.881  13.405  67.380  1.00  0.00    -0.375 C  
HETATM   41  C   UNL     1     -13.180  13.919  64.875  1.00  0.00     0.306 C  
HETATM   42  C   UNL     1     -13.391  11.513  64.299  1.00  0.00     1.521 C  
BRANCH  37  43
HETATM   43  O   UNL     1     -11.218  12.596  64.576  1.00  0.00    -0.306 OA 
HETATM   44  C   UNL     1     -10.981  12.171  63.247  1.00  0.00    -0.330 C  
ENDBRANCH  37  43
ENDBRANCH  32  33
ENDBRANCH   9  32
BRANCH  13  45
HETATM   45  O   UNL     1      -8.944  12.234  66.312  1.00  0.00    -0.174 OA 
BRANCH  45  46
HETATM   46  C   UNL     1      -8.387  11.054  66.909  1.00  0.00    -0.138 C  
HETATM   47  C   UNL     1      -5.127   9.505  66.390  1.00  0.00    -0.039 C  
HETATM   48  C   UNL     1      -8.773   8.495  67.338  1.00  0.00    -0.134 C  
HETATM   49  C   UNL     1      -9.357   9.875  66.975  1.00  0.00    -0.147 C  
HETATM   50  C   UNL     1      -7.365   8.361  66.723  1.00  0.00    -0.083 C  
HETATM   51  H   UNL     1     -11.015   9.498  67.913  1.00  0.00     0.000 HD 
HETATM   52  O   UNL     1     -10.411  10.230  67.872  1.00  0.00    -0.182 OA 
HETATM   53  O   UNL     1      -7.184  10.698  66.229  1.00  0.00    -0.125 OA 
HETATM   54  C   UNL     1      -6.538   9.630  66.930  1.00  0.00    -0.067 C  
BRANCH  48  55
HETATM   55  N   UNL     1      -9.678   7.390  66.866  1.00  0.00    -0.191 NA 
HETATM   56  C   UNL     1      -9.119   6.619  65.758  1.00  0.00     0.035 C  
HETATM   57  C   UNL     1     -10.177   6.491  67.900  1.00  0.00    -0.168 C  
ENDBRANCH  48  55
ENDBRANCH  45  46
ENDBRANCH  13  45
ENDBRANCH   2   3
TORSDOF 7
ENDMDL
MODEL       68
REMARK 921   NORMALIZED FREE ENERGY PREDICTED BY IDOCK:   11.36 KCAL/MOL
REMARK 922        TOTAL FREE ENERGY PREDICTED BY IDOCK:   13.43 KCAL/MOL
REMARK 923 INTER-LIGAND FREE ENERGY PREDICTED BY IDOCK:    6.42 KCAL/MOL
REMARK 924 INTRA-LIGAND FREE ENERGY PREDICTED BY IDOCK:    7.01 KCAL/MOL
REMARK 927      BINDING AFFINITY PREDICTED BY RF-SCORE:    0.00 PKD
ROOT
HETATM    1  C   UNL     1     -12.333  14.526  67.370  1.00  0.00     0.003 C  
HETATM    2  C   UNL     1     -13.023  15.176  68.561  1.00  0.00     1.664 C  
ENDROOT
BRANCH   2   3
HETATM    3  C   UNL     1     -12.509  14.683  69.939  1.00  0.00    -0.245 C  
HETATM    4  O   UNL     1     -12.384  13.231  70.160  1.00  0.00    -0.301 OA 
HETATM    5  C   UNL     1     -12.059  12.349  69.190  1.00  0.00    -0.146 C  
HETATM    6  C   UNL     1     -11.946  10.901  69.704  1.00  0.00    -0.414 C  
HETATM    7  O   UNL     1     -11.928  12.658  68.019  1.00  0.00    -0.343 OA 
HETATM    8  C   UNL     1     -12.014  10.843  71.236  1.00  0.00    -0.226 C  
HETATM    9  C   UNL     1     -10.745  10.010  69.121  1.00  0.00    -0.220 C  
HETATM   10  C   UNL     1      -7.098  16.563  68.828  1.00  0.00    -0.189 C  
HETATM   11  C   UNL     1     -10.271  10.431  67.656  1.00  0.00    -0.240 C  
HETATM   12  C   UNL     1      -8.515  13.563  70.638  1.00  0.00     5.248 C  
HETATM   13  C   UNL     1      -8.881   9.800  67.108  1.00  0.00    -0.132 C  
HETATM   14  C   UNL     1     -11.526  10.164  66.794  1.00  0.00     0.930 C  
HETATM   15  C   UNL     1      -8.536  14.986  70.068  1.00  0.00     0.437 C  
HETATM   16  C   UNL     1      -9.965  15.409  69.539  1.00  0.00    -0.264 C  
HETATM   17  C   UNL     1      -7.372  10.459  67.233  1.00  0.00    -0.090 C  
HETATM   18  C   UNL     1      -7.131  11.679  68.172  1.00  0.00    -0.078 C  
HETATM   19  C   UNL     1     -11.209  15.373  70.502  1.00  0.00    -0.333 C  
HETATM   20  C   UNL     1      -6.508  10.610  65.974  1.00  0.00    -0.129 C  
HETATM   21  H   UNL     1     -10.108  15.142  72.089  1.00  0.00     0.000 HD 
HETATM   22  O   UNL     1      -6.623   9.366  67.899  1.00  0.00    -0.062 OA 
HETATM   23  C   UNL     1      -6.952  13.113  67.571  1.00  0.00    -0.155 C  
HETATM   24  H   UNL     1     -11.101  14.981  68.005  1.00  0.00     0.000 HD 
HETATM   25  N   UNL     1      -7.568  15.186  68.956  1.00  0.00    -0.148 NA 
HETATM   26  C   UNL     1      -8.078  13.586  66.662  1.00  0.00     0.461 C  
HETATM   27  H   UNL     1      -5.755   9.746  67.972  1.00  0.00     0.000 HD 
HETATM   28  C   UNL     1     -11.533  16.818  70.929  1.00  0.00     0.380 C  
HETATM   29  C   UNL     1      -6.540  14.197  68.623  1.00  0.00    -0.092 C  
HETATM   30  O   UNL     1     -10.892  14.726  71.750  1.00  0.00     0.292 OA 
HETATM   31  O   UNL     1     -10.242  14.727  68.323  1.00  0.00    -0.220 OA 
BRANCH   9  32
HETATM   32  O   UNL     1     -11.317   8.665  69.154  1.00  0.00     0.216 OA 
BRANCH  32  33
HETATM   33  C   UNL     1     -10.503   7.545  68.820  1.00  0.00    -0.194 C  
HETATM   34  O   UNL     1      -9.608   5.831  72.597  1.00  0.00    -0.153 OA 
HETATM   35  C   UNL     1      -9.647   6.131  71.201  1.00  0.00    -0.175 C  
HETATM   36  H   UNL     1     -10.014   4.997  72.804  1.00  0.00     0.000 HD 
HETATM   37  C   UNL     1      -8.985   7.493  70.864  1.00  0.00    -0.149 C  
HETATM   38  O   UNL     1     -11.103   6.312  69.234  1.00  0.00    -0.332 OA 
HETATM   39  C   UNL     1     -11.708   4.706  70.871  1.00  0.00     3.638 C  
HETATM   40  C   UNL     1     -11.084   6.082  70.639  1.00  0.00    -0.301 C  
HETATM   41  C   UNL     1      -9.064   7.642  69.330  1.00  0.00    -0.142 C  
HETATM   42  C   UNL     1      -7.504   7.549  71.259  1.00  0.00    -0.079 C  
BRANCH  37  43
HETATM   43  O   UNL     1      -9.695   8.618  71.413  1.00  0.00    -0.196 OA 
HETATM   44  C   UNL     1      -9.939   8.654  72.807  1.00  0.00     0.017 C  
ENDBRANCH  37  43
ENDBRANCH  32  33
ENDBRANCH   9  32
BRANCH  13  45
HETATM   45  O   UNL     1      -8.957   8.858  66.001  1.00  0.00    -0.167 OA 
BRANCH  45  46
HETATM   46  C   UNL     1      -8.035   7.762  65.904  1.00  0.00    -0.107 C  
HETATM   47  C   UNL     1      -5.158   7.331  63.707  1.00  0.00    -0.029 C  
HETATM   48  C   UNL     1      -7.832   5.171  65.549  1.00  0.00    -0.092 C  
HETATM   49  C   UNL     1      -8.702   6.388  65.924  1.00  0.00    -0.145 C  
HETATM   50  C   UNL     1      -6.836   5.580  64.444  1.00  0.00    -0.047 C  
HETATM   51  H   UNL     1      -9.706   5.355  67.227  1.00  0.00     0.000 HD 
HETATM   52  O   UNL     1      -9.291   6.210  67.214  1.00  0.00    -0.114 OA 
HETATM   53  O   UNL     1      -7.219   7.925  64.746  1.00  0.00    -0.069 OA 
HETATM   54  C   UNL     1      -6.188   6.932  64.744  1.00  0.00    -0.036 C  
BRANCH  48  55
HETATM   55  N   UNL     1      -8.690   4.017  65.105  1.00  0.00    -0.117 NA 
HETATM   56  C   UNL     1      -8.831   3.927  63.654  1.00  0.00    -0.105 C  
HETATM   57  C   UNL     1      -8.335   2.714  65.656  1.00  0.00    -0.094 C  
ENDBRANCH  48  55
ENDBRANCH  45  46
ENDBRANCH  13  45
ENDBRANCH   2   3
TORSDOF 7
ENDMDL
MODEL       69
REMARK 921   NORMALIZED FREE ENERGY PREDICTED BY IDOCK:   12.08 KCAL/MOL
REMARK 922        TOTAL FREE ENERGY PREDICTED BY IDOCK:   14.44 KCAL/MOL
REMARK 923 INTER-LIGAND FREE ENERGY PREDICTED BY IDOCK:   -3.35 KCAL/MOL
REMARK 924 INTRA-LIGAND FREE ENERGY PREDICTED BY IDOCK:   17.78 KCAL/MOL
REMARK 927      BINDING AFFINITY PREDICTED BY RF-SCORE:    0.00 PKD
ROOT
HETATM    1  C   UNL     1     -10.594   1.821  71.154  1.00  0.00     0.872 C  
HETATM    2  C   UNL     1      -9.817   2.891  70.400  1.00  0.00     0.090 C  
ENDROOT
BRANCH   2   3
HETATM    3  C   UNL     1      -8.286   2.643  70.344  1.00  0.00    -0.045 C  
HETATM    4  O   UNL     1      -7.542   3.125  69.166  1.00  0.00    -0.048 OA 
HETATM    5  C   UNL     1      -7.867   4.242  68.479  1.00  0.00    -0.074 C  
HETATM    6  C   UNL     1      -6.893   4.544  67.324  1.00  0.00    -0.055 C  
HETATM    7  O   UNL     1      -8.860   4.907  68.710  1.00  0.00    -0.092 OA 
HETATM    8  C   UNL     1      -5.664   3.625  67.373  1.00  0.00    -0.022 C  
HETATM    9  C   UNL     1      -6.487   6.079  67.092  1.00  0.00    -0.047 C  
HETATM   10  C   UNL     1      -7.285   6.574  74.538  1.00  0.00    -0.099 C  
HETATM   11  C   UNL     1      -7.596   7.126  67.564  1.00  0.00    -0.110 C  
HETATM   12  C   UNL     1      -5.444   5.559  71.398  1.00  0.00    -0.009 C  
HETATM   13  C   UNL     1      -7.163   8.687  67.654  1.00  0.00    -0.084 C  
HETATM   14  C   UNL     1      -8.794   6.804  66.641  1.00  0.00    -0.142 C  
HETATM   15  C   UNL     1      -6.411   5.366  72.572  1.00  0.00    -0.051 C  
HETATM   16  C   UNL     1      -7.661   4.476  72.190  1.00  0.00    -0.090 C  
HETATM   17  C   UNL     1      -6.579   9.482  68.978  1.00  0.00    -0.050 C  
HETATM   18  C   UNL     1      -6.130   8.677  70.234  1.00  0.00    -0.033 C  
HETATM   19  C   UNL     1      -7.456   3.021  71.630  1.00  0.00    -0.041 C  
HETATM   20  C   UNL     1      -7.243  10.791  69.426  1.00  0.00    -0.132 C  
HETATM   21  H   UNL     1      -5.571   2.987  72.107  1.00  0.00     0.000 HD 
HETATM   22  O   UNL     1      -5.305  10.034  68.456  1.00  0.00    -0.039 OA 
HETATM   23  C   UNL     1      -7.032   8.644  71.513  1.00  0.00    -0.091 C  
HETATM   24  H   UNL     1      -9.291   4.689  71.129  1.00  0.00     0.000 HD 
HETATM   25  N   UNL     1      -6.923   6.649  73.125  1.00  0.00    -0.076 NA 
HETATM   26  C   UNL     1      -8.464   8.179  71.291  1.00  0.00    -0.154 C  
HETATM   27  H   UNL     1      -4.969  10.491  69.218  1.00  0.00     0.000 HD 
HETATM   28  C   UNL     1      -7.768   2.019  72.759  1.00  0.00    -0.047 C  
HETATM   29  C   UNL     1      -6.363   7.947  72.745  1.00  0.00    -0.068 C  
HETATM   30  O   UNL     1      -6.071   2.759  71.332  1.00  0.00    -0.013 OA 
HETATM   31  O   UNL     1      -8.540   5.224  71.358  1.00  0.00    -0.125 OA 
BRANCH   9  32
HETATM   32  O   UNL     1      -6.262   6.122  65.649  1.00  0.00    -0.035 OA 
BRANCH  32  33
HETATM   33  C   UNL     1      -7.337   5.837  64.760  1.00  0.00    -0.069 C  
HETATM   34  O   UNL     1      -7.413   1.596  64.651  1.00  0.00    -0.055 OA 
HETATM   35  C   UNL     1      -7.663   2.979  64.399  1.00  0.00    -0.077 C  
HETATM   36  H   UNL     1      -8.146   1.163  65.074  1.00  0.00     0.000 HD 
HETATM   37  C   UNL     1      -6.467   3.687  63.709  1.00  0.00    -0.034 C  
HETATM   38  O   UNL     1      -8.380   5.098  65.408  1.00  0.00    -0.121 OA 
HETATM   39  C   UNL     1      -9.308   3.113  66.313  1.00  0.00    -0.110 C  
HETATM   40  C   UNL     1      -8.064   3.738  65.683  1.00  0.00    -0.093 C  
HETATM   41  C   UNL     1      -6.912   5.144  63.465  1.00  0.00    -0.046 C  
HETATM   42  C   UNL     1      -6.119   3.074  62.347  1.00  0.00    -0.013 C  
BRANCH  37  43
HETATM   43  O   UNL     1      -5.296   3.760  64.543  1.00  0.00    -0.009 OA 
HETATM   44  C   UNL     1      -5.128   2.795  65.564  1.00  0.00    -0.008 C  
ENDBRANCH  37  43
ENDBRANCH  32  33
ENDBRANCH   9  32
BRANCH  13  45
HETATM   45  O   UNL     1      -7.767   9.610  66.705  1.00  0.00    -0.097 OA 
BRANCH  45  46
HETATM   46  C   UNL     1      -8.834  10.483  67.107  1.00  0.00    -0.136 C  
HETATM   47  C   UNL     1      -8.686  13.746  68.725  1.00  0.00     0.038 C  
HETATM   48  C   UNL     1     -11.041  10.644  68.516  1.00  0.00    -0.263 C  
HETATM   49  C   UNL     1      -9.989   9.767  67.807  1.00  0.00    -0.168 C  
HETATM   50  C   UNL     1     -10.345  11.873  69.136  1.00  0.00     0.028 C  
HETATM   51  H   UNL     1     -11.328   8.461  67.286  1.00  0.00     0.000 HD 
HETATM   52  O   UNL     1     -10.610   8.906  66.851  1.00  0.00    -0.263 OA 
HETATM   53  O   UNL     1      -8.312  11.536  67.913  1.00  0.00    -0.125 OA 
HETATM   54  C   UNL     1      -9.341  12.499  68.167  1.00  0.00    -0.210 C  
BRANCH  48  55
HETATM   55  N   UNL     1     -11.778   9.854  69.562  1.00  0.00    -0.003 NA 
HETATM   56  C   UNL     1     -10.939   8.869  70.240  1.00  0.00    -0.241 C  
HETATM   57  C   UNL     1     -12.523  10.637  70.542  1.00  0.00    -0.358 C  
ENDBRANCH  48  55
ENDBRANCH  45  46
ENDBRANCH  13  45
ENDBRANCH   2   3
TORSDOF 7
ENDMDL
MODEL       70
REMARK 921   NORMALIZED FREE ENERGY PREDICTED BY IDOCK:   12.72 KCAL/MOL
REMARK 922        TOTAL FREE ENERGY PREDICTED BY IDOCK:   15.35 KCAL/MOL
REMARK 923 INTER-LIGAND FREE ENERGY PREDICTED BY IDOCK:    2.40 KCAL/MOL
REMARK 924 INTRA-LIGAND FREE ENERGY PREDICTED BY IDOCK:   12.95 KCAL/MOL
REMARK 927      BINDING AFFINITY PREDICTED BY RF-SCORE:    0.00 PKD
ROOT
HETATM    1  C   UNL     1     -10.563  14.547  70.453  1.00  0.00     0.377 C  
HETATM    2  C   UNL     1     -10.455  15.658  69.419  1.00  0.00    -0.253 C  
ENDROOT
BRANCH   2   3
HETATM    3  C   UNL     1      -9.155  15.615  68.573  1.00  0.00    -0.196 C  
HETATM    4  O   UNL     1      -8.186  14.535  68.835  1.00  0.00    -0.149 OA 
HETATM    5  C   UNL     1      -8.537  13.291  69.231  1.00  0.00     0.833 C  
HETATM    6  C   UNL     1      -7.331  12.344  69.383  1.00  0.00     0.314 C  
HETATM    7  O   UNL     1      -9.681  12.970  69.497  1.00  0.00     0.803 OA 
HETATM    8  C   UNL     1      -6.046  12.981  68.835  1.00  0.00    -0.083 C  
HETATM    9  C   UNL     1      -7.519  10.834  68.873  1.00  0.00    -0.116 C  
HETATM   10  C   UNL     1     -12.070  13.968  63.794  1.00  0.00    -0.224 C  
HETATM   11  C   UNL     1      -9.025  10.308  68.930  1.00  0.00    -0.164 C  
HETATM   12  C   UNL     1      -8.675  13.119  65.221  1.00  0.00     1.930 C  
HETATM   13  C   UNL     1      -9.364   8.920  68.161  1.00  0.00    -0.142 C  
HETATM   14  C   UNL     1      -9.350  10.347  70.441  1.00  0.00     0.749 C  
HETATM   15  C   UNL     1      -9.928  13.979  65.020  1.00  0.00    -0.182 C  
HETATM   16  C   UNL     1     -10.338  14.772  66.326  1.00  0.00    -0.297 C  
HETATM   17  C   UNL     1      -9.900   8.748  66.609  1.00  0.00    -0.265 C  
HETATM   18  C   UNL     1      -9.865   9.964  65.635  1.00  0.00    -0.368 C  
HETATM   19  C   UNL     1      -9.316  15.752  67.011  1.00  0.00    -0.220 C  
HETATM   20  C   UNL     1     -11.158   7.914  66.333  1.00  0.00     1.648 C  
HETATM   21  H   UNL     1      -8.098  15.713  65.495  1.00  0.00     0.000 HD 
HETATM   22  O   UNL     1      -8.883   7.830  66.042  1.00  0.00    -0.158 OA 
HETATM   23  C   UNL     1     -11.185  10.722  65.272  1.00  0.00     0.357 C  
HETATM   24  H   UNL     1     -11.139  14.345  68.060  1.00  0.00     0.000 HD 
HETATM   25  N   UNL     1     -11.113  13.194  64.580  1.00  0.00    -0.328 NA 
HETATM   26  C   UNL     1     -11.985  11.245  66.457  1.00  0.00     0.963 C  
HETATM   27  H   UNL     1      -9.191   7.732  65.149  1.00  0.00     0.000 HD 
HETATM   28  C   UNL     1      -9.721  17.197  66.659  1.00  0.00    -0.285 C  
HETATM   29  C   UNL     1     -11.013  11.798  64.148  1.00  0.00    -0.374 C  
HETATM   30  O   UNL     1      -8.001  15.631  66.437  1.00  0.00    -0.168 OA 
HETATM   31  O   UNL     1     -10.892  13.869  67.275  1.00  0.00    -0.281 OA 
BRANCH   9  32
HETATM   32  O   UNL     1      -6.639  10.095  69.775  1.00  0.00    -0.056 OA 
BRANCH  32  33
HETATM   33  C   UNL     1      -6.928   8.734  70.083  1.00  0.00    -0.044 C  
HETATM   34  O   UNL     1      -7.971   8.866  74.193  1.00  0.00    -0.348 OA 
HETATM   35  C   UNL     1      -7.648   8.426  72.873  1.00  0.00    -0.064 C  
HETATM   36  H   UNL     1      -8.883   8.717  74.416  1.00  0.00     0.000 HD 
HETATM   37  C   UNL     1      -6.160   8.671  72.510  1.00  0.00    -0.079 C  
HETATM   38  O   UNL     1      -8.286   8.564  70.508  1.00  0.00    -0.100 OA 
HETATM   39  C   UNL     1     -10.035   8.738  72.100  1.00  0.00    -0.359 C  
HETATM   40  C   UNL     1      -8.569   9.064  71.810  1.00  0.00     0.091 C  
HETATM   41  C   UNL     1      -5.965   8.102  71.088  1.00  0.00    -0.034 C  
HETATM   42  C   UNL     1      -5.191   7.931  73.441  1.00  0.00    -0.041 C  
BRANCH  37  43
HETATM   43  O   UNL     1      -5.819  10.067  72.432  1.00  0.00    -0.279 OA 
HETATM   44  C   UNL     1      -5.142  10.663  73.522  1.00  0.00     0.276 C  
ENDBRANCH  37  43
ENDBRANCH  32  33
ENDBRANCH   9  32
BRANCH  13  45
HETATM   45  O   UNL     1      -9.720   7.768  68.975  1.00  0.00    -0.154 OA 
BRANCH  45  46
HETATM   46  C   UNL     1      -9.001   6.531  68.853  1.00  0.00    -0.128 C  
HETATM   47  C   UNL     1      -5.578   5.931  67.751  1.00  0.00    -0.009 C  
HETATM   48  C   UNL     1      -9.042   4.138  67.780  1.00  0.00    -0.136 C  
HETATM   49  C   UNL     1      -9.808   5.407  68.204  1.00  0.00    -0.145 C  
HETATM   50  C   UNL     1      -7.640   4.536  67.273  1.00  0.00    -0.085 C  
HETATM   51  H   UNL     1     -11.384   4.379  68.685  1.00  0.00     0.000 HD 
HETATM   52  O   UNL     1     -10.882   5.078  69.088  1.00  0.00     0.087 OA 
HETATM   53  O   UNL     1      -7.776   6.757  68.158  1.00  0.00    -0.105 OA 
HETATM   54  C   UNL     1      -6.982   5.567  68.190  1.00  0.00    -0.065 C  
BRANCH  48  55
HETATM   55  N   UNL     1      -9.804   3.380  66.727  1.00  0.00     0.059 NA 
HETATM   56  C   UNL     1      -9.531   3.845  65.369  1.00  0.00    -0.170 C  
HETATM   57  C   UNL     1      -9.699   1.926  66.790  1.00  0.00     0.567 C  
ENDBRANCH  48  55
ENDBRANCH  45  46
ENDBRANCH  13  45
ENDBRANCH   2   3
TORSDOF 7
ENDMDL
MODEL       71
REMARK 921   NORMALIZED FREE ENERGY PREDICTED BY IDOCK:   12.74 KCAL/MOL
REMARK 922        TOTAL FREE ENERGY PREDICTED BY IDOCK:   15.37 KCAL/MOL
REMARK 923 INTER-LIGAND FREE ENERGY PREDICTED BY IDOCK:    6.21 KCAL/MOL
REMARK 924 INTRA-LIGAND FREE ENERGY PREDICTED BY IDOCK:    9.16 KCAL/MOL
REMARK 927      BINDING AFFINITY PREDICTED BY RF-SCORE:    0.00 PKD
ROOT
HETATM    1  C   UNL     1      -6.246   6.078  67.728  1.00  0.00    -0.029 C  
HETATM    2  C   UNL     1      -6.229   7.589  67.908  1.00  0.00    -0.048 C  
ENDROOT
BRANCH   2   3
HETATM    3  C   UNL     1      -6.647   8.065  69.324  1.00  0.00    -0.036 C  
HETATM    4  O   UNL     1      -6.304   9.440  69.729  1.00  0.00    -0.038 OA 
HETATM    5  C   UNL     1      -6.255  10.485  68.873  1.00  0.00    -0.043 C  
HETATM    6  C   UNL     1      -5.923  11.819  69.568  1.00  0.00    -0.092 C  
HETATM    7  O   UNL     1      -6.400  10.373  67.669  1.00  0.00    -0.057 OA 
HETATM    8  C   UNL     1      -5.945  11.675  71.097  1.00  0.00     0.494 C  
HETATM    9  C   UNL     1      -6.723  13.120  69.075  1.00  0.00    -0.103 C  
HETATM   10  C   UNL     1     -12.286   8.237  67.833  1.00  0.00     5.275 C  
HETATM   11  C   UNL     1      -7.207  13.051  67.555  1.00  0.00    -0.154 C  
HETATM   12  C   UNL     1     -10.092  10.366  70.055  1.00  0.00    -0.078 C  
HETATM   13  C   UNL     1      -8.273  14.167  67.057  1.00  0.00    -0.071 C  
HETATM   14  C   UNL     1      -5.878  12.980  66.769  1.00  0.00     1.231 C  
HETATM   15  C   UNL     1     -10.499   9.092  69.306  1.00  0.00    -0.228 C  
HETATM   16  C   UNL     1      -9.255   8.279  68.765  1.00  0.00    -0.143 C  
HETATM   17  C   UNL     1      -9.920  14.040  67.054  1.00  0.00    -0.257 C  
HETATM   18  C   UNL     1     -10.610  12.871  67.820  1.00  0.00    -0.231 C  
HETATM   19  C   UNL     1      -8.137   7.789  69.758  1.00  0.00    -0.117 C  
HETATM   20  C   UNL     1     -10.697  14.330  65.764  1.00  0.00    -0.308 C  
HETATM   21  H   UNL     1      -9.208   8.192  71.331  1.00  0.00     0.000 HD 
HETATM   22  O   UNL     1     -10.313  15.236  67.837  1.00  0.00    -0.240 OA 
HETATM   23  C   UNL     1     -11.207  11.658  67.033  1.00  0.00    -0.376 C  
HETATM   24  H   UNL     1      -7.939   8.475  67.331  1.00  0.00     0.000 HD 
HETATM   25  N   UNL     1     -11.401   9.355  68.152  1.00  0.00     0.215 NA 
HETATM   26  C   UNL     1     -10.239  10.943  66.100  1.00  0.00    -0.304 C  
HETATM   27  H   UNL     1     -11.260  15.162  67.836  1.00  0.00     0.000 HD 
HETATM   28  C   UNL     1      -8.334   6.280  70.001  1.00  0.00    -0.129 C  
HETATM   29  C   UNL     1     -12.023  10.661  67.923  1.00  0.00     0.680 C  
HETATM   30  O   UNL     1      -8.309   8.358  71.070  1.00  0.00    -0.112 OA 
HETATM   31  O   UNL     1      -8.687   8.964  67.656  1.00  0.00    -0.124 OA 
BRANCH   9  32
HETATM   32  O   UNL     1      -5.746  14.183  69.298  1.00  0.00    -0.081 OA 
BRANCH  32  33
HETATM   33  C   UNL     1      -5.856  15.010  70.453  1.00  0.00    -0.143 C  
HETATM   34  O   UNL     1      -8.290  18.221  69.126  1.00  0.00    -0.093 OA 
HETATM   35  C   UNL     1      -7.442  17.371  69.899  1.00  0.00     1.063 C  
HETATM   36  H   UNL     1      -9.174  18.269  69.471  1.00  0.00     0.000 HD 
HETATM   37  C   UNL     1      -5.999  17.293  69.335  1.00  0.00    -0.228 C  
HETATM   38  O   UNL     1      -7.216  15.136  70.887  1.00  0.00     0.663 OA 
HETATM   39  C   UNL     1      -9.413  16.011  70.711  1.00  0.00     2.061 C  
HETATM   40  C   UNL     1      -8.033  15.953  70.055  1.00  0.00     0.644 C  
HETATM   41  C   UNL     1      -5.208  16.386  70.301  1.00  0.00    -0.182 C  
HETATM   42  C   UNL     1      -5.299  18.657  69.301  1.00  0.00    -0.199 C  
BRANCH  37  43
HETATM   43  O   UNL     1      -5.931  16.659  68.045  1.00  0.00    -0.115 OA 
HETATM   44  C   UNL     1      -5.134  15.499  67.899  1.00  0.00    -0.117 C  
ENDBRANCH  37  43
ENDBRANCH  32  33
ENDBRANCH   9  32
BRANCH  13  45
HETATM   45  O   UNL     1      -7.817  15.149  66.084  1.00  0.00     0.594 OA 
BRANCH  45  46
HETATM   46  C   UNL     1      -7.786  16.547  66.410  1.00  0.00    -0.259 C  
HETATM   47  C   UNL     1     -10.542  18.868  66.963  1.00  0.00    -0.510 C  
HETATM   48  C   UNL     1      -6.862  18.889  65.673  1.00  0.00    -0.257 C  
HETATM   49  C   UNL     1      -6.775  17.351  65.594  1.00  0.00     0.275 C  
HETATM   50  C   UNL     1      -8.342  19.309  65.784  1.00  0.00     0.135 C  
HETATM   51  H   UNL     1      -4.839  17.399  65.448  1.00  0.00     0.000 HD 
HETATM   52  O   UNL     1      -5.468  16.900  65.955  1.00  0.00    -0.225 OA 
HETATM   53  O   UNL     1      -9.098  17.094  66.295  1.00  0.00    -0.317 OA 
HETATM   54  C   UNL     1      -9.100  18.438  66.786  1.00  0.00    -0.292 C  
BRANCH  48  55
HETATM   55  N   UNL     1      -6.206  19.523  64.477  1.00  0.00    -0.382 NA 
HETATM   56  C   UNL     1      -5.772  20.898  64.717  1.00  0.00    -0.247 C  
HETATM   57  C   UNL     1      -5.128  18.757  63.863  1.00  0.00    -0.155 C  
ENDBRANCH  48  55
ENDBRANCH  45  46
ENDBRANCH  13  45
ENDBRANCH   2   3
TORSDOF 7
ENDMDL
MODEL       72
REMARK 921   NORMALIZED FREE ENERGY PREDICTED BY IDOCK:   12.87 KCAL/MOL
REMARK 922        TOTAL FREE ENERGY PREDICTED BY IDOCK:   15.56 KCAL/MOL
REMARK 923 INTER-LIGAND FREE ENERGY PREDICTED BY IDOCK:    9.18 KCAL/MOL
REMARK 924 INTRA-LIGAND FREE ENERGY PREDICTED BY IDOCK:    6.39 KCAL/MOL
REMARK 927      BINDING AFFINITY PREDICTED BY RF-SCORE:    0.00 PKD
ROOT
HETATM    1  C   UNL     1      -9.511  17.445  69.156  1.00  0.00    -0.025 C  
HETATM    2  C   UNL     1      -8.099  18.009  69.083  1.00  0.00     0.066 C  
ENDROOT
BRANCH   2   3
HETATM    3  C   UNL     1      -7.255  17.456  67.904  1.00  0.00    -0.188 C  
HETATM    4  O   UNL     1      -6.712  16.090  68.013  1.00  0.00    -0.114 OA 
HETATM    5  C   UNL     1      -7.338  15.083  68.662  1.00  0.00    -0.118 C  
HETATM    6  C   UNL     1      -6.576  13.746  68.578  1.00  0.00    -0.099 C  
HETATM    7  O   UNL     1      -8.366  15.231  69.297  1.00  0.00    -0.219 OA 
HETATM    8  C   UNL     1      -5.402  13.831  67.592  1.00  0.00     0.044 C  
HETATM    9  C   UNL     1      -7.450  12.419  68.359  1.00  0.00    -0.123 C  
HETATM   10  C   UNL     1     -11.956  16.998  64.478  1.00  0.00     2.133 C  
HETATM   11  C   UNL     1      -8.937  12.515  68.932  1.00  0.00     0.312 C  
HETATM   12  C   UNL     1      -8.830  14.925  64.937  1.00  0.00     3.459 C  
HETATM   13  C   UNL     1      -9.984  11.355  68.497  1.00  0.00    -0.201 C  
HETATM   14  C   UNL     1      -8.714  12.695  70.451  1.00  0.00     5.748 C  
HETATM   15  C   UNL     1      -9.680  16.198  65.000  1.00  0.00     0.787 C  
HETATM   16  C   UNL     1      -9.327  17.105  66.247  1.00  0.00    -0.234 C  
HETATM   17  C   UNL     1     -11.022  11.382  67.212  1.00  0.00    -0.282 C  
HETATM   18  C   UNL     1     -10.871  12.478  66.114  1.00  0.00    -0.304 C  
HETATM   19  C   UNL     1      -7.857  17.624  66.457  1.00  0.00    -0.272 C  
HETATM   20  C   UNL     1     -12.512  11.094  67.439  1.00  0.00     2.425 C  
HETATM   21  H   UNL     1      -7.302  17.099  64.668  1.00  0.00     0.000 HD 
HETATM   22  O   UNL     1     -10.649  10.136  66.501  1.00  0.00    -0.189 OA 
HETATM   23  C   UNL     1     -11.870  13.681  66.059  1.00  0.00    -0.415 C  
HETATM   24  H   UNL     1      -9.614  17.042  68.182  1.00  0.00     0.000 HD 
HETATM   25  N   UNL     1     -11.142  15.925  65.044  1.00  0.00    -0.386 NA 
HETATM   26  C   UNL     1     -11.993  14.487  67.344  1.00  0.00    -0.367 C  
HETATM   27  H   UNL     1     -11.246  10.152  65.762  1.00  0.00     0.000 HD 
HETATM   28  C   UNL     1      -7.805  19.109  66.045  1.00  0.00    -0.254 C  
HETATM   29  C   UNL     1     -11.699  14.593  64.797  1.00  0.00    -0.428 C  
HETATM   30  O   UNL     1      -6.939  16.998  65.541  1.00  0.00     0.329 OA 
HETATM   31  O   UNL     1      -9.827  16.498  67.433  1.00  0.00    -0.244 OA 
BRANCH   9  32
HETATM   32  O   UNL     1      -6.653  11.409  69.052  1.00  0.00    -0.070 OA 
BRANCH  32  33
HETATM   33  C   UNL     1      -5.408  10.994  68.500  1.00  0.00    -0.043 C  
HETATM   34  O   UNL     1      -6.556   8.430  65.320  1.00  0.00    -0.055 OA 
HETATM   35  C   UNL     1      -5.804   9.160  66.290  1.00  0.00    -0.058 C  
HETATM   36  H   UNL     1      -6.415   8.744  64.435  1.00  0.00     0.000 HD 
HETATM   37  C   UNL     1      -6.036   8.647  67.736  1.00  0.00    -0.048 C  
HETATM   38  O   UNL     1      -5.271  11.403  67.133  1.00  0.00    -0.052 OA 
HETATM   39  C   UNL     1      -5.749  11.214  64.818  1.00  0.00     0.605 C  
HETATM   40  C   UNL     1      -6.079  10.678  66.211  1.00  0.00    -0.111 C  
HETATM   41  C   UNL     1      -5.125   9.498  68.646  1.00  0.00    -0.033 C  
HETATM   42  C   UNL     1      -5.633   7.179  67.919  1.00  0.00    -0.021 C  
BRANCH  37  43
HETATM   43  O   UNL     1      -7.381   8.862  68.203  1.00  0.00    -0.082 OA 
HETATM   44  C   UNL     1      -8.451   8.278  67.485  1.00  0.00    -0.130 C  
ENDBRANCH  37  43
ENDBRANCH  32  33
ENDBRANCH   9  32
BRANCH  13  45
HETATM   45  O   UNL     1     -10.445  10.439  69.530  1.00  0.00    -0.223 OA 
BRANCH  45  46
HETATM   46  C   UNL     1      -9.933   9.100  69.607  1.00  0.00    -0.190 C  
HETATM   47  C   UNL     1     -11.465   5.961  68.565  1.00  0.00     0.544 C  
HETATM   48  C   UNL     1      -8.937   7.288  71.221  1.00  0.00    -0.139 C  
HETATM   49  C   UNL     1      -9.266   8.769  70.941  1.00  0.00    -0.212 C  
HETATM   50  C   UNL     1     -10.043   6.399  70.617  1.00  0.00    -0.221 C  
HETATM   51  H   UNL     1      -7.677   9.371  71.882  1.00  0.00     0.000 HD 
HETATM   52  O   UNL     1      -8.093   9.577  71.053  1.00  0.00    -0.312 OA 
HETATM   53  O   UNL     1     -10.973   8.173  69.303  1.00  0.00    -0.111 OA 
HETATM   54  C   UNL     1     -10.424   6.855  69.208  1.00  0.00    -0.214 C  
BRANCH  48  55
HETATM   55  N   UNL     1      -8.791   7.043  72.698  1.00  0.00    -0.123 NA 
HETATM   56  C   UNL     1     -10.070   6.882  73.387  1.00  0.00    -0.259 C  
HETATM   57  C   UNL     1      -7.879   5.969  73.077  1.00  0.00    -0.105 C  
ENDBRANCH  48  55
ENDBRANCH  45  46
ENDBRANCH  13  45
ENDBRANCH   2   3
TORSDOF 7
ENDMDL
MODEL       73
REMARK 921   NORMALIZED FREE ENERGY PREDICTED BY IDOCK:   13.79 KCAL/MOL
REMARK 922        TOTAL FREE ENERGY PREDICTED BY IDOCK:   16.85 KCAL/MOL
REMARK 923 INTER-LIGAND FREE ENERGY PREDICTED BY IDOCK:    4.00 KCAL/MOL
REMARK 924 INTRA-LIGAND FREE ENERGY PREDICTED BY IDOCK:   12.85 KCAL/MOL
REMARK 927      BINDING AFFINITY PREDICTED BY RF-SCORE:    0.00 PKD
ROOT
HETATM    1  C   UNL     1     -10.338  13.792  70.255  1.00  0.00     1.626 C  
HETATM    2  C   UNL     1     -10.095  14.834  69.172  1.00  0.00    -0.201 C  
ENDROOT
BRANCH   2   3
HETATM    3  C   UNL     1      -8.732  14.689  68.445  1.00  0.00    -0.175 C  
HETATM    4  O   UNL     1      -7.846  13.577  68.837  1.00  0.00    -0.067 OA 
HETATM    5  C   UNL     1      -8.293  12.372  69.253  1.00  0.00     0.792 C  
HETATM    6  C   UNL     1      -7.155  11.376  69.550  1.00  0.00    -0.020 C  
HETATM    7  O   UNL     1      -9.470  12.118  69.432  1.00  0.00     0.578 OA 
HETATM    8  C   UNL     1      -5.797  11.925  69.089  1.00  0.00    -0.067 C  
HETATM    9  C   UNL     1      -7.376   9.855  69.090  1.00  0.00    -0.083 C  
HETATM   10  C   UNL     1     -11.313  12.960  63.505  1.00  0.00    -0.351 C  
HETATM   11  C   UNL     1      -8.907   9.404  69.038  1.00  0.00    -0.141 C  
HETATM   12  C   UNL     1      -8.099  12.018  65.257  1.00  0.00     1.579 C  
HETATM   13  C   UNL     1      -9.250   8.000  68.303  1.00  0.00    -0.134 C  
HETATM   14  C   UNL     1      -9.357   9.529  70.512  1.00  0.00    -0.296 C  
HETATM   15  C   UNL     1      -9.285  12.926  64.912  1.00  0.00     0.887 C  
HETATM   16  C   UNL     1      -9.763  13.798  66.142  1.00  0.00    -0.264 C  
HETATM   17  C   UNL     1      -9.661   7.781  66.719  1.00  0.00    -0.227 C  
HETATM   18  C   UNL     1      -9.481   8.946  65.700  1.00  0.00    -0.230 C  
HETATM   19  C   UNL     1      -8.753  14.760  66.871  1.00  0.00    -0.236 C  
HETATM   20  C   UNL     1     -10.932   6.995  66.370  1.00  0.00     0.694 C  
HETATM   21  H   UNL     1      -7.415  14.592  65.469  1.00  0.00     0.000 HD 
HETATM   22  O   UNL     1      -8.648   6.789  66.282  1.00  0.00    -0.127 OA 
HETATM   23  C   UNL     1     -10.725   9.748  65.192  1.00  0.00     1.288 C  
HETATM   24  H   UNL     1     -10.728  13.492  67.816  1.00  0.00     0.000 HD 
HETATM   25  N   UNL     1     -10.467  12.179  64.404  1.00  0.00    -0.297 NA 
HETATM   26  C   UNL     1     -11.594  10.364  66.280  1.00  0.00     1.443 C  
HETATM   27  H   UNL     1      -8.884   6.664  65.370  1.00  0.00     0.000 HD 
HETATM   28  C   UNL     1      -9.052  16.204  66.423  1.00  0.00    -0.339 C  
HETATM   29  C   UNL     1     -10.402  10.761  64.042  1.00  0.00    -0.286 C  
HETATM   30  O   UNL     1      -7.402  14.549  66.418  1.00  0.00     0.940 OA 
HETATM   31  O   UNL     1     -10.441  12.968  67.076  1.00  0.00    -0.245 OA 
BRANCH   9  32
HETATM   32  O   UNL     1      -6.615   9.117  70.096  1.00  0.00    -0.041 OA 
BRANCH  32  33
HETATM   33  C   UNL     1      -6.966   7.770  70.398  1.00  0.00    -0.046 C  
HETATM   34  O   UNL     1      -7.836   7.897  74.549  1.00  0.00    -0.186 OA 
HETATM   35  C   UNL     1      -7.591   7.461  73.211  1.00  0.00    -0.092 C  
HETATM   36  H   UNL     1      -8.744   7.795  74.807  1.00  0.00     0.000 HD 
HETATM   37  C   UNL     1      -6.106   7.628  72.790  1.00  0.00    -0.051 C  
HETATM   38  O   UNL     1      -8.314   7.669  70.876  1.00  0.00    -0.110 OA 
HETATM   39  C   UNL     1      -9.985   7.914  72.540  1.00  0.00    -0.312 C  
HETATM   40  C   UNL     1      -8.517   8.163  72.195  1.00  0.00    -0.161 C  
HETATM   41  C   UNL     1      -6.001   7.071  71.355  1.00  0.00    -0.037 C  
HETATM   42  C   UNL     1      -5.144   6.823  73.672  1.00  0.00    -0.041 C  
BRANCH  37  43
HETATM   43  O   UNL     1      -5.692   9.004  72.717  1.00  0.00    -0.086 OA 
HETATM   44  C   UNL     1      -5.267   9.650  73.902  1.00  0.00    -0.068 C  
ENDBRANCH  37  43
ENDBRANCH  32  33
ENDBRANCH   9  32
BRANCH  13  45
HETATM   45  O   UNL     1      -9.733   6.905  69.131  1.00  0.00    -0.154 OA 
BRANCH  45  46
HETATM   46  C   UNL     1      -9.136   5.602  69.049  1.00  0.00    -0.111 C  
HETATM   47  C   UNL     1      -9.255   3.156  66.349  1.00  0.00    -0.147 C  
HETATM   48  C   UNL     1      -8.931   3.271  70.234  1.00  0.00    -0.102 C  
HETATM   49  C   UNL     1      -9.291   4.768  70.319  1.00  0.00    -0.151 C  
HETATM   50  C   UNL     1      -9.335   2.730  68.846  1.00  0.00    -0.220 C  
HETATM   51  H   UNL     1      -8.638   4.890  72.144  1.00  0.00     0.000 HD 
HETATM   52  O   UNL     1      -8.542   5.409  71.354  1.00  0.00    -0.127 OA 
HETATM   53  O   UNL     1      -9.648   4.913  67.910  1.00  0.00    -0.133 OA 
HETATM   54  C   UNL     1      -8.927   3.689  67.728  1.00  0.00    -0.135 C  
BRANCH  48  55
HETATM   55  N   UNL     1      -9.603   2.496  71.334  1.00  0.00    -0.149 NA 
HETATM   56  C   UNL     1      -8.679   2.046  72.372  1.00  0.00    -0.062 C  
HETATM   57  C   UNL     1     -10.767   3.133  71.941  1.00  0.00     0.684 C  
ENDBRANCH  48  55
ENDBRANCH  45  46
ENDBRANCH  13  45
ENDBRANCH   2   3
TORSDOF 7
ENDMDL
MODEL       74
REMARK 921   NORMALIZED FREE ENERGY PREDICTED BY IDOCK:   13.85 KCAL/MOL
REMARK 922        TOTAL FREE ENERGY PREDICTED BY IDOCK:   16.94 KCAL/MOL
REMARK 923 INTER-LIGAND FREE ENERGY PREDICTED BY IDOCK:    9.57 KCAL/MOL
REMARK 924 INTRA-LIGAND FREE ENERGY PREDICTED BY IDOCK:    7.37 KCAL/MOL
REMARK 927      BINDING AFFINITY PREDICTED BY RF-SCORE:    0.00 PKD
ROOT
HETATM    1  C   UNL     1      -8.742   8.440  62.719  1.00  0.00     0.104 C  
HETATM    2  C   UNL     1      -8.103   7.447  63.680  1.00  0.00    -0.012 C  
ENDROOT
BRANCH   2   3
HETATM    3  C   UNL     1      -6.971   8.049  64.554  1.00  0.00    -0.071 C  
HETATM    4  O   UNL     1      -7.046   9.478  64.908  1.00  0.00    -0.098 OA 
HETATM    5  C   UNL     1      -8.206  10.142  65.109  1.00  0.00    -0.151 C  
HETATM    6  C   UNL     1      -7.996  11.613  65.517  1.00  0.00     0.730 C  
HETATM    7  O   UNL     1      -9.303   9.646  64.928  1.00  0.00    -0.247 OA 
HETATM    8  C   UNL     1      -6.518  11.907  65.812  1.00  0.00     1.631 C  
HETATM    9  C   UNL     1      -8.963  12.201  66.655  1.00  0.00    -0.198 C  
HETATM   10  C   UNL     1      -8.814   5.174  69.286  1.00  0.00    -0.095 C  
HETATM   11  C   UNL     1     -10.394  11.497  66.723  1.00  0.00    -0.262 C  
HETATM   12  C   UNL     1      -7.323   8.599  68.710  1.00  0.00    -0.083 C  
HETATM   13  C   UNL     1     -11.321  11.806  68.017  1.00  0.00    -0.288 C  
HETATM   14  C   UNL     1     -11.014  11.832  65.346  1.00  0.00    -0.352 C  
HETATM   15  C   UNL     1      -7.610   7.129  68.381  1.00  0.00    -0.118 C  
HETATM   16  C   UNL     1      -7.748   6.869  66.827  1.00  0.00    -0.102 C  
HETATM   17  C   UNL     1     -11.393  10.937  69.420  1.00  0.00    -0.280 C  
HETATM   18  C   UNL     1     -10.319   9.847  69.715  1.00  0.00    -0.278 C  
HETATM   19  C   UNL     1      -6.573   7.249  65.853  1.00  0.00    -0.052 C  
HETATM   20  C   UNL     1     -12.754  10.463  69.946  1.00  0.00     0.025 C  
HETATM   21  H   UNL     1      -5.314   7.532  67.309  1.00  0.00     0.000 HD 
HETATM   22  O   UNL     1     -11.103  11.981  70.433  1.00  0.00    -0.141 OA 
HETATM   23  C   UNL     1     -10.675   8.330  69.570  1.00  0.00    -0.179 C  
HETATM   24  H   UNL     1      -9.067   7.243  65.431  1.00  0.00     0.000 HD 
HETATM   25  N   UNL     1      -8.842   6.613  69.035  1.00  0.00    -0.129 NA 
HETATM   26  C   UNL     1     -11.232   7.916  68.215  1.00  0.00     0.514 C  
HETATM   27  H   UNL     1     -11.143  11.480  71.239  1.00  0.00     0.000 HD 
HETATM   28  C   UNL     1      -5.835   5.955  65.456  1.00  0.00    -0.024 C  
HETATM   29  C   UNL     1      -9.552   7.362  70.074  1.00  0.00    -0.168 C  
HETATM   30  O   UNL     1      -5.554   8.014  66.526  1.00  0.00    -0.031 OA 
HETATM   31  O   UNL     1      -8.984   7.399  66.365  1.00  0.00    -0.151 OA 
BRANCH   9  32
HETATM   32  O   UNL     1      -9.057  13.610  66.278  1.00  0.00    -0.128 OA 
BRANCH  32  33
HETATM   33  C   UNL     1     -10.009  14.450  66.924  1.00  0.00    -0.261 C  
HETATM   34  O   UNL     1     -10.239  17.818  64.353  1.00  0.00     2.008 OA 
HETATM   35  C   UNL     1     -10.396  16.915  65.449  1.00  0.00    -0.104 C  
HETATM   36  H   UNL     1     -11.040  17.931  63.854  1.00  0.00     0.000 HD 
HETATM   37  C   UNL     1      -9.088  16.730  66.263  1.00  0.00    -0.285 C  
HETATM   38  O   UNL     1     -11.160  14.676  66.101  1.00  0.00    -0.323 OA 
HETATM   39  C   UNL     1     -12.284  15.704  64.284  1.00  0.00    -0.012 C  
HETATM   40  C   UNL     1     -10.940  15.543  64.994  1.00  0.00    -0.440 C  
HETATM   41  C   UNL     1      -9.436  15.776  67.425  1.00  0.00    -0.213 C  
HETATM   42  C   UNL     1      -8.579  18.041  66.876  1.00  0.00    -0.262 C  
BRANCH  37  43
HETATM   43  O   UNL     1      -8.043  16.085  65.514  1.00  0.00     0.867 OA 
HETATM   44  C   UNL     1      -6.739  16.633  65.555  1.00  0.00     2.469 C  
ENDBRANCH  37  43
ENDBRANCH  32  33
ENDBRANCH   9  32
BRANCH  13  45
HETATM   45  O   UNL     1     -12.540  12.572  67.808  1.00  0.00     0.175 OA 
BRANCH  45  46
HETATM   46  C   UNL     1     -12.891  13.652  68.687  1.00  0.00     1.362 C  
HETATM   47  C   UNL     1     -11.583  17.051  68.832  1.00  0.00     0.661 C  
HETATM   48  C   UNL     1     -13.124  14.364  71.201  1.00  0.00    -0.352 C  
HETATM   49  C   UNL     1     -13.026  13.238  70.152  1.00  0.00     0.419 C  
HETATM   50  C   UNL     1     -12.233  15.544  70.764  1.00  0.00    -0.450 C  
HETATM   51  H   UNL     1     -14.229  12.097  71.163  1.00  0.00     0.000 HD 
HETATM   52  O   UNL     1     -14.145  12.355  70.252  1.00  0.00     3.483 OA 
HETATM   53  O   UNL     1     -11.954  14.716  68.534  1.00  0.00    -0.315 OA 
HETATM   54  C   UNL     1     -12.400  15.855  69.277  1.00  0.00     0.107 C  
BRANCH  48  55
HETATM   55  N   UNL     1     -12.729  13.861  72.563  1.00  0.00    -0.229 NA 
HETATM   56  C   UNL     1     -12.116  14.888  73.403  1.00  0.00    -0.296 C  
HETATM   57  C   UNL     1     -13.769  13.160  73.308  1.00  0.00     2.191 C  
ENDBRANCH  48  55
ENDBRANCH  45  46
ENDBRANCH  13  45
ENDBRANCH   2   3
TORSDOF 7
ENDMDL
MODEL       75
REMARK 921   NORMALIZED FREE ENERGY PREDICTED BY IDOCK:   14.20 KCAL/MOL
REMARK 922        TOTAL FREE ENERGY PREDICTED BY IDOCK:   17.43 KCAL/MOL
REMARK 923 INTER-LIGAND FREE ENERGY PREDICTED BY IDOCK:   12.41 KCAL/MOL
REMARK 924 INTRA-LIGAND FREE ENERGY PREDICTED BY IDOCK:    5.03 KCAL/MOL
REMARK 927      BINDING AFFINITY PREDICTED BY RF-SCORE:    0.00 PKD
ROOT
HETATM    1  C   UNL     1      -8.493  17.137  70.868  1.00  0.00     5.994 C  
HETATM    2  C   UNL     1      -7.830  17.126  69.498  1.00  0.00     0.426 C  
ENDROOT
BRANCH   2   3
HETATM    3  C   UNL     1      -8.826  17.181  68.310  1.00  0.00    -0.245 C  
HETATM    4  O   UNL     1      -8.859  16.045  67.371  1.00  0.00    -0.179 OA 
HETATM    5  C   UNL     1      -8.624  14.765  67.734  1.00  0.00    -0.166 C  
HETATM    6  C   UNL     1      -8.773  13.770  66.567  1.00  0.00     0.082 C  
HETATM    7  O   UNL     1      -8.272  14.438  68.853  1.00  0.00    -0.141 OA 
HETATM    8  C   UNL     1      -9.369  14.449  65.325  1.00  0.00     0.596 C  
HETATM    9  C   UNL     1      -9.487  12.369  66.887  1.00  0.00    -0.219 C  
HETATM   10  C   UNL     1     -13.407  16.417  71.844  1.00  0.00     1.371 C  
HETATM   11  C   UNL     1      -9.327  11.885  68.400  1.00  0.00    -0.184 C  
HETATM   12  C   UNL     1     -12.562  15.248  68.351  1.00  0.00     0.742 C  
HETATM   13  C   UNL     1     -10.256  10.651  68.894  1.00  0.00    -0.201 C  
HETATM   14  C   UNL     1      -7.800  11.688  68.543  1.00  0.00    -0.140 C  
HETATM   15  C   UNL     1     -12.469  16.166  69.575  1.00  0.00     0.561 C  
HETATM   16  C   UNL     1     -11.014  16.749  69.789  1.00  0.00    -0.090 C  
HETATM   17  C   UNL     1     -11.738  10.749  69.617  1.00  0.00    -0.323 C  
HETATM   18  C   UNL     1     -12.506  12.104  69.637  1.00  0.00     0.095 C  
HETATM   19  C   UNL     1     -10.315  17.574  68.647  1.00  0.00    -0.369 C  
HETATM   20  C   UNL     1     -11.983  10.008  70.938  1.00  0.00    -0.453 C  
HETATM   21  H   UNL     1     -11.958  17.746  67.619  1.00  0.00     0.000 HD 
HETATM   22  O   UNL     1     -12.564   9.905  68.720  1.00  0.00     0.566 OA 
HETATM   23  C   UNL     1     -12.578  12.950  70.952  1.00  0.00    -0.355 C  
HETATM   24  H   UNL     1      -9.283  16.071  70.401  1.00  0.00     0.000 HD 
HETATM   25  N   UNL     1     -12.877  15.498  70.840  1.00  0.00    -0.475 NA 
HETATM   26  C   UNL     1     -11.236  13.298  71.580  1.00  0.00     3.565 C  
HETATM   27  H   UNL     1     -13.416   9.962  69.136  1.00  0.00     0.000 HD 
HETATM   28  C   UNL     1     -10.384  19.068  69.019  1.00  0.00    -0.062 C  
HETATM   29  C   UNL     1     -13.532  14.188  70.860  1.00  0.00    -0.090 C  
HETATM   30  O   UNL     1     -11.060  17.509  67.416  1.00  0.00    -0.142 OA 
HETATM   31  O   UNL     1     -10.158  15.720  70.272  1.00  0.00    -0.204 OA 
BRANCH   9  32
HETATM   32  O   UNL     1      -8.829  11.467  65.944  1.00  0.00    -0.187 OA 
BRANCH  32  33
HETATM   33  C   UNL     1      -8.592  11.897  64.607  1.00  0.00     1.154 C  
HETATM   34  O   UNL     1     -11.383   9.637  62.348  1.00  0.00     3.146 OA 
HETATM   35  C   UNL     1     -10.320  10.505  62.742  1.00  0.00     0.549 C  
HETATM   36  H   UNL     1     -12.117  10.105  61.968  1.00  0.00     0.000 HD 
HETATM   37  C   UNL     1      -9.121   9.739  63.362  1.00  0.00    -0.229 C  
HETATM   38  O   UNL     1      -9.752  12.512  64.034  1.00  0.00    -0.148 OA 
HETATM   39  C   UNL     1     -11.913  12.442  63.060  1.00  0.00    -0.119 C  
HETATM   40  C   UNL     1     -10.804  11.611  63.705  1.00  0.00    -0.432 C  
HETATM   41  C   UNL     1      -8.051  10.803  63.685  1.00  0.00     0.128 C  
HETATM   42  C   UNL     1      -8.494   8.730  62.393  1.00  0.00    -0.204 C  
BRANCH  37  43
HETATM   43  O   UNL     1      -9.443   9.104  64.613  1.00  0.00     0.005 OA 
HETATM   44  C   UNL     1      -8.547   8.144  65.138  1.00  0.00    -0.071 C  
ENDBRANCH  37  43
ENDBRANCH  32  33
ENDBRANCH   9  32
BRANCH  13  45
HETATM   45  O   UNL     1      -9.596   9.393  69.209  1.00  0.00    -0.161 OA 
BRANCH  45  46
HETATM   46  C   UNL     1      -8.205   9.361  69.564  1.00  0.00    -0.124 C  
HETATM   47  C   UNL     1      -5.266   9.076  67.426  1.00  0.00    -0.034 C  
HETATM   48  C   UNL     1      -6.408   8.146  71.037  1.00  0.00    -0.037 C  
HETATM   49  C   UNL     1      -7.891   8.461  70.757  1.00  0.00    -0.089 C  
HETATM   50  C   UNL     1      -5.653   8.020  69.697  1.00  0.00    -0.026 C  
HETATM   51  H   UNL     1      -8.317   8.475  72.652  1.00  0.00     0.000 HD 
HETATM   52  O   UNL     1      -8.512   9.034  71.910  1.00  0.00    -0.363 OA 
HETATM   53  O   UNL     1      -7.430   8.999  68.423  1.00  0.00    -0.081 OA 
HETATM   54  C   UNL     1      -6.038   9.138  68.729  1.00  0.00    -0.044 C  
BRANCH  48  55
HETATM   55  N   UNL     1      -6.273   6.890  71.855  1.00  0.00    -0.038 NA 
HETATM   56  C   UNL     1      -5.870   7.140  73.237  1.00  0.00    -0.049 C  
HETATM   57  C   UNL     1      -7.417   5.986  71.823  1.00  0.00    -0.095 C  
ENDBRANCH  48  55
ENDBRANCH  45  46
ENDBRANCH  13  45
ENDBRANCH   2   3
TORSDOF 7
ENDMDL
MODEL       76
REMARK 921   NORMALIZED FREE ENERGY PREDICTED BY IDOCK:   15.33 KCAL/MOL
REMARK 922        TOTAL FREE ENERGY PREDICTED BY IDOCK:   19.02 KCAL/MOL
REMARK 923 INTER-LIGAND FREE ENERGY PREDICTED BY IDOCK:    0.67 KCAL/MOL
REMARK 924 INTRA-LIGAND FREE ENERGY PREDICTED BY IDOCK:   18.35 KCAL/MOL
REMARK 927      BINDING AFFINITY PREDICTED BY RF-SCORE:    0.00 PKD
ROOT
HETATM    1  C   UNL     1      -5.858  11.114  64.301  1.00  0.00     0.840 C  
HETATM    2  C   UNL     1      -6.441  10.021  63.416  1.00  0.00    -0.136 C  
ENDROOT
BRANCH   2   3
HETATM    3  C   UNL     1      -7.480   9.115  64.128  1.00  0.00    -0.109 C  
HETATM    4  O   UNL     1      -7.359   8.924  65.585  1.00  0.00    -0.084 OA 
HETATM    5  C   UNL     1      -6.897   9.871  66.431  1.00  0.00    -0.090 C  
HETATM    6  C   UNL     1      -6.923   9.427  67.906  1.00  0.00    -0.080 C  
HETATM    7  O   UNL     1      -6.449  10.941  66.060  1.00  0.00    -0.127 OA 
HETATM    8  C   UNL     1      -7.675   8.099  68.078  1.00  0.00    -0.114 C  
HETATM    9  C   UNL     1      -7.378  10.519  68.990  1.00  0.00    -0.103 C  
HETATM   10  C   UNL     1     -11.718  13.063  63.421  1.00  0.00    -0.415 C  
HETATM   11  C   UNL     1      -7.077  12.028  68.562  1.00  0.00    -0.098 C  
HETATM   12  C   UNL     1     -10.832  10.626  66.171  1.00  0.00    -0.069 C  
HETATM   13  C   UNL     1      -7.764  13.206  69.439  1.00  0.00     0.599 C  
HETATM   14  C   UNL     1      -5.534  12.062  68.466  1.00  0.00    -0.052 C  
HETATM   15  C   UNL     1     -10.845  11.166  64.736  1.00  0.00    -0.207 C  
HETATM   16  C   UNL     1      -9.501  10.860  63.959  1.00  0.00    -0.262 C  
HETATM   17  C   UNL     1      -9.211  13.949  69.148  1.00  0.00     0.345 C  
HETATM   18  C   UNL     1     -10.194  13.351  68.098  1.00  0.00    -0.246 C  
HETATM   19  C   UNL     1      -8.999   9.378  63.798  1.00  0.00    -0.115 C  
HETATM   20  C   UNL     1      -9.274  15.480  69.087  1.00  0.00    -0.246 C  
HETATM   21  H   UNL     1     -10.687   8.627  64.405  1.00  0.00     0.000 HD 
HETATM   22  O   UNL     1      -9.918  13.737  70.434  1.00  0.00     1.353 OA 
HETATM   23  C   UNL     1     -10.355  14.024  66.695  1.00  0.00    -0.278 C  
HETATM   24  H   UNL     1      -7.658  11.515  63.988  1.00  0.00     0.000 HD 
HETATM   25  N   UNL     1     -11.083  12.633  64.664  1.00  0.00    -0.299 NA 
HETATM   26  C   UNL     1      -9.066  14.205  65.906  1.00  0.00     0.262 C  
HETATM   27  H   UNL     1     -10.751  14.164  70.266  1.00  0.00     0.000 HD 
HETATM   28  C   UNL     1      -9.302   8.918  62.359  1.00  0.00     0.608 C  
HETATM   29  C   UNL     1     -11.506  13.417  65.825  1.00  0.00    -0.320 C  
HETATM   30  O   UNL     1      -9.771   8.468  64.604  1.00  0.00     1.063 OA 
HETATM   31  O   UNL     1      -8.465  11.699  64.455  1.00  0.00     0.635 OA 
BRANCH   9  32
HETATM   32  O   UNL     1      -6.616  10.115  70.170  1.00  0.00    -0.095 OA 
BRANCH  32  33
HETATM   33  C   UNL     1      -7.301   9.615  71.314  1.00  0.00     0.393 C  
HETATM   34  O   UNL     1      -9.919   6.700  69.686  1.00  0.00    -0.171 OA 
HETATM   35  C   UNL     1      -9.243   7.597  70.568  1.00  0.00    -0.159 C  
HETATM   36  H   UNL     1      -9.725   5.788  69.871  1.00  0.00     0.000 HD 
HETATM   37  C   UNL     1      -9.560   9.086  70.264  1.00  0.00    -0.199 C  
HETATM   38  O   UNL     1      -7.062   8.215  71.506  1.00  0.00    -0.063 OA 
HETATM   39  C   UNL     1      -7.389   5.928  70.974  1.00  0.00    -0.082 C  
HETATM   40  C   UNL     1      -7.717   7.365  70.570  1.00  0.00    -0.096 C  
HETATM   41  C   UNL     1      -8.801   9.912  71.324  1.00  0.00     1.409 C  
HETATM   42  C   UNL     1     -11.052   9.416  70.399  1.00  0.00    -0.311 C  
BRANCH  37  43
HETATM   43  O   UNL     1      -9.061   9.520  68.986  1.00  0.00    -0.136 OA 
HETATM   44  C   UNL     1      -9.867   9.324  67.840  1.00  0.00    -0.167 C  
ENDBRANCH  37  43
ENDBRANCH  32  33
ENDBRANCH   9  32
BRANCH  13  45
HETATM   45  O   UNL     1      -6.890  14.048  70.241  1.00  0.00     0.053 OA 
BRANCH  45  46
HETATM   46  C   UNL     1      -6.246  15.197  69.668  1.00  0.00    -0.135 C  
HETATM   47  C   UNL     1      -5.410  18.399  71.197  1.00  0.00    -0.224 C  
HETATM   48  C   UNL     1      -6.337  16.933  67.703  1.00  0.00    -0.146 C  
HETATM   49  C   UNL     1      -6.763  15.567  68.278  1.00  0.00    -0.118 C  
HETATM   50  C   UNL     1      -6.259  17.964  68.848  1.00  0.00    -0.214 C  
HETATM   51  H   UNL     1      -6.727  14.739  66.522  1.00  0.00     0.000 HD 
HETATM   52  O   UNL     1      -6.406  14.509  67.386  1.00  0.00    -0.322 OA 
HETATM   53  O   UNL     1      -6.345  16.298  70.568  1.00  0.00     0.157 OA 
HETATM   54  C   UNL     1      -5.556  17.388  70.077  1.00  0.00    -0.240 C  
BRANCH  48  55
HETATM   55  N   UNL     1      -7.292  17.384  66.632  1.00  0.00    -0.220 NA 
HETATM   56  C   UNL     1      -8.591  17.802  67.154  1.00  0.00    -0.233 C  
HETATM   57  C   UNL     1      -6.779  18.385  65.704  1.00  0.00    -0.269 C  
ENDBRANCH  48  55
ENDBRANCH  45  46
ENDBRANCH  13  45
ENDBRANCH   2   3
TORSDOF 7
ENDMDL
MODEL       77
REMARK 921   NORMALIZED FREE ENERGY PREDICTED BY IDOCK:   15.95 KCAL/MOL
REMARK 922        TOTAL FREE ENERGY PREDICTED BY IDOCK:   19.89 KCAL/MOL
REMARK 923 INTER-LIGAND FREE ENERGY PREDICTED BY IDOCK:    9.73 KCAL/MOL
REMARK 924 INTRA-LIGAND FREE ENERGY PREDICTED BY IDOCK:   10.16 KCAL/MOL
REMARK 927      BINDING AFFINITY PREDICTED BY RF-SCORE:    0.00 PKD
ROOT
HETATM    1  C   UNL     1      -5.602  14.057  70.309  1.00  0.00    -0.125 C  
HETATM    2  C   UNL     1      -5.187  15.342  69.608  1.00  0.00    -0.096 C  
ENDROOT
BRANCH   2   3
HETATM    3  C   UNL     1      -5.411  15.329  68.073  1.00  0.00    -0.134 C  
HETATM    4  O   UNL     1      -6.013  14.128  67.465  1.00  0.00    -0.337 OA 
HETATM    5  C   UNL     1      -6.928  13.350  68.085  1.00  0.00    -0.116 C  
HETATM    6  C   UNL     1      -7.429  12.190  67.205  1.00  0.00    -0.129 C  
HETATM    7  O   UNL     1      -7.275  13.515  69.241  1.00  0.00    -0.036 OA 
HETATM    8  C   UNL     1      -6.932  12.329  65.759  1.00  0.00     2.557 C  
HETATM    9  C   UNL     1      -8.995  11.845  67.271  1.00  0.00    -0.176 C  
HETATM   10  C   UNL     1      -9.745  19.218  68.461  1.00  0.00    -0.414 C  
HETATM   11  C   UNL     1      -9.687  12.217  68.661  1.00  0.00    -0.074 C  
HETATM   12  C   UNL     1      -9.119  16.193  66.283  1.00  0.00    -0.373 C  
HETATM   13  C   UNL     1     -11.308  12.191  68.722  1.00  0.00    -0.288 C  
HETATM   14  C   UNL     1      -8.953  11.305  69.671  1.00  0.00     0.850 C  
HETATM   15  C   UNL     1      -8.724  17.364  67.190  1.00  0.00    -0.227 C  
HETATM   16  C   UNL     1      -7.473  17.035  68.099  1.00  0.00    -0.195 C  
HETATM   17  C   UNL     1     -12.334  13.458  68.455  1.00  0.00     0.106 C  
HETATM   18  C   UNL     1     -11.792  14.779  67.832  1.00  0.00    -0.327 C  
HETATM   19  C   UNL     1      -6.112  16.593  67.445  1.00  0.00    -0.161 C  
HETATM   20  C   UNL     1     -13.407  13.792  69.499  1.00  0.00     2.031 C  
HETATM   21  H   UNL     1      -6.685  17.099  65.656  1.00  0.00     0.000 HD 
HETATM   22  O   UNL     1     -13.207  12.913  67.387  1.00  0.00     1.739 OA 
HETATM   23  C   UNL     1     -11.577  16.043  68.729  1.00  0.00    -0.352 C  
HETATM   24  H   UNL     1      -7.106  15.936  69.676  1.00  0.00     0.000 HD 
HETATM   25  N   UNL     1      -9.826  17.808  68.086  1.00  0.00    -0.309 NA 
HETATM   26  C   UNL     1     -10.685  15.837  69.946  1.00  0.00    -0.332 C  
HETATM   27  H   UNL     1     -13.797  13.642  67.234  1.00  0.00     0.000 HD 
HETATM   28  C   UNL     1      -5.145  17.792  67.482  1.00  0.00    -0.134 C  
HETATM   29  C   UNL     1     -11.204  17.336  67.929  1.00  0.00     0.109 C  
HETATM   30  O   UNL     1      -6.263  16.337  66.035  1.00  0.00     0.608 OA 
HETATM   31  O   UNL     1      -7.859  16.134  69.130  1.00  0.00    -0.222 OA 
BRANCH   9  32
HETATM   32  O   UNL     1      -9.003  10.407  67.015  1.00  0.00    -0.139 OA 
BRANCH  32  33
HETATM   33  C   UNL     1      -8.038   9.842  66.133  1.00  0.00    -0.119 C  
HETATM   34  O   UNL     1      -7.953   5.754  67.266  1.00  0.00    -0.101 OA 
HETATM   35  C   UNL     1      -7.674   7.015  66.655  1.00  0.00    -0.094 C  
HETATM   36  H   UNL     1      -8.323   5.126  66.657  1.00  0.00     0.000 HD 
HETATM   37  C   UNL     1      -7.070   8.041  67.650  1.00  0.00    -0.083 C  
HETATM   38  O   UNL     1      -8.613   8.830  65.296  1.00  0.00    -0.170 OA 
HETATM   39  C   UNL     1      -9.459   6.650  64.903  1.00  0.00     1.353 C  
HETATM   40  C   UNL     1      -8.919   7.610  65.963  1.00  0.00    -0.139 C  
HETATM   41  C   UNL     1      -6.783   9.317  66.830  1.00  0.00    -0.076 C  
HETATM   42  C   UNL     1      -5.741   7.571  68.256  1.00  0.00    -0.027 C  
BRANCH  37  43
HETATM   43  O   UNL     1      -7.988   8.429  68.687  1.00  0.00    -0.116 OA 
HETATM   44  C   UNL     1      -8.875   7.458  69.209  1.00  0.00    -0.136 C  
ENDBRANCH  37  43
ENDBRANCH  32  33
ENDBRANCH   9  32
BRANCH  13  45
HETATM   45  O   UNL     1     -11.936  11.165  69.540  1.00  0.00    -0.311 OA 
BRANCH  45  46
HETATM   46  C   UNL     1     -12.126  11.362  70.950  1.00  0.00    -0.277 C  
HETATM   47  C   UNL     1     -14.165   9.474  73.308  1.00  0.00     1.317 C  
HETATM   48  C   UNL     1     -12.829  13.100  72.784  1.00  0.00     0.427 C  
HETATM   49  C   UNL     1     -12.344  12.821  71.347  1.00  0.00     0.037 C  
HETATM   50  C   UNL     1     -13.796  11.980  73.221  1.00  0.00     3.842 C  
HETATM   51  H   UNL     1     -11.271  14.439  71.322  1.00  0.00     0.000 HD 
HETATM   52  O   UNL     1     -11.135  13.532  71.075  1.00  0.00     1.242 OA 
HETATM   53  O   UNL     1     -13.192  10.535  71.409  1.00  0.00    -0.376 OA 
HETATM   54  C   UNL     1     -13.266  10.599  72.837  1.00  0.00     1.906 C  
BRANCH  48  55
HETATM   55  N   UNL     1     -13.488  14.450  72.874  1.00  0.00    -0.624 NA 
HETATM   56  C   UNL     1     -12.583  15.506  73.322  1.00  0.00    -0.499 C  
HETATM   57  C   UNL     1     -14.213  14.883  71.684  1.00  0.00    -0.542 C  
ENDBRANCH  48  55
ENDBRANCH  45  46
ENDBRANCH  13  45
ENDBRANCH   2   3
TORSDOF 7
ENDMDL
MODEL       78
REMARK 921   NORMALIZED FREE ENERGY PREDICTED BY IDOCK:   17.79 KCAL/MOL
REMARK 922        TOTAL FREE ENERGY PREDICTED BY IDOCK:   22.49 KCAL/MOL
REMARK 923 INTER-LIGAND FREE ENERGY PREDICTED BY IDOCK:    9.04 KCAL/MOL
REMARK 924 INTRA-LIGAND FREE ENERGY PREDICTED BY IDOCK:   13.45 KCAL/MOL
REMARK 927      BINDING AFFINITY PREDICTED BY RF-SCORE:    0.00 PKD
ROOT
HETATM    1  C   UNL     1     -10.121   9.700  71.652  1.00  0.00     0.489 C  
HETATM    2  C   UNL     1     -10.073   8.215  71.982  1.00  0.00    -0.304 C  
ENDROOT
BRANCH   2   3
HETATM    3  C   UNL     1      -8.748   7.517  71.578  1.00  0.00    -0.116 C  
HETATM    4  O   UNL     1      -8.428   7.401  70.143  1.00  0.00    -0.134 OA 
HETATM    5  C   UNL     1      -8.782   8.320  69.218  1.00  0.00    -0.139 C  
HETATM    6  C   UNL     1      -8.278   7.977  67.803  1.00  0.00    -0.129 C  
HETATM    7  O   UNL     1      -9.478   9.288  69.466  1.00  0.00    -0.160 OA 
HETATM    8  C   UNL     1      -7.307   6.787  67.828  1.00  0.00    -0.096 C  
HETATM    9  C   UNL     1      -7.720   9.189  66.912  1.00  0.00    -0.098 C  
HETATM   10  C   UNL     1      -5.552  11.993  73.528  1.00  0.00     1.488 C  
HETATM   11  C   UNL     1      -8.362  10.608  67.264  1.00  0.00    -0.120 C  
HETATM   12  C   UNL     1      -5.244   9.628  70.596  1.00  0.00    -0.039 C  
HETATM   13  C   UNL     1      -7.654  11.927  66.639  1.00  0.00     0.039 C  
HETATM   14  C   UNL     1      -9.856  10.409  66.920  1.00  0.00    -0.236 C  
HETATM   15  C   UNL     1      -5.715  10.074  71.985  1.00  0.00     0.245 C  
HETATM   16  C   UNL     1      -7.155   9.527  72.344  1.00  0.00     1.132 C  
HETATM   17  C   UNL     1      -6.482  12.854  67.342  1.00  0.00    -0.120 C  
HETATM   18  C   UNL     1      -5.746  12.343  68.616  1.00  0.00    -0.054 C  
HETATM   19  C   UNL     1      -7.442   7.980  72.329  1.00  0.00    -0.098 C  
HETATM   20  C   UNL     1      -6.681  14.372  67.446  1.00  0.00    -0.002 C  
HETATM   21  H   UNL     1      -5.554   7.523  72.212  1.00  0.00     0.000 HD 
HETATM   22  O   UNL     1      -5.421  12.829  66.305  1.00  0.00     0.432 OA 
HETATM   23  C   UNL     1      -6.089  12.945  70.019  1.00  0.00    -0.110 C  
HETATM   24  H   UNL     1      -8.998   9.904  71.806  1.00  0.00     0.000 HD 
HETATM   25  N   UNL     1      -5.742  11.552  72.148  1.00  0.00     0.345 NA 
HETATM   26  C   UNL     1      -7.558  12.885  70.414  1.00  0.00     3.133 C  
HETATM   27  H   UNL     1      -4.747  13.362  66.710  1.00  0.00     0.000 HD 
HETATM   28  C   UNL     1      -7.479   7.480  73.787  1.00  0.00    -0.129 C  
HETATM   29  C   UNL     1      -5.143  12.461  71.169  1.00  0.00    -0.148 C  
HETATM   30  O   UNL     1      -6.342   7.244  71.759  1.00  0.00    -0.040 OA 
HETATM   31  O   UNL     1      -8.133  10.233  71.590  1.00  0.00     2.031 OA 
BRANCH   9  32
HETATM   32  O   UNL     1      -8.051   8.752  65.558  1.00  0.00    -0.104 OA 
BRANCH  32  33
HETATM   33  C   UNL     1      -9.393   8.397  65.241  1.00  0.00     0.316 C  
HETATM   34  O   UNL     1      -9.467   4.201  65.872  1.00  0.00    -0.153 OA 
HETATM   35  C   UNL     1      -9.811   5.542  65.519  1.00  0.00     0.258 C  
HETATM   36  H   UNL     1      -9.958   3.882  66.620  1.00  0.00     0.000 HD 
HETATM   37  C   UNL     1      -9.009   6.063  64.297  1.00  0.00     0.584 C  
HETATM   38  O   UNL     1     -10.072   7.829  66.369  1.00  0.00    -0.191 OA 
HETATM   39  C   UNL     1     -10.529   6.065  67.886  1.00  0.00    -0.294 C  
HETATM   40  C   UNL     1      -9.658   6.511  66.711  1.00  0.00    -0.161 C  
HETATM   41  C   UNL     1      -9.529   7.489  64.018  1.00  0.00     2.802 C  
HETATM   42  C   UNL     1      -9.244   5.228  63.032  1.00  0.00     0.319 C  
BRANCH  37  43
HETATM   43  O   UNL     1      -7.601   6.195  64.561  1.00  0.00    -0.080 OA 
HETATM   44  C   UNL     1      -6.730   6.477  63.481  1.00  0.00    -0.045 C  
ENDBRANCH  37  43
ENDBRANCH  32  33
ENDBRANCH   9  32
BRANCH  13  45
HETATM   45  O   UNL     1      -8.394  12.679  65.638  1.00  0.00     1.042 OA 
BRANCH  45  46
HETATM   46  C   UNL     1      -9.570  13.421  65.996  1.00  0.00    -0.159 C  
HETATM   47  C   UNL     1     -11.192  16.187  64.261  1.00  0.00    -0.039 C  
HETATM   48  C   UNL     1     -10.701  14.842  67.889  1.00  0.00    -0.259 C  
HETATM   49  C   UNL     1      -9.628  13.816  67.471  1.00  0.00    -0.219 C  
HETATM   50  C   UNL     1     -10.885  15.875  66.758  1.00  0.00    -0.228 C  
HETATM   51  H   UNL     1      -9.786  12.861  69.154  1.00  0.00     0.000 HD 
HETATM   52  O   UNL     1      -9.750  12.616  68.237  1.00  0.00    -0.217 OA 
HETATM   53  O   UNL     1      -9.692  14.562  65.149  1.00  0.00    -0.202 OA 
HETATM   54  C   UNL     1     -10.950  15.202  65.387  1.00  0.00    -0.374 C  
BRANCH  48  55
HETATM   55  N   UNL     1     -10.324  15.514  69.181  1.00  0.00    -0.223 NA 
HETATM   56  C   UNL     1      -8.980  16.087  69.163  1.00  0.00    -0.252 C  
HETATM   57  C   UNL     1     -11.279  16.491  69.691  1.00  0.00    -0.154 C  
ENDBRANCH  48  55
ENDBRANCH  45  46
ENDBRANCH  13  45
ENDBRANCH   2   3
TORSDOF 7
ENDMDL
MODEL       79
REMARK 921   NORMALIZED FREE ENERGY PREDICTED BY IDOCK:   18.55 KCAL/MOL
REMARK 922        TOTAL FREE ENERGY PREDICTED BY IDOCK:   23.56 KCAL/MOL
REMARK 923 INTER-LIGAND FREE ENERGY PREDICTED BY IDOCK:   14.28 KCAL/MOL
REMARK 924 INTRA-LIGAND FREE ENERGY PREDICTED BY IDOCK:    9.28 KCAL/MOL
REMARK 927      BINDING AFFINITY PREDICTED BY RF-SCORE:    0.00 PKD
ROOT
HETATM    1  C   UNL     1      -6.895  19.530  67.247  1.00  0.00    -0.222 C  
HETATM    2  C   UNL     1      -7.690  18.331  67.744  1.00  0.00    -0.239 C  
ENDROOT
BRANCH   2   3
HETATM    3  C   UNL     1      -9.034  18.108  67.002  1.00  0.00    -0.263 C  
HETATM    4  O   UNL     1      -9.193  16.885  66.194  1.00  0.00    -0.365 OA 
HETATM    5  C   UNL     1      -8.620  15.701  66.504  1.00  0.00    -0.300 C  
HETATM    6  C   UNL     1      -8.991  14.576  65.519  1.00  0.00     1.039 C  
HETATM    7  O   UNL     1      -7.844  15.553  67.431  1.00  0.00    -0.152 OA 
HETATM    8  C   UNL     1     -10.097  15.020  64.552  1.00  0.00     0.605 C  
HETATM    9  C   UNL     1      -9.285  13.126  66.143  1.00  0.00     0.016 C  
HETATM   10  C   UNL     1     -11.860  17.054  71.997  1.00  0.00     0.867 C  
HETATM   11  C   UNL     1      -8.518  12.838  67.513  1.00  0.00    -0.181 C  
HETATM   12  C   UNL     1     -12.107  15.655  68.495  1.00  0.00    -0.010 C  
HETATM   13  C   UNL     1      -8.978  11.539  68.370  1.00  0.00    -0.173 C  
HETATM   14  C   UNL     1      -7.030  12.887  67.097  1.00  0.00     0.047 C  
HETATM   15  C   UNL     1     -11.753  16.703  69.556  1.00  0.00     0.464 C  
HETATM   16  C   UNL     1     -10.445  17.516  69.197  1.00  0.00    -0.190 C  
HETATM   17  C   UNL     1     -10.101  11.492  69.579  1.00  0.00     0.425 C  
HETATM   18  C   UNL     1     -11.041  12.712  69.816  1.00  0.00     0.129 C  
HETATM   19  C   UNL     1     -10.353  18.309  67.841  1.00  0.00    -0.399 C  
HETATM   20  C   UNL     1      -9.729  10.869  70.931  1.00  0.00     3.483 C  
HETATM   21  H   UNL     1     -12.255  18.121  67.478  1.00  0.00     0.000 HD 
HETATM   22  O   UNL     1     -11.026  10.442  69.086  1.00  0.00    -0.214 OA 
HETATM   23  C   UNL     1     -10.795  13.674  71.025  1.00  0.00     2.568 C  
HETATM   24  H   UNL     1      -8.519  17.174  69.163  1.00  0.00     0.000 HD 
HETATM   25  N   UNL     1     -11.563  16.121  70.913  1.00  0.00    -0.405 NA 
HETATM   26  C   UNL     1      -9.402  14.283  71.102  1.00  0.00     4.621 C  
HETATM   27  H   UNL     1     -11.672  10.415  69.782  1.00  0.00     0.000 HD 
HETATM   28  C   UNL     1     -10.551  19.807  68.143  1.00  0.00    -0.392 C  
HETATM   29  C   UNL     1     -11.924  14.739  71.232  1.00  0.00    -0.349 C  
HETATM   30  O   UNL     1     -11.460  18.000  66.972  1.00  0.00     0.567 OA 
HETATM   31  O   UNL     1      -9.305  16.685  69.380  1.00  0.00    -0.158 OA 
BRANCH   9  32
HETATM   32  O   UNL     1      -8.852  12.237  65.068  1.00  0.00     0.602 OA 
BRANCH  32  33
HETATM   33  C   UNL     1      -9.660  11.120  64.708  1.00  0.00    -0.240 C  
HETATM   34  O   UNL     1     -13.607  12.659  64.942  1.00  0.00    -0.328 OA 
HETATM   35  C   UNL     1     -12.477  11.797  64.804  1.00  0.00     0.369 C  
HETATM   36  H   UNL     1     -14.076  12.782  64.124  1.00  0.00     0.000 HD 
HETATM   37  C   UNL     1     -11.712  11.597  66.139  1.00  0.00     0.104 C  
HETATM   38  O   UNL     1     -10.425  11.379  63.524  1.00  0.00    -0.359 OA 
HETATM   39  C   UNL     1     -12.230  12.380  62.357  1.00  0.00     2.192 C  
HETATM   40  C   UNL     1     -11.510  12.283  63.702  1.00  0.00    -0.490 C  
HETATM   41  C   UNL     1     -10.563  10.613  65.833  1.00  0.00    -0.178 C  
HETATM   42  C   UNL     1     -12.581  10.968  67.235  1.00  0.00     3.710 C  
BRANCH  37  43
HETATM   43  O   UNL     1     -11.089  12.802  66.620  1.00  0.00    -0.261 OA 
HETATM   44  C   UNL     1     -11.898  13.787  67.234  1.00  0.00    -0.401 C  
ENDBRANCH  37  43
ENDBRANCH  32  33
ENDBRANCH   9  32
BRANCH  13  45
HETATM   45  O   UNL     1      -8.036  10.435  68.479  1.00  0.00    -0.106 OA 
BRANCH  45  46
HETATM   46  C   UNL     1      -8.501   9.081  68.590  1.00  0.00    -0.128 C  
HETATM   47  C   UNL     1      -9.869   7.321  71.474  1.00  0.00    -0.182 C  
HETATM   48  C   UNL     1      -7.850   6.566  68.224  1.00  0.00    -0.106 C  
HETATM   49  C   UNL     1      -7.585   8.056  67.923  1.00  0.00    -0.112 C  
HETATM   50  C   UNL     1      -8.313   6.418  69.688  1.00  0.00    -0.126 C  
HETATM   51  H   UNL     1      -7.044   7.662  66.100  1.00  0.00     0.000 HD 
HETATM   52  O   UNL     1      -7.613   8.299  66.515  1.00  0.00    -0.089 OA 
HETATM   53  O   UNL     1      -8.722   8.763  69.962  1.00  0.00    -0.132 OA 
HETATM   54  C   UNL     1      -9.349   7.480  70.059  1.00  0.00    -0.154 C  
BRANCH  48  55
HETATM   55  N   UNL     1      -6.621   5.741  67.959  1.00  0.00    -0.050 NA 
HETATM   56  C   UNL     1      -6.743   4.358  68.415  1.00  0.00    -0.047 C  
HETATM   57  C   UNL     1      -6.117   5.773  66.590  1.00  0.00    -0.026 C  
ENDBRANCH  48  55
ENDBRANCH  45  46
ENDBRANCH  13  45
ENDBRANCH   2   3
TORSDOF 7
ENDMDL
MODEL       80
REMARK 921   NORMALIZED FREE ENERGY PREDICTED BY IDOCK:   18.70 KCAL/MOL
REMARK 922        TOTAL FREE ENERGY PREDICTED BY IDOCK:   23.77 KCAL/MOL
REMARK 923 INTER-LIGAND FREE ENERGY PREDICTED BY IDOCK:   15.76 KCAL/MOL
REMARK 924 INTRA-LIGAND FREE ENERGY PREDICTED BY IDOCK:    8.01 KCAL/MOL
REMARK 927      BINDING AFFINITY PREDICTED BY RF-SCORE:    0.00 PKD
ROOT
HETATM    1  C   UNL     1      -6.472   5.306  69.670  1.00  0.00    -0.034 C  
HETATM    2  C   UNL     1      -5.440   6.253  70.264  1.00  0.00    -0.014 C  
ENDROOT
BRANCH   2   3
HETATM    3  C   UNL     1      -5.795   6.770  71.683  1.00  0.00    -0.037 C  
HETATM    4  O   UNL     1      -5.961   8.223  71.877  1.00  0.00    -0.037 OA 
HETATM    5  C   UNL     1      -6.451   9.055  70.931  1.00  0.00    -0.064 C  
HETATM    6  C   UNL     1      -6.567  10.514  71.414  1.00  0.00     1.080 C  
HETATM    7  O   UNL     1      -6.717   8.700  69.797  1.00  0.00    -0.041 OA 
HETATM    8  C   UNL     1      -6.305  10.627  72.922  1.00  0.00     2.740 C  
HETATM    9  C   UNL     1      -7.875  11.329  70.968  1.00  0.00     5.148 C  
HETATM   10  C   UNL     1     -11.207   4.615  71.340  1.00  0.00     1.003 C  
HETATM   11  C   UNL     1      -8.513  10.837  69.589  1.00  0.00     0.217 C  
HETATM   12  C   UNL     1      -9.716   7.736  72.863  1.00  0.00    -0.310 C  
HETATM   13  C   UNL     1      -9.991  11.386  69.209  1.00  0.00     0.115 C  
HETATM   14  C   UNL     1      -7.393  11.129  68.563  1.00  0.00    -0.104 C  
HETATM   15  C   UNL     1      -9.700   6.296  72.337  1.00  0.00    -0.153 C  
HETATM   16  C   UNL     1      -8.331   5.918  71.639  1.00  0.00    -0.127 C  
HETATM   17  C   UNL     1     -11.437  10.666  69.548  1.00  0.00    -0.291 C  
HETATM   18  C   UNL     1     -11.495   9.469  70.545  1.00  0.00    -0.337 C  
HETATM   19  C   UNL     1      -6.978   6.044  72.430  1.00  0.00    -0.079 C  
HETATM   20  C   UNL     1     -12.448  10.432  68.418  1.00  0.00     1.886 C  
HETATM   21  H   UNL     1      -7.875   6.281  74.140  1.00  0.00     0.000 HD 
HETATM   22  O   UNL     1     -12.146  11.747  70.275  1.00  0.00    -0.338 OA 
HETATM   23  C   UNL     1     -11.680   8.009  70.014  1.00  0.00     0.278 C  
HETATM   24  H   UNL     1      -7.424   6.343  69.958  1.00  0.00     0.000 HD 
HETATM   25  N   UNL     1     -10.792   6.015  71.367  1.00  0.00    -0.261 NA 
HETATM   26  C   UNL     1     -10.660   7.555  68.981  1.00  0.00    -0.190 C  
HETATM   27  H   UNL     1     -12.978  11.332  70.470  1.00  0.00     0.000 HD 
HETATM   28  C   UNL     1      -6.531   4.630  72.852  1.00  0.00    -0.042 C  
HETATM   29  C   UNL     1     -11.901   6.945  71.142  1.00  0.00    -0.349 C  
HETATM   30  O   UNL     1      -7.162   6.719  73.690  1.00  0.00    -0.079 OA 
HETATM   31  O   UNL     1      -8.247   6.570  70.377  1.00  0.00    -0.121 OA 
BRANCH   9  32
HETATM   32  O   UNL     1      -7.369  12.698  70.887  1.00  0.00     2.774 OA 
BRANCH  32  33
HETATM   33  C   UNL     1      -5.964  12.929  70.852  1.00  0.00     0.147 C  
HETATM   34  O   UNL     1      -5.663  16.871  69.310  1.00  0.00    -0.147 OA 
HETATM   35  C   UNL     1      -5.365  15.558  69.789  1.00  0.00    -0.104 C  
HETATM   36  H   UNL     1      -5.379  17.552  69.909  1.00  0.00     0.000 HD 
HETATM   37  C   UNL     1      -5.829  14.446  68.811  1.00  0.00    -0.085 C  
HETATM   38  O   UNL     1      -5.586  14.026  71.693  1.00  0.00    -0.212 OA 
HETATM   39  C   UNL     1      -5.413  16.338  72.193  1.00  0.00     0.816 C  
HETATM   40  C   UNL     1      -5.950  15.310  71.196  1.00  0.00     0.312 C  
HETATM   41  C   UNL     1      -5.394  13.108  69.445  1.00  0.00    -0.077 C  
HETATM   42  C   UNL     1      -5.160  14.547  67.435  1.00  0.00     0.398 C  
BRANCH  37  43
HETATM   43  O   UNL     1      -7.260  14.377  68.672  1.00  0.00    -0.108 OA 
HETATM   44  C   UNL     1      -7.926  15.412  67.975  1.00  0.00    -0.130 C  
ENDBRANCH  37  43
ENDBRANCH  32  33
ENDBRANCH   9  32
BRANCH  13  45
HETATM   45  O   UNL     1     -10.104  12.291  68.075  1.00  0.00    -0.194 OA 
BRANCH  45  46
HETATM   46  C   UNL     1      -9.793  11.846  66.746  1.00  0.00    -0.197 C  
HETATM   47  C   UNL     1     -11.105  12.993  63.544  1.00  0.00    -0.176 C  
HETATM   48  C   UNL     1      -9.672   9.751  65.172  1.00  0.00    -0.268 C  
HETATM   49  C   UNL     1      -9.724  10.327  66.602  1.00  0.00    -0.185 C  
HETATM   50  C   UNL     1     -10.543  10.622  64.242  1.00  0.00    -0.082 C  
HETATM   51  H   UNL     1      -8.567   8.923  67.282  1.00  0.00     0.000 HD 
HETATM   52  O   UNL     1      -8.611   9.868  67.371  1.00  0.00    -0.124 OA 
HETATM   53  O   UNL     1     -10.721  12.413  65.823  1.00  0.00    -0.255 OA 
HETATM   54  C   UNL     1     -10.309  12.113  64.486  1.00  0.00    -0.304 C  
BRANCH  48  55
HETATM   55  N   UNL     1     -10.128   8.318  65.156  1.00  0.00     1.801 NA 
HETATM   56  C   UNL     1      -9.506   7.525  64.098  1.00  0.00     2.732 C  
HETATM   57  C   UNL     1     -10.044   7.610  66.429  1.00  0.00    -0.027 C  
ENDBRANCH  48  55
ENDBRANCH  45  46
ENDBRANCH  13  45
ENDBRANCH   2   3
TORSDOF 7
ENDMDL
MODEL       81
REMARK 921   NORMALIZED FREE ENERGY PREDICTED BY IDOCK:   19.00 KCAL/MOL
REMARK 922        TOTAL FREE ENERGY PREDICTED BY IDOCK:   24.19 KCAL/MOL
REMARK 923 INTER-LIGAND FREE ENERGY PREDICTED BY IDOCK:   14.49 KCAL/MOL
REMARK 924 INTRA-LIGAND FREE ENERGY PREDICTED BY IDOCK:    9.70 KCAL/MOL
REMARK 927      BINDING AFFINITY PREDICTED BY RF-SCORE:    0.00 PKD
ROOT
HETATM    1  C   UNL     1      -7.776  10.071  64.364  1.00  0.00    -0.145 C  
HETATM    2  C   UNL     1      -7.495   8.899  65.294  1.00  0.00    -0.089 C  
ENDROOT
BRANCH   2   3
HETATM    3  C   UNL     1      -8.300   8.933  66.619  1.00  0.00    -0.111 C  
HETATM    4  O   UNL     1      -8.020  10.017  67.579  1.00  0.00    -0.105 OA 
HETATM    5  C   UNL     1      -7.650  11.265  67.216  1.00  0.00    -0.130 C  
HETATM    6  C   UNL     1      -7.471  12.214  68.416  1.00  0.00    -0.114 C  
HETATM    7  O   UNL     1      -7.424  11.589  66.064  1.00  0.00     0.102 OA 
HETATM    8  C   UNL     1      -7.971  11.572  69.718  1.00  0.00     0.994 C  
HETATM    9  C   UNL     1      -8.005  13.718  68.244  1.00  0.00    -0.146 C  
HETATM   10  C   UNL     1     -13.187  10.523  63.855  1.00  0.00     6.418 C  
HETATM   11  C   UNL     1      -8.001  14.244  66.737  1.00  0.00     0.309 C  
HETATM   12  C   UNL     1     -11.664  11.390  67.204  1.00  0.00    -0.059 C  
HETATM   13  C   UNL     1      -8.796  15.622  66.422  1.00  0.00    -0.330 C  
HETATM   14  C   UNL     1      -6.501  14.223  66.364  1.00  0.00     3.784 C  
HETATM   15  C   UNL     1     -11.895  10.527  65.958  1.00  0.00     2.431 C  
HETATM   16  C   UNL     1     -10.593   9.750  65.507  1.00  0.00     0.546 C  
HETATM   17  C   UNL     1     -10.367  15.776  65.934  1.00  0.00    -0.354 C  
HETATM   18  C   UNL     1     -11.325  14.549  66.001  1.00  0.00    -0.341 C  
HETATM   19  C   UNL     1      -9.865   8.778  66.507  1.00  0.00    -0.279 C  
HETATM   20  C   UNL     1     -10.692  16.606  64.686  1.00  0.00     0.239 C  
HETATM   21  H   UNL     1     -11.342   8.800  67.772  1.00  0.00     0.000 HD 
HETATM   22  O   UNL     1     -10.912  16.688  66.969  1.00  0.00    -0.157 OA 
HETATM   23  C   UNL     1     -11.720  13.786  64.693  1.00  0.00    -0.417 C  
HETATM   24  H   UNL     1      -8.891  10.196  64.652  1.00  0.00     0.000 HD 
HETATM   25  N   UNL     1     -12.381  11.306  64.787  1.00  0.00     0.618 NA 
HETATM   26  C   UNL     1     -10.555  13.276  63.856  1.00  0.00    -0.075 C  
HETATM   27  H   UNL     1     -11.816  16.776  66.689  1.00  0.00     0.000 HD 
HETATM   28  C   UNL     1     -10.213   7.329  66.114  1.00  0.00     0.401 C  
HETATM   29  C   UNL     1     -12.826  12.697  64.901  1.00  0.00    -0.228 C  
HETATM   30  O   UNL     1     -10.399   8.893  67.840  1.00  0.00    -0.211 OA 
HETATM   31  O   UNL     1      -9.673  10.663  64.923  1.00  0.00    -0.234 OA 
BRANCH   9  32
HETATM   32  O   UNL     1      -7.085  14.469  69.095  1.00  0.00    -0.117 OA 
BRANCH  32  33
HETATM   33  C   UNL     1      -7.551  15.020  70.323  1.00  0.00     0.471 C  
HETATM   34  O   UNL     1      -7.651  19.190  69.543  1.00  0.00    -0.117 OA 
HETATM   35  C   UNL     1      -7.705  17.911  70.176  1.00  0.00     2.065 C  
HETATM   36  H   UNL     1      -8.505  19.599  69.470  1.00  0.00     0.000 HD 
HETATM   37  C   UNL     1      -6.309  17.243  70.295  1.00  0.00     0.406 C  
HETATM   38  O   UNL     1      -8.795  15.713  70.154  1.00  0.00     0.184 OA 
HETATM   39  C   UNL     1     -10.099  17.562  69.446  1.00  0.00    -0.053 C  
HETATM   40  C   UNL     1      -8.695  16.958  69.472  1.00  0.00     0.455 C  
HETATM   41  C   UNL     1      -6.532  15.909  71.037  1.00  0.00     1.215 C  
HETATM   42  C   UNL     1      -5.320  18.074  71.122  1.00  0.00    -0.150 C  
BRANCH  37  43
HETATM   43  O   UNL     1      -5.737  16.901  69.019  1.00  0.00    -0.140 OA 
HETATM   44  C   UNL     1      -5.134  15.630  68.864  1.00  0.00    -0.099 C  
ENDBRANCH  37  43
ENDBRANCH  32  33
ENDBRANCH   9  32
BRANCH  13  45
HETATM   45  O   UNL     1      -8.008  16.784  66.040  1.00  0.00    -0.372 OA 
BRANCH  45  46
HETATM   46  C   UNL     1      -8.348  18.094  66.521  1.00  0.00    -0.265 C  
HETATM   47  C   UNL     1     -11.089  20.290  65.547  1.00  0.00     0.299 C  
HETATM   48  C   UNL     1      -7.442  20.525  66.908  1.00  0.00    -0.285 C  
HETATM   49  C   UNL     1      -7.149  19.030  66.667  1.00  0.00    -0.211 C  
HETATM   50  C   UNL     1      -8.704  20.929  66.117  1.00  0.00     0.705 C  
HETATM   51  H   UNL     1      -5.567  19.089  67.792  1.00  0.00     0.000 HD 
HETATM   52  O   UNL     1      -6.312  18.507  67.700  1.00  0.00    -0.194 OA 
HETATM   53  O   UNL     1      -9.352  18.664  65.685  1.00  0.00    -0.307 OA 
HETATM   54  C   UNL     1      -9.815  19.889  66.262  1.00  0.00    -0.461 C  
BRANCH  48  55
HETATM   55  N   UNL     1      -6.262  21.371  66.514  1.00  0.00    -0.388 NA 
HETATM   56  C   UNL     1      -5.163  21.313  67.475  1.00  0.00    -0.269 C  
HETATM   57  C   UNL     1      -5.756  21.165  65.161  1.00  0.00    -0.198 C  
ENDBRANCH  48  55
ENDBRANCH  45  46
ENDBRANCH  13  45
ENDBRANCH   2   3
TORSDOF 7
ENDMDL
MODEL       82
REMARK 921   NORMALIZED FREE ENERGY PREDICTED BY IDOCK:   20.37 KCAL/MOL
REMARK 922        TOTAL FREE ENERGY PREDICTED BY IDOCK:   26.13 KCAL/MOL
REMARK 923 INTER-LIGAND FREE ENERGY PREDICTED BY IDOCK:   22.12 KCAL/MOL
REMARK 924 INTRA-LIGAND FREE ENERGY PREDICTED BY IDOCK:    4.01 KCAL/MOL
REMARK 927      BINDING AFFINITY PREDICTED BY RF-SCORE:    0.00 PKD
ROOT
HETATM    1  C   UNL     1     -11.734  10.545  65.635  1.00  0.00     2.085 C  
HETATM    2  C   UNL     1     -10.760   9.736  64.790  1.00  0.00     1.935 C  
ENDROOT
BRANCH   2   3
HETATM    3  C   UNL     1      -9.743  10.597  63.996  1.00  0.00    -0.315 C  
HETATM    4  O   UNL     1      -9.723  12.053  64.233  1.00  0.00    -0.186 OA 
HETATM    5  C   UNL     1      -9.996  12.622  65.428  1.00  0.00    -0.214 C  
HETATM    6  C   UNL     1      -9.853  14.156  65.412  1.00  0.00    -0.233 C  
HETATM    7  O   UNL     1     -10.375  11.993  66.400  1.00  0.00    -0.210 OA 
HETATM    8  C   UNL     1      -9.219  14.645  64.102  1.00  0.00     5.578 C  
HETATM    9  C   UNL     1      -9.179  14.840  66.698  1.00  0.00    -0.275 C  
HETATM   10  C   UNL     1      -5.243   8.459  67.033  1.00  0.00    -0.036 C  
HETATM   11  C   UNL     1      -9.376  14.020  68.053  1.00  0.00    -0.205 C  
HETATM   12  C   UNL     1      -6.058  11.854  65.587  1.00  0.00     1.905 C  
HETATM   13  C   UNL     1      -8.487  14.464  69.334  1.00  0.00     0.275 C  
HETATM   14  C   UNL     1     -10.910  14.036  68.250  1.00  0.00    -0.268 C  
HETATM   15  C   UNL     1      -6.149  10.328  65.700  1.00  0.00    -0.108 C  
HETATM   16  C   UNL     1      -7.592   9.778  65.360  1.00  0.00    -0.121 C  
HETATM   17  C   UNL     1      -7.016  13.861  69.781  1.00  0.00     0.139 C  
HETATM   18  C   UNL     1      -6.215  12.956  68.797  1.00  0.00    -0.076 C  
HETATM   19  C   UNL     1      -8.251  10.091  63.966  1.00  0.00    -0.156 C  
HETATM   20  C   UNL     1      -6.811  13.356  71.215  1.00  0.00     2.560 C  
HETATM   21  H   UNL     1      -6.588  10.758  63.210  1.00  0.00     0.000 HD 
HETATM   22  O   UNL     1      -6.196  15.096  69.849  1.00  0.00    -0.135 OA 
HETATM   23  C   UNL     1      -6.143  11.411  69.029  1.00  0.00    -0.054 C  
HETATM   24  H   UNL     1      -9.349   9.758  66.221  1.00  0.00     0.000 HD 
HETATM   25  N   UNL     1      -5.779   9.818  67.048  1.00  0.00    -0.050 NA 
HETATM   26  C   UNL     1      -7.487  10.704  69.141  1.00  0.00    -0.123 C  
HETATM   27  H   UNL     1      -5.350  14.749  70.106  1.00  0.00     0.000 HD 
HETATM   28  C   UNL     1      -8.151   8.827  63.089  1.00  0.00    -0.176 C  
HETATM   29  C   UNL     1      -5.157  10.668  68.066  1.00  0.00    -0.037 C  
HETATM   30  O   UNL     1      -7.487  11.064  63.227  1.00  0.00     0.256 OA 
HETATM   31  O   UNL     1      -8.482  10.088  66.425  1.00  0.00    -0.127 OA 
BRANCH   9  32
HETATM   32  O   UNL     1      -9.844  16.141  66.736  1.00  0.00    -0.231 OA 
BRANCH  32  33
HETATM   33  C   UNL     1      -9.207  17.275  66.155  1.00  0.00    -0.162 C  
HETATM   34  O   UNL     1      -8.544  19.828  69.479  1.00  0.00     0.041 OA 
HETATM   35  C   UNL     1      -8.634  19.289  68.160  1.00  0.00    -0.327 C  
HETATM   36  H   UNL     1      -7.646  19.943  69.768  1.00  0.00     0.000 HD 
HETATM   37  C   UNL     1     -10.100  19.101  67.689  1.00  0.00    -0.377 C  
HETATM   38  O   UNL     1      -7.890  17.473  66.686  1.00  0.00    -0.213 OA 
HETATM   39  C   UNL     1      -6.382  18.162  68.381  1.00  0.00    -0.197 C  
HETATM   40  C   UNL     1      -7.854  17.963  68.022  1.00  0.00    -0.251 C  
HETATM   41  C   UNL     1     -10.023  18.565  66.244  1.00  0.00    -0.384 C  
HETATM   42  C   UNL     1     -10.887  20.418  67.654  1.00  0.00     0.251 C  
BRANCH  37  43
HETATM   43  O   UNL     1     -10.814  18.108  68.447  1.00  0.00    -0.178 OA 
HETATM   44  C   UNL     1     -11.132  18.382  69.798  1.00  0.00     2.525 C  
ENDBRANCH  37  43
ENDBRANCH  32  33
ENDBRANCH   9  32
BRANCH  13  45
HETATM   45  O   UNL     1      -9.183  15.053  70.468  1.00  0.00     0.630 OA 
BRANCH  45  46
HETATM   46  C   UNL     1     -10.292  14.378  71.082  1.00  0.00     2.195 C  
HETATM   47  C   UNL     1     -11.657  11.066  70.409  1.00  0.00    -0.389 C  
HETATM   48  C   UNL     1     -12.842  14.562  71.668  1.00  0.00    -0.338 C  
HETATM   49  C   UNL     1     -11.523  15.261  71.277  1.00  0.00    -0.380 C  
HETATM   50  C   UNL     1     -12.921  13.193  70.961  1.00  0.00    -0.212 C  
HETATM   51  H   UNL     1     -11.952  16.821  72.351  1.00  0.00     0.000 HD 
HETATM   52  O   UNL     1     -11.187  16.272  72.229  1.00  0.00     0.022 OA 
HETATM   53  O   UNL     1     -10.608  13.204  70.337  1.00  0.00     1.487 OA 
HETATM   54  C   UNL     1     -11.592  12.441  71.042  1.00  0.00     1.277 C  
BRANCH  48  55
HETATM   55  N   UNL     1     -14.026  15.421  71.318  1.00  0.00    -0.519 NA 
HETATM   56  C   UNL     1     -14.028  16.710  72.007  1.00  0.00     3.320 C  
HETATM   57  C   UNL     1     -14.272  15.614  69.894  1.00  0.00     2.901 C  
ENDBRANCH  48  55
ENDBRANCH  45  46
ENDBRANCH  13  45
ENDBRANCH   2   3
TORSDOF 7
ENDMDL
MODEL       83
REMARK 921   NORMALIZED FREE ENERGY PREDICTED BY IDOCK:   20.47 KCAL/MOL
REMARK 922        TOTAL FREE ENERGY PREDICTED BY IDOCK:   26.27 KCAL/MOL
REMARK 923 INTER-LIGAND FREE ENERGY PREDICTED BY IDOCK:   21.66 KCAL/MOL
REMARK 924 INTRA-LIGAND FREE ENERGY PREDICTED BY IDOCK:    4.61 KCAL/MOL
REMARK 927      BINDING AFFINITY PREDICTED BY RF-SCORE:    0.00 PKD
ROOT
HETATM    1  C   UNL     1     -10.187   7.951  62.350  1.00  0.00     5.655 C  
HETATM    2  C   UNL     1      -9.489   8.023  63.701  1.00  0.00     2.664 C  
ENDROOT
BRANCH   2   3
HETATM    3  C   UNL     1      -8.147   8.801  63.681  1.00  0.00    -0.169 C  
HETATM    4  O   UNL     1      -8.110  10.147  64.283  1.00  0.00    -0.153 OA 
HETATM    5  C   UNL     1      -8.856  10.513  65.348  1.00  0.00    -0.187 C  
HETATM    6  C   UNL     1      -8.586  11.960  65.804  1.00  0.00     0.301 C  
HETATM    7  O   UNL     1      -9.698   9.796  65.857  1.00  0.00    -0.225 OA 
HETATM    8  C   UNL     1      -7.374  12.560  65.076  1.00  0.00     5.557 C  
HETATM    9  C   UNL     1      -8.530  12.229  67.385  1.00  0.00    -0.176 C  
HETATM   10  C   UNL     1      -5.789   5.248  67.665  1.00  0.00    -0.018 C  
HETATM   11  C   UNL     1      -9.407  11.216  68.252  1.00  0.00    -0.176 C  
HETATM   12  C   UNL     1      -5.530   8.955  66.971  1.00  0.00    -0.041 C  
HETATM   13  C   UNL     1      -9.181  11.212  69.858  1.00  0.00     1.236 C  
HETATM   14  C   UNL     1     -10.848  11.500  67.768  1.00  0.00    -0.270 C  
HETATM   15  C   UNL     1      -5.799   7.486  66.623  1.00  0.00    -0.039 C  
HETATM   16  C   UNL     1      -6.961   7.314  65.564  1.00  0.00    -0.060 C  
HETATM   17  C   UNL     1      -8.147  10.250  70.714  1.00  0.00     1.335 C  
HETATM   18  C   UNL     1      -7.064   9.414  69.968  1.00  0.00    -0.083 C  
HETATM   19  C   UNL     1      -6.865   8.021  64.162  1.00  0.00    -0.066 C  
HETATM   20  C   UNL     1      -8.679   9.443  71.905  1.00  0.00     0.839 C  
HETATM   21  H   UNL     1      -4.988   8.475  64.400  1.00  0.00     0.000 HD 
HETATM   22  O   UNL     1      -7.347  11.257  71.454  1.00  0.00     2.671 OA 
HETATM   23  C   UNL     1      -7.247   7.870  69.787  1.00  0.00    -0.066 C  
HETATM   24  H   UNL     1      -8.911   7.479  65.547  1.00  0.00     0.000 HD 
HETATM   25  N   UNL     1      -6.146   6.657  67.809  1.00  0.00    -0.026 NA 
HETATM   26  C   UNL     1      -8.545   7.440  69.119  1.00  0.00    -0.136 C  
HETATM   27  H   UNL     1      -6.752  10.703  71.946  1.00  0.00     0.000 HD 
HETATM   28  C   UNL     1      -6.482   6.960  63.111  1.00  0.00    -0.043 C  
HETATM   29  C   UNL     1      -5.997   7.148  69.181  1.00  0.00    -0.022 C  
HETATM   30  O   UNL     1      -5.761   8.946  64.110  1.00  0.00    -0.067 OA 
HETATM   31  O   UNL     1      -8.213   7.582  66.184  1.00  0.00    -0.112 OA 
BRANCH   9  32
HETATM   32  O   UNL     1      -9.017  13.604  67.479  1.00  0.00    -0.188 OA 
BRANCH  32  33
HETATM   33  C   UNL     1     -10.418  13.859  67.443  1.00  0.00    -0.263 C  
HETATM   34  O   UNL     1     -10.963  15.788  63.704  1.00  0.00    -0.024 OA 
HETATM   35  C   UNL     1     -11.167  15.236  65.005  1.00  0.00    -0.403 C  
HETATM   36  H   UNL     1     -11.416  15.301  63.025  1.00  0.00     0.000 HD 
HETATM   37  C   UNL     1     -10.426  16.031  66.114  1.00  0.00    -0.326 C  
HETATM   38  O   UNL     1     -11.052  13.185  66.348  1.00  0.00    -0.282 OA 
HETATM   39  C   UNL     1     -11.582  12.932  64.051  1.00  0.00    -0.486 C  
HETATM   40  C   UNL     1     -10.777  13.743  65.067  1.00  0.00    -0.382 C  
HETATM   41  C   UNL     1     -10.785  15.343  67.448  1.00  0.00    -0.296 C  
HETATM   42  C   UNL     1     -10.885  17.491  66.206  1.00  0.00     0.062 C  
BRANCH  37  43
HETATM   43  O   UNL     1      -8.993  15.959  65.999  1.00  0.00    -0.333 OA 
HETATM   44  C   UNL     1      -8.204  16.851  66.763  1.00  0.00    -0.240 C  
ENDBRANCH  37  43
ENDBRANCH  32  33
ENDBRANCH   9  32
BRANCH  13  45
HETATM   45  O   UNL     1     -10.269  11.695  70.694  1.00  0.00     2.568 OA 
BRANCH  45  46
HETATM   46  C   UNL     1     -10.914  12.946  70.411  1.00  0.00     1.471 C  
HETATM   47  C   UNL     1      -9.470  16.268  70.008  1.00  0.00     0.642 C  
HETATM   48  C   UNL     1     -12.791  14.603  71.194  1.00  0.00    -0.343 C  
HETATM   49  C   UNL     1     -12.187  13.184  71.223  1.00  0.00     0.026 C  
HETATM   50  C   UNL     1     -11.651  15.640  71.137  1.00  0.00    -0.462 C  
HETATM   51  H   UNL     1     -13.944  12.363  71.316  1.00  0.00     0.000 HD 
HETATM   52  O   UNL     1     -13.153  12.215  70.812  1.00  0.00     0.015 OA 
HETATM   53  O   UNL     1      -9.984  14.013  70.580  1.00  0.00     2.016 OA 
HETATM   54  C   UNL     1     -10.574  15.237  70.130  1.00  0.00    -0.257 C  
BRANCH  48  55
HETATM   55  N   UNL     1     -13.674  14.832  72.390  1.00  0.00    -0.436 NA 
HETATM   56  C   UNL     1     -13.452  13.868  73.466  1.00  0.00     1.677 C  
HETATM   57  C   UNL     1     -13.677  16.189  72.926  1.00  0.00    -0.222 C  
ENDBRANCH  48  55
ENDBRANCH  45  46
ENDBRANCH  13  45
ENDBRANCH   2   3
TORSDOF 7
ENDMDL
MODEL       84
REMARK 921   NORMALIZED FREE ENERGY PREDICTED BY IDOCK:   20.52 KCAL/MOL
REMARK 922        TOTAL FREE ENERGY PREDICTED BY IDOCK:   26.34 KCAL/MOL
REMARK 923 INTER-LIGAND FREE ENERGY PREDICTED BY IDOCK:   16.87 KCAL/MOL
REMARK 924 INTRA-LIGAND FREE ENERGY PREDICTED BY IDOCK:    9.47 KCAL/MOL
REMARK 927      BINDING AFFINITY PREDICTED BY RF-SCORE:    0.00 PKD
ROOT
HETATM    1  C   UNL     1      -7.864  20.347  67.193  1.00  0.00    -0.378 C  
HETATM    2  C   UNL     1      -8.094  18.844  67.127  1.00  0.00    -0.277 C  
ENDROOT
BRANCH   2   3
HETATM    3  C   UNL     1      -9.504  18.438  66.623  1.00  0.00    -0.313 C  
HETATM    4  O   UNL     1      -9.636  17.197  65.839  1.00  0.00    -0.497 OA 
HETATM    5  C   UNL     1      -8.868  16.102  66.031  1.00  0.00    -0.278 C  
HETATM    6  C   UNL     1      -9.251  14.928  65.110  1.00  0.00     1.070 C  
HETATM    7  O   UNL     1      -7.931  16.068  66.808  1.00  0.00    -0.225 OA 
HETATM    8  C   UNL     1     -10.555  15.212  64.352  1.00  0.00     0.297 C  
HETATM    9  C   UNL     1      -9.239  13.458  65.756  1.00  0.00     0.318 C  
HETATM   10  C   UNL     1     -11.265  17.069  72.015  1.00  0.00     1.082 C  
HETATM   11  C   UNL     1      -8.217  13.288  66.970  1.00  0.00    -0.058 C  
HETATM   12  C   UNL     1     -11.924  15.615  68.590  1.00  0.00    -0.201 C  
HETATM   13  C   UNL     1      -8.347  11.948  67.876  1.00  0.00    -0.152 C  
HETATM   14  C   UNL     1      -6.842  13.529  66.306  1.00  0.00     3.567 C  
HETATM   15  C   UNL     1     -11.535  16.711  69.588  1.00  0.00     0.200 C  
HETATM   16  C   UNL     1     -10.426  17.686  69.020  1.00  0.00    -0.200 C  
HETATM   17  C   UNL     1      -9.230  11.765  69.260  1.00  0.00     0.596 C  
HETATM   18  C   UNL     1     -10.268  12.852  69.670  1.00  0.00     1.039 C  
HETATM   19  C   UNL     1     -10.674  18.471  67.679  1.00  0.00    -0.364 C  
HETATM   20  C   UNL     1      -8.552  11.210  70.520  1.00  0.00     3.402 C  
HETATM   21  H   UNL     1     -12.568  18.029  67.645  1.00  0.00     0.000 HD 
HETATM   22  O   UNL     1     -10.079  10.597  68.919  1.00  0.00    -0.184 OA 
HETATM   23  C   UNL     1      -9.947  13.850  70.831  1.00  0.00     4.051 C  
HETATM   24  H   UNL     1      -8.507  17.601  68.652  1.00  0.00     0.000 HD 
HETATM   25  N   UNL     1     -11.039  16.174  70.884  1.00  0.00    -0.276 NA 
HETATM   26  C   UNL     1      -8.655  14.639  70.676  1.00  0.00     2.199 C  
HETATM   27  H   UNL     1     -10.587  10.492  69.715  1.00  0.00     0.000 HD 
HETATM   28  C   UNL     1     -11.013  19.933  68.029  1.00  0.00     0.099 C  
HETATM   29  C   UNL     1     -11.155  14.758  71.242  1.00  0.00     0.124 C  
HETATM   30  O   UNL     1     -11.863  18.010  67.009  1.00  0.00     1.620 OA 
HETATM   31  O   UNL     1      -9.172  17.015  68.994  1.00  0.00    -0.243 OA 
BRANCH   9  32
HETATM   32  O   UNL     1      -8.883  12.623  64.610  1.00  0.00     1.217 OA 
BRANCH  32  33
HETATM   33  C   UNL     1      -9.690  11.496  64.283  1.00  0.00    -0.202 C  
HETATM   34  O   UNL     1     -13.615  12.797  65.235  1.00  0.00    -0.052 OA 
HETATM   35  C   UNL     1     -12.484  12.010  64.857  1.00  0.00     0.073 C  
HETATM   36  H   UNL     1     -14.208  12.957  64.510  1.00  0.00     0.000 HD 
HETATM   37  C   UNL     1     -11.515  11.749  66.041  1.00  0.00    -0.215 C  
HETATM   38  O   UNL     1     -10.638  11.803  63.253  1.00  0.00    -0.390 OA 
HETATM   39  C   UNL     1     -12.641  12.793  62.458  1.00  0.00     1.732 C  
HETATM   40  C   UNL     1     -11.720  12.631  63.668  1.00  0.00    -0.522 C  
HETATM   41  C   UNL     1     -10.387  10.855  65.484  1.00  0.00    -0.316 C  
HETATM   42  C   UNL     1     -12.179  10.991  67.197  1.00  0.00     1.781 C  
BRANCH  37  43
HETATM   43  O   UNL     1     -10.877  12.946  66.523  1.00  0.00    -0.266 OA 
HETATM   44  C   UNL     1     -11.653  13.890  67.236  1.00  0.00    -0.365 C  
ENDBRANCH  37  43
ENDBRANCH  32  33
ENDBRANCH   9  32
BRANCH  13  45
HETATM   45  O   UNL     1      -7.263  10.979  67.808  1.00  0.00    -0.087 OA 
BRANCH  45  46
HETATM   46  C   UNL     1      -7.446   9.718  67.148  1.00  0.00    -0.088 C  
HETATM   47  C   UNL     1      -7.658   8.965  63.587  1.00  0.00    -0.118 C  
HETATM   48  C   UNL     1      -8.979   7.595  66.991  1.00  0.00    -0.133 C  
HETATM   49  C   UNL     1      -8.519   8.836  67.784  1.00  0.00    -0.125 C  
HETATM   50  C   UNL     1      -8.979   7.925  65.484  1.00  0.00    -0.016 C  
HETATM   51  H   UNL     1      -8.729   7.915  69.481  1.00  0.00     0.000 HD 
HETATM   52  O   UNL     1      -8.061   8.463  69.085  1.00  0.00    -0.114 OA 
HETATM   53  O   UNL     1      -7.707   9.936  65.763  1.00  0.00    -0.104 OA 
HETATM   54  C   UNL     1      -7.715   8.681  65.075  1.00  0.00    -0.103 C  
BRANCH  48  55
HETATM   55  N   UNL     1     -10.339   7.143  67.447  1.00  0.00    -0.224 NA 
HETATM   56  C   UNL     1     -10.770   5.891  66.829  1.00  0.00    -0.299 C  
HETATM   57  C   UNL     1     -10.538   7.083  68.891  1.00  0.00    -0.215 C  
ENDBRANCH  48  55
ENDBRANCH  45  46
ENDBRANCH  13  45
ENDBRANCH   2   3
TORSDOF 7
ENDMDL
MODEL       85
REMARK 921   NORMALIZED FREE ENERGY PREDICTED BY IDOCK:   20.58 KCAL/MOL
REMARK 922        TOTAL FREE ENERGY PREDICTED BY IDOCK:   26.42 KCAL/MOL
REMARK 923 INTER-LIGAND FREE ENERGY PREDICTED BY IDOCK:   15.25 KCAL/MOL
REMARK 924 INTRA-LIGAND FREE ENERGY PREDICTED BY IDOCK:   11.17 KCAL/MOL
REMARK 927      BINDING AFFINITY PREDICTED BY RF-SCORE:    0.00 PKD
ROOT
HETATM    1  C   UNL     1      -5.305  18.071  70.893  1.00  0.00    -0.228 C  
HETATM    2  C   UNL     1      -6.299  16.957  70.598  1.00  0.00     0.991 C  
ENDROOT
BRANCH   2   3
HETATM    3  C   UNL     1      -6.332  16.512  69.113  1.00  0.00    -0.185 C  
HETATM    4  O   UNL     1      -6.059  15.097  68.800  1.00  0.00    -0.085 OA 
HETATM    5  C   UNL     1      -6.399  14.071  69.611  1.00  0.00    -0.130 C  
HETATM    6  C   UNL     1      -6.044  12.693  69.020  1.00  0.00    -0.085 C  
HETATM    7  O   UNL     1      -6.881  14.222  70.719  1.00  0.00     0.160 OA 
HETATM    8  C   UNL     1      -5.592  12.810  67.557  1.00  0.00    -0.104 C  
HETATM    9  C   UNL     1      -7.112  11.512  69.226  1.00  0.00    -0.077 C  
HETATM   10  C   UNL     1     -12.134  17.077  68.853  1.00  0.00     1.817 C  
HETATM   11  C   UNL     1      -8.014  11.669  70.534  1.00  0.00     3.955 C  
HETATM   12  C   UNL     1      -9.662  14.649  67.343  1.00  0.00    -0.218 C  
HETATM   13  C   UNL     1      -9.311  10.704  70.670  1.00  0.00     2.125 C  
HETATM   14  C   UNL     1      -6.981  11.587  71.682  1.00  0.00     5.086 C  
HETATM   15  C   UNL     1     -10.112  15.977  67.962  1.00  0.00    -0.240 C  
HETATM   16  C   UNL     1      -8.993  16.637  68.865  1.00  0.00    -0.239 C  
HETATM   17  C   UNL     1     -10.854  11.038  70.185  1.00  0.00     0.118 C  
HETATM   18  C   UNL     1     -11.133  12.270  69.272  1.00  0.00    -0.220 C  
HETATM   19  C   UNL     1      -7.578  16.965  68.261  1.00  0.00    -0.202 C  
HETATM   20  C   UNL     1     -12.010  10.872  71.179  1.00  0.00    -0.317 C  
HETATM   21  H   UNL     1      -8.173  16.671  66.432  1.00  0.00     0.000 HD 
HETATM   22  O   UNL     1     -11.143   9.886  69.296  1.00  0.00    -0.280 OA 
HETATM   23  C   UNL     1     -11.780  13.563  69.870  1.00  0.00    -0.341 C  
HETATM   24  H   UNL     1      -8.200  16.304  70.622  1.00  0.00     0.000 HD 
HETATM   25  N   UNL     1     -11.341  15.851  68.790  1.00  0.00    -0.357 NA 
HETATM   26  C   UNL     1     -11.052  14.167  71.062  1.00  0.00     0.861 C  
HETATM   27  H   UNL     1     -12.030  10.079  69.017  1.00  0.00     0.000 HD 
HETATM   28  C   UNL     1      -7.503  18.482  68.000  1.00  0.00    -0.264 C  
HETATM   29  C   UNL     1     -12.162  14.638  68.797  1.00  0.00    -0.119 C  
HETATM   30  O   UNL     1      -7.421  16.398  66.945  1.00  0.00    -0.186 OA 
HETATM   31  O   UNL     1      -8.872  15.907  70.080  1.00  0.00     0.186 OA 
BRANCH   9  32
HETATM   32  O   UNL     1      -6.254  10.330  69.283  1.00  0.00    -0.043 OA 
BRANCH  32  33
HETATM   33  C   UNL     1      -5.377  10.043  68.198  1.00  0.00    -0.035 C  
HETATM   34  O   UNL     1      -8.025   9.475  64.931  1.00  0.00    -0.111 OA 
HETATM   35  C   UNL     1      -6.864   9.544  65.760  1.00  0.00    -0.087 C  
HETATM   36  H   UNL     1      -8.032  10.143  64.255  1.00  0.00     0.000 HD 
HETATM   37  C   UNL     1      -6.852   8.453  66.864  1.00  0.00    -0.069 C  
HETATM   38  O   UNL     1      -5.487  11.020  67.155  1.00  0.00    -0.043 OA 
HETATM   39  C   UNL     1      -6.587  12.014  65.304  1.00  0.00     3.370 C  
HETATM   40  C   UNL     1      -6.685  10.942  66.389  1.00  0.00    -0.134 C  
HETATM   41  C   UNL     1      -5.525   8.631  67.631  1.00  0.00    -0.035 C  
HETATM   42  C   UNL     1      -6.871   7.029  66.293  1.00  0.00    -0.061 C  
BRANCH  37  43
HETATM   43  O   UNL     1      -7.901   8.620  67.835  1.00  0.00    -0.101 OA 
HETATM   44  C   UNL     1      -9.230   8.313  67.459  1.00  0.00    -0.137 C  
ENDBRANCH  37  43
ENDBRANCH  32  33
ENDBRANCH   9  32
BRANCH  13  45
HETATM   45  O   UNL     1      -9.292   9.691  71.714  1.00  0.00     0.143 OA 
BRANCH  45  46
HETATM   46  C   UNL     1      -9.826   8.380  71.475  1.00  0.00    -0.208 C  
HETATM   47  C   UNL     1      -9.438   6.204  68.577  1.00  0.00    -0.121 C  
HETATM   48  C   UNL     1     -12.027   6.955  71.395  1.00  0.00    -0.349 C  
HETATM   49  C   UNL     1     -11.295   8.229  71.866  1.00  0.00    -0.308 C  
HETATM   50  C   UNL     1     -11.507   6.557  69.998  1.00  0.00    -0.476 C  
HETATM   51  H   UNL     1     -12.298   8.273  73.528  1.00  0.00     0.000 HD 
HETATM   52  O   UNL     1     -11.385   8.367  73.285  1.00  0.00     0.079 OA 
HETATM   53  O   UNL     1      -9.611   8.017  70.113  1.00  0.00    -0.173 OA 
HETATM   54  C   UNL     1      -9.983   6.649  69.919  1.00  0.00    -0.171 C  
BRANCH  48  55
HETATM   55  N   UNL     1     -13.516   7.170  71.378  1.00  0.00    -0.353 NA 
HETATM   56  C   UNL     1     -14.269   5.968  71.027  1.00  0.00     3.038 C  
HETATM   57  C   UNL     1     -14.083   7.785  72.573  1.00  0.00     0.220 C  
ENDBRANCH  48  55
ENDBRANCH  45  46
ENDBRANCH  13  45
ENDBRANCH   2   3
TORSDOF 7
ENDMDL
MODEL       86
REMARK 921   NORMALIZED FREE ENERGY PREDICTED BY IDOCK:   21.00 KCAL/MOL
REMARK 922        TOTAL FREE ENERGY PREDICTED BY IDOCK:   27.01 KCAL/MOL
REMARK 923 INTER-LIGAND FREE ENERGY PREDICTED BY IDOCK:   22.53 KCAL/MOL
REMARK 924 INTRA-LIGAND FREE ENERGY PREDICTED BY IDOCK:    4.48 KCAL/MOL
REMARK 927      BINDING AFFINITY PREDICTED BY RF-SCORE:    0.00 PKD
ROOT
HETATM    1  C   UNL     1     -12.188  11.590  62.478  1.00  0.00     1.465 C  
HETATM    2  C   UNL     1     -11.795  10.835  63.739  1.00  0.00     1.908 C  
ENDROOT
BRANCH   2   3
HETATM    3  C   UNL     1     -12.402  11.418  65.043  1.00  0.00     1.299 C  
HETATM    4  O   UNL     1     -12.389  10.579  66.256  1.00  0.00     2.799 OA 
HETATM    5  C   UNL     1     -11.414   9.689  66.542  1.00  0.00     1.918 C  
HETATM    6  C   UNL     1     -11.621   8.984  67.897  1.00  0.00     1.546 C  
HETATM    7  O   UNL     1     -10.500   9.427  65.782  1.00  0.00    -0.007 OA 
HETATM    8  C   UNL     1     -12.767   9.624  68.693  1.00  0.00     4.234 C  
HETATM    9  C   UNL     1     -10.319   8.746  68.804  1.00  0.00    -0.213 C  
HETATM   10  C   UNL     1      -7.966  15.155  65.685  1.00  0.00     3.375 C  
HETATM   11  C   UNL     1      -8.961   8.611  67.974  1.00  0.00    -0.141 C  
HETATM   12  C   UNL     1     -10.073  13.142  68.092  1.00  0.00    -0.237 C  
HETATM   13  C   UNL     1      -7.568   8.674  68.802  1.00  0.00    -0.096 C  
HETATM   14  C   UNL     1      -9.194   7.338  67.129  1.00  0.00    -0.156 C  
HETATM   15  C   UNL     1      -9.761  13.855  66.771  1.00  0.00    -0.279 C  
HETATM   16  C   UNL     1     -10.395  13.123  65.521  1.00  0.00    -0.290 C  
HETATM   17  C   UNL     1      -6.651  10.013  69.107  1.00  0.00    -0.053 C  
HETATM   18  C   UNL     1      -7.232  11.433  68.830  1.00  0.00    -0.107 C  
HETATM   19  C   UNL     1     -11.947  12.870  65.453  1.00  0.00    -0.426 C  
HETATM   20  C   UNL     1      -5.157  10.000  68.761  1.00  0.00    -0.036 C  
HETATM   21  H   UNL     1     -12.313  14.052  66.954  1.00  0.00     0.000 HD 
HETATM   22  O   UNL     1      -6.548   9.973  70.587  1.00  0.00    -0.158 OA 
HETATM   23  C   UNL     1      -6.759  12.246  67.579  1.00  0.00    -0.138 C  
HETATM   24  H   UNL     1     -10.054  11.488  64.502  1.00  0.00     0.000 HD 
HETATM   25  N   UNL     1      -8.303  14.001  66.515  1.00  0.00     0.266 NA 
HETATM   26  C   UNL     1      -6.913  11.536  66.241  1.00  0.00     0.155 C  
HETATM   27  H   UNL     1      -6.022  10.744  70.762  1.00  0.00     0.000 HD 
HETATM   28  C   UNL     1     -12.563  13.898  64.484  1.00  0.00    -0.246 C  
HETATM   29  C   UNL     1      -7.294  13.717  67.538  1.00  0.00    -0.162 C  
HETATM   30  O   UNL     1     -12.587  13.177  66.707  1.00  0.00    -0.231 OA 
HETATM   31  O   UNL     1      -9.672  11.927  65.253  1.00  0.00    -0.240 OA 
BRANCH   9  32
HETATM   32  O   UNL     1     -10.659   7.515  69.513  1.00  0.00    -0.233 OA 
BRANCH  32  33
HETATM   33  C   UNL     1      -9.766   6.996  70.493  1.00  0.00    -0.176 C  
HETATM   34  O   UNL     1     -11.522   8.224  74.156  1.00  0.00     1.899 OA 
HETATM   35  C   UNL     1     -10.636   7.693  73.169  1.00  0.00    -0.379 C  
HETATM   36  H   UNL     1     -11.911   7.549  74.700  1.00  0.00     0.000 HD 
HETATM   37  C   UNL     1     -10.000   8.795  72.281  1.00  0.00    -0.232 C  
HETATM   38  O   UNL     1     -10.415   6.054  71.356  1.00  0.00    -0.215 OA 
HETATM   39  C   UNL     1     -11.862   5.482  73.146  1.00  0.00     0.072 C  
HETATM   40  C   UNL     1     -11.325   6.628  72.288  1.00  0.00    -0.275 C  
HETATM   41  C   UNL     1      -9.045   8.068  71.312  1.00  0.00    -0.168 C  
HETATM   42  C   UNL     1      -9.168   9.801  73.086  1.00  0.00     5.652 C  
BRANCH  37  43
HETATM   43  O   UNL     1     -10.961   9.480  71.457  1.00  0.00    -0.364 OA 
HETATM   44  C   UNL     1     -11.645  10.596  71.996  1.00  0.00     1.839 C  
ENDBRANCH  37  43
ENDBRANCH  32  33
ENDBRANCH   9  32
BRANCH  13  45
HETATM   45  O   UNL     1      -6.769   7.459  68.872  1.00  0.00    -0.046 OA 
BRANCH  45  46
HETATM   46  C   UNL     1      -7.371   6.171  68.671  1.00  0.00    -0.086 C  
HETATM   47  C   UNL     1      -7.686   3.368  70.980  1.00  0.00    -0.047 C  
HETATM   48  C   UNL     1      -7.379   4.035  67.150  1.00  0.00    -0.068 C  
HETATM   49  C   UNL     1      -7.012   5.521  67.336  1.00  0.00    -0.069 C  
HETATM   50  C   UNL     1      -7.204   3.296  68.492  1.00  0.00    -0.050 C  
HETATM   51  H   UNL     1      -7.362   5.913  65.467  1.00  0.00     0.000 HD 
HETATM   52  O   UNL     1      -7.585   6.317  66.297  1.00  0.00    -0.087 OA 
HETATM   53  O   UNL     1      -7.048   5.318  69.767  1.00  0.00    -0.056 OA 
HETATM   54  C   UNL     1      -7.788   4.097  69.656  1.00  0.00    -0.052 C  
BRANCH  48  55
HETATM   55  N   UNL     1      -6.537   3.408  66.072  1.00  0.00    -0.039 NA 
HETATM   56  C   UNL     1      -6.318   4.286  64.925  1.00  0.00    -0.034 C  
HETATM   57  C   UNL     1      -5.271   2.830  66.510  1.00  0.00    -0.008 C  
ENDBRANCH  48  55
ENDBRANCH  45  46
ENDBRANCH  13  45
ENDBRANCH   2   3
TORSDOF 7
ENDMDL
MODEL       87
REMARK 921   NORMALIZED FREE ENERGY PREDICTED BY IDOCK:   23.28 KCAL/MOL
REMARK 922        TOTAL FREE ENERGY PREDICTED BY IDOCK:   30.23 KCAL/MOL
REMARK 923 INTER-LIGAND FREE ENERGY PREDICTED BY IDOCK:    7.60 KCAL/MOL
REMARK 924 INTRA-LIGAND FREE ENERGY PREDICTED BY IDOCK:   22.63 KCAL/MOL
REMARK 927      BINDING AFFINITY PREDICTED BY RF-SCORE:    0.00 PKD
ROOT
HETATM    1  C   UNL     1     -11.904  16.125  70.141  1.00  0.00    -0.137 C  
HETATM    2  C   UNL     1     -11.317  17.494  69.825  1.00  0.00     1.680 C  
ENDROOT
BRANCH   2   3
HETATM    3  C   UNL     1      -9.823  17.464  69.412  1.00  0.00     0.042 C  
HETATM    4  O   UNL     1      -9.068  16.212  69.606  1.00  0.00    -0.124 OA 
HETATM    5  C   UNL     1      -9.616  14.981  69.498  1.00  0.00    -0.085 C  
HETATM    6  C   UNL     1      -8.593  13.846  69.700  1.00  0.00     1.095 C  
HETATM    7  O   UNL     1     -10.805  14.789  69.320  1.00  0.00    -0.250 OA 
HETATM    8  C   UNL     1      -7.158  14.389  69.755  1.00  0.00    -0.007 C  
HETATM    9  C   UNL     1      -8.716  12.571  68.733  1.00  0.00     0.163 C  
HETATM   10  C   UNL     1     -11.173  17.604  63.737  1.00  0.00     5.850 C  
HETATM   11  C   UNL     1     -10.196  12.297  68.200  1.00  0.00    -0.212 C  
HETATM   12  C   UNL     1      -8.480  15.881  65.753  1.00  0.00     0.553 C  
HETATM   13  C   UNL     1     -10.371  11.229  66.992  1.00  0.00    -0.227 C  
HETATM   14  C   UNL     1     -10.982  11.993  69.496  1.00  0.00    -0.056 C  
HETATM   15  C   UNL     1      -9.539  16.953  65.468  1.00  0.00     0.300 C  
HETATM   16  C   UNL     1     -10.285  17.434  66.776  1.00  0.00    -0.318 C  
HETATM   17  C   UNL     1     -10.396  11.554  65.373  1.00  0.00    -0.273 C  
HETATM   18  C   UNL     1      -9.964  12.959  64.855  1.00  0.00    -0.151 C  
HETATM   19  C   UNL     1      -9.467  18.026  67.983  1.00  0.00    -0.284 C  
HETATM   20  C   UNL     1     -11.557  11.033  64.516  1.00  0.00     0.585 C  
HETATM   21  H   UNL     1      -7.836  18.188  66.936  1.00  0.00     0.000 HD 
HETATM   22  O   UNL     1      -9.319  10.664  64.874  1.00  0.00    -0.197 OA 
HETATM   23  C   UNL     1     -11.042  13.987  64.374  1.00  0.00    -0.300 C  
HETATM   24  H   UNL     1     -11.625  16.706  68.002  1.00  0.00     0.000 HD 
HETATM   25  N   UNL     1     -10.574  16.509  64.496  1.00  0.00    -0.379 NA 
HETATM   26  C   UNL     1     -12.137  14.305  65.381  1.00  0.00    -0.396 C  
HETATM   27  H   UNL     1      -9.334  10.852  63.942  1.00  0.00     0.000 HD 
HETATM   28  C   UNL     1      -9.633  19.558  67.974  1.00  0.00    -0.450 C  
HETATM   29  C   UNL     1     -10.443  15.276  63.717  1.00  0.00     3.240 C  
HETATM   30  O   UNL     1      -8.049  17.849  67.797  1.00  0.00    -0.224 OA 
HETATM   31  O   UNL     1     -11.177  16.416  67.215  1.00  0.00    -0.097 OA 
BRANCH   9  32
HETATM   32  O   UNL     1      -8.225  11.491  69.587  1.00  0.00     0.502 OA 
BRANCH  32  33
HETATM   33  C   UNL     1      -6.823  11.290  69.731  1.00  0.00    -0.058 C  
HETATM   34  O   UNL     1      -5.335  11.955  65.813  1.00  0.00    -0.376 OA 
HETATM   35  C   UNL     1      -5.455  11.622  67.197  1.00  0.00    -0.108 C  
HETATM   36  H   UNL     1      -4.825  12.744  65.669  1.00  0.00     0.000 HD 
HETATM   37  C   UNL     1      -6.288  10.334  67.432  1.00  0.00    -0.059 C  
HETATM   38  O   UNL     1      -6.081  12.474  69.411  1.00  0.00    -0.091 OA 
HETATM   39  C   UNL     1      -5.158  14.036  67.885  1.00  0.00    -0.054 C  
HETATM   40  C   UNL     1      -6.033  12.791  68.024  1.00  0.00    -0.101 C  
HETATM   41  C   UNL     1      -6.280  10.089  68.956  1.00  0.00    -0.044 C  
HETATM   42  C   UNL     1      -5.675   9.099  66.760  1.00  0.00    -0.047 C  
BRANCH  37  43
HETATM   43  O   UNL     1      -7.669  10.479  67.057  1.00  0.00    -0.105 OA 
HETATM   44  C   UNL     1      -8.208  11.781  66.934  1.00  0.00    -0.166 C  
ENDBRANCH  37  43
ENDBRANCH  32  33
ENDBRANCH   9  32
BRANCH  13  45
HETATM   45  O   UNL     1     -11.050   9.977  67.290  1.00  0.00    -0.229 OA 
BRANCH  45  46
HETATM   46  C   UNL     1     -10.327   8.857  67.821  1.00  0.00    -0.242 C  
HETATM   47  C   UNL     1      -8.720   8.454  71.069  1.00  0.00    -0.185 C  
HETATM   48  C   UNL     1      -8.330   7.210  67.393  1.00  0.00    -0.119 C  
HETATM   49  C   UNL     1      -9.343   8.231  66.834  1.00  0.00    -0.176 C  
HETATM   50  C   UNL     1      -7.902   7.643  68.811  1.00  0.00    -0.120 C  
HETATM   51  H   UNL     1      -9.490   7.267  65.154  1.00  0.00     0.000 HD 
HETATM   52  O   UNL     1     -10.102   7.657  65.768  1.00  0.00     0.535 OA 
HETATM   53  O   UNL     1      -9.676   9.238  69.031  1.00  0.00    -0.157 OA 
HETATM   54  C   UNL     1      -9.102   8.083  69.650  1.00  0.00    -0.152 C  
BRANCH  48  55
HETATM   55  N   UNL     1      -7.139   7.086  66.482  1.00  0.00    -0.075 NA 
HETATM   56  C   UNL     1      -6.069   6.261  67.039  1.00  0.00    -0.025 C  
HETATM   57  C   UNL     1      -7.427   6.674  65.113  1.00  0.00    -0.087 C  
ENDBRANCH  48  55
ENDBRANCH  45  46
ENDBRANCH  13  45
ENDBRANCH   2   3
TORSDOF 7
ENDMDL
MODEL       88
REMARK 921   NORMALIZED FREE ENERGY PREDICTED BY IDOCK:   23.50 KCAL/MOL
REMARK 922        TOTAL FREE ENERGY PREDICTED BY IDOCK:   30.54 KCAL/MOL
REMARK 923 INTER-LIGAND FREE ENERGY PREDICTED BY IDOCK:   20.38 KCAL/MOL
REMARK 924 INTRA-LIGAND FREE ENERGY PREDICTED BY IDOCK:   10.17 KCAL/MOL
REMARK 927      BINDING AFFINITY PREDICTED BY RF-SCORE:    0.00 PKD
ROOT
HETATM    1  C   UNL     1     -10.240  14.189  70.972  1.00  0.00     2.940 C  
HETATM    2  C   UNL     1      -9.494  13.290  69.998  1.00  0.00     2.920 C  
ENDROOT
BRANCH   2   3
HETATM    3  C   UNL     1      -8.191  12.674  70.573  1.00  0.00     5.739 C  
HETATM    4  O   UNL     1      -8.136  11.214  70.772  1.00  0.00     2.296 OA 
HETATM    5  C   UNL     1      -8.772  10.324  69.979  1.00  0.00     0.156 C  
HETATM    6  C   UNL     1      -8.504   8.861  70.380  1.00  0.00    -0.181 C  
HETATM    7  O   UNL     1      -9.526  10.646  69.078  1.00  0.00    -0.191 OA 
HETATM    8  C   UNL     1      -7.404   8.764  71.446  1.00  0.00    -0.117 C  
HETATM    9  C   UNL     1      -8.283   7.806  69.191  1.00  0.00    -0.129 C  
HETATM   10  C   UNL     1      -5.279  13.682  65.617  1.00  0.00     8.109 C  
HETATM   11  C   UNL     1      -9.022   8.192  67.829  1.00  0.00    -0.134 C  
HETATM   12  C   UNL     1      -5.232  10.895  68.169  1.00  0.00    -0.036 C  
HETATM   13  C   UNL     1      -8.619   7.362  66.496  1.00  0.00    -0.132 C  
HETATM   14  C   UNL     1     -10.517   8.163  68.224  1.00  0.00    -0.210 C  
HETATM   15  C   UNL     1      -5.485  12.320  67.665  1.00  0.00    -0.100 C  
HETATM   16  C   UNL     1      -6.750  12.989  68.340  1.00  0.00    -0.093 C  
HETATM   17  C   UNL     1      -7.462   7.761  65.386  1.00  0.00    -0.081 C  
HETATM   18  C   UNL     1      -6.440   8.894  65.703  1.00  0.00    -0.063 C  
HETATM   19  C   UNL     1      -6.836  13.123  69.905  1.00  0.00     0.343 C  
HETATM   20  C   UNL     1      -7.830   7.812  63.898  1.00  0.00    -0.126 C  
HETATM   21  H   UNL     1      -4.962  12.663  70.153  1.00  0.00     0.000 HD 
HETATM   22  O   UNL     1      -6.622   6.539  65.378  1.00  0.00    -0.041 OA 
HETATM   23  C   UNL     1      -6.586  10.298  65.029  1.00  0.00    -0.114 C  
HETATM   24  H   UNL     1      -8.694  12.803  68.219  1.00  0.00     0.000 HD 
HETATM   25  N   UNL     1      -5.669  12.397  66.191  1.00  0.00     0.955 NA 
HETATM   26  C   UNL     1      -7.934  10.979  65.221  1.00  0.00     0.200 C  
HETATM   27  H   UNL     1      -5.957   6.770  64.741  1.00  0.00     0.000 HD 
HETATM   28  C   UNL     1      -6.534  14.587  70.282  1.00  0.00    -0.144 C  
HETATM   29  C   UNL     1      -5.385  11.265  65.305  1.00  0.00     0.375 C  
HETATM   30  O   UNL     1      -5.779  12.392  70.556  1.00  0.00    -0.158 OA 
HETATM   31  O   UNL     1      -7.934  12.402  67.813  1.00  0.00    -0.132 OA 
BRANCH   9  32
HETATM   32  O   UNL     1      -8.806   6.572  69.775  1.00  0.00    -0.141 OA 
BRANCH  32  33
HETATM   33  C   UNL     1      -9.036   6.500  71.178  1.00  0.00    -0.152 C  
HETATM   34  O   UNL     1      -5.372   4.985  72.690  1.00  0.00    -0.008 OA 
HETATM   35  C   UNL     1      -6.719   5.443  72.563  1.00  0.00    -0.074 C  
HETATM   36  H   UNL     1      -4.829   5.581  73.191  1.00  0.00     0.000 HD 
HETATM   37  C   UNL     1      -7.607   4.469  71.744  1.00  0.00    -0.075 C  
HETATM   38  O   UNL     1      -8.133   7.339  71.908  1.00  0.00    -0.098 OA 
HETATM   39  C   UNL     1      -6.007   7.855  72.825  1.00  0.00    -0.048 C  
HETATM   40  C   UNL     1      -6.792   6.865  71.963  1.00  0.00    -0.058 C  
HETATM   41  C   UNL     1      -9.025   5.078  71.742  1.00  0.00    -0.149 C  
HETATM   42  C   UNL     1      -7.702   3.076  72.377  1.00  0.00    -0.057 C  
BRANCH  37  43
HETATM   43  O   UNL     1      -7.212   4.370  70.363  1.00  0.00    -0.046 OA 
HETATM   44  C   UNL     1      -5.919   3.882  70.059  1.00  0.00    -0.018 C  
ENDBRANCH  37  43
ENDBRANCH  32  33
ENDBRANCH   9  32
BRANCH  13  45
HETATM   45  O   UNL     1      -9.624   6.483  65.918  1.00  0.00     0.022 OA 
BRANCH  45  46
HETATM   46  C   UNL     1      -9.450   5.058  65.932  1.00  0.00    -0.162 C  
HETATM   47  C   UNL     1      -9.873   2.690  68.671  1.00  0.00     0.301 C  
HETATM   48  C   UNL     1      -7.773   3.109  65.411  1.00  0.00    -0.081 C  
HETATM   49  C   UNL     1      -8.189   4.581  65.213  1.00  0.00    -0.112 C  
HETATM   50  C   UNL     1      -8.105   2.677  66.854  1.00  0.00    -0.080 C  
HETATM   51  H   UNL     1      -7.556   4.584  63.377  1.00  0.00     0.000 HD 
HETATM   52  O   UNL     1      -8.340   4.881  63.824  1.00  0.00    -0.116 OA 
HETATM   53  O   UNL     1      -9.491   4.584  67.276  1.00  0.00    -0.140 OA 
HETATM   54  C   UNL     1      -9.494   3.153  67.278  1.00  0.00    -0.123 C  
BRANCH  48  55
HETATM   55  N   UNL     1      -6.311   2.922  65.112  1.00  0.00    -0.027 NA 
HETATM   56  C   UNL     1      -5.439   3.733  65.958  1.00  0.00    -0.013 C  
HETATM   57  C   UNL     1      -5.840   1.541  65.086  1.00  0.00    -0.016 C  
ENDBRANCH  48  55
ENDBRANCH  45  46
ENDBRANCH  13  45
ENDBRANCH   2   3
TORSDOF 7
ENDMDL
MODEL       89
REMARK 921   NORMALIZED FREE ENERGY PREDICTED BY IDOCK:   24.12 KCAL/MOL
REMARK 922        TOTAL FREE ENERGY PREDICTED BY IDOCK:   31.42 KCAL/MOL
REMARK 923 INTER-LIGAND FREE ENERGY PREDICTED BY IDOCK:   18.68 KCAL/MOL
REMARK 924 INTRA-LIGAND FREE ENERGY PREDICTED BY IDOCK:   12.74 KCAL/MOL
REMARK 927      BINDING AFFINITY PREDICTED BY RF-SCORE:    0.00 PKD
ROOT
HETATM    1  C   UNL     1     -12.190  15.923  67.217  1.00  0.00     1.262 C  
HETATM    2  C   UNL     1     -12.432  16.703  68.501  1.00  0.00     1.952 C  
ENDROOT
BRANCH   2   3
HETATM    3  C   UNL     1     -11.589  16.216  69.709  1.00  0.00    -0.241 C  
HETATM    4  O   UNL     1     -11.632  14.785  70.060  1.00  0.00    -0.259 OA 
HETATM    5  C   UNL     1     -11.779  13.794  69.154  1.00  0.00    -0.334 C  
HETATM    6  C   UNL     1     -11.739  12.389  69.785  1.00  0.00    -0.361 C  
HETATM    7  O   UNL     1     -11.983  13.992  67.969  1.00  0.00    -0.361 OA 
HETATM    8  C   UNL     1     -11.320  12.449  71.260  1.00  0.00     2.699 C  
HETATM    9  C   UNL     1     -10.946  11.249  68.981  1.00  0.00    -0.236 C  
HETATM   10  C   UNL     1      -6.593  16.955  66.785  1.00  0.00    -0.225 C  
HETATM   11  C   UNL     1     -10.906  11.472  67.401  1.00  0.00    -0.294 C  
HETATM   12  C   UNL     1      -7.813  14.408  69.297  1.00  0.00     0.030 C  
HETATM   13  C   UNL     1      -9.884  10.553  66.540  1.00  0.00    -0.206 C  
HETATM   14  C   UNL     1     -12.397  11.390  66.999  1.00  0.00     1.773 C  
HETATM   15  C   UNL     1      -7.789  15.767  68.588  1.00  0.00    -0.156 C  
HETATM   16  C   UNL     1      -9.226  16.418  68.469  1.00  0.00    -0.226 C  
HETATM   17  C   UNL     1      -8.330  10.920  66.118  1.00  0.00    -0.168 C  
HETATM   18  C   UNL     1      -7.610  12.133  66.781  1.00  0.00     0.052 C  
HETATM   19  C   UNL     1     -10.084  16.683  69.761  1.00  0.00     0.042 C  
HETATM   20  C   UNL     1      -7.902  10.819  64.648  1.00  0.00     0.200 C  
HETATM   21  H   UNL     1      -8.584  16.355  70.955  1.00  0.00     0.000 HD 
HETATM   22  O   UNL     1      -7.591   9.753  66.657  1.00  0.00    -0.097 OA 
HETATM   23  C   UNL     1      -7.408  13.463  65.981  1.00  0.00     3.704 C  
HETATM   24  H   UNL     1     -10.846  16.110  67.417  1.00  0.00     0.000 HD 
HETATM   25  N   UNL     1      -7.209  15.704  67.219  1.00  0.00    -0.211 NA 
HETATM   26  C   UNL     1      -8.675  14.078  65.405  1.00  0.00     2.161 C  
HETATM   27  H   UNL     1      -6.697   9.965  66.414  1.00  0.00     0.000 HD 
HETATM   28  C   UNL     1     -10.021  18.189  70.083  1.00  0.00     1.317 C  
HETATM   29  C   UNL     1      -6.514  14.518  66.716  1.00  0.00     1.847 C  
HETATM   30  O   UNL     1      -9.491  16.074  70.924  1.00  0.00     1.636 OA 
HETATM   31  O   UNL     1      -9.983  15.720  67.489  1.00  0.00    -0.232 OA 
BRANCH   9  32
HETATM   32  O   UNL     1     -11.683  10.043  69.352  1.00  0.00    -0.099 OA 
BRANCH  32  33
HETATM   33  C   UNL     1     -11.084   8.765  69.161  1.00  0.00     0.164 C  
HETATM   34  O   UNL     1      -7.961   8.712  72.034  1.00  0.00    -0.242 OA 
HETATM   35  C   UNL     1      -8.840   8.385  70.956  1.00  0.00    -0.161 C  
HETATM   36  H   UNL     1      -8.066   8.134  72.780  1.00  0.00     0.000 HD 
HETATM   37  C   UNL     1      -8.669   9.331  69.738  1.00  0.00    -0.162 C  
HETATM   38  O   UNL     1     -11.176   7.955  70.340  1.00  0.00    -0.269 OA 
HETATM   39  C   UNL     1     -10.516   7.342  72.534  1.00  0.00    -0.280 C  
HETATM   40  C   UNL     1     -10.317   8.352  71.404  1.00  0.00    -0.222 C  
HETATM   41  C   UNL     1      -9.642   8.818  68.655  1.00  0.00    -0.159 C  
HETATM   42  C   UNL     1      -7.254   9.290  69.146  1.00  0.00    -0.067 C  
BRANCH  37  43
HETATM   43  O   UNL     1      -9.060  10.688  70.017  1.00  0.00     0.272 OA 
HETATM   44  C   UNL     1      -8.145  11.535  70.685  1.00  0.00     4.600 C  
ENDBRANCH  37  43
ENDBRANCH  32  33
ENDBRANCH   9  32
BRANCH  13  45
HETATM   45  O   UNL     1     -10.459   9.570  65.633  1.00  0.00     0.003 OA 
BRANCH  45  46
HETATM   46  C   UNL     1      -9.903   8.250  65.531  1.00  0.00     0.765 C  
HETATM   47  C   UNL     1      -9.465   5.705  68.103  1.00  0.00    -0.125 C  
HETATM   48  C   UNL     1      -7.801   6.875  64.776  1.00  0.00    -0.119 C  
HETATM   49  C   UNL     1      -8.615   8.183  64.712  1.00  0.00     0.027 C  
HETATM   50  C   UNL     1      -7.896   6.286  66.199  1.00  0.00    -0.105 C  
HETATM   51  H   UNL     1      -8.141   8.467  62.850  1.00  0.00     0.000 HD 
HETATM   52  O   UNL     1      -8.942   8.509  63.359  1.00  0.00     0.217 OA 
HETATM   53  O   UNL     1      -9.716   7.708  66.836  1.00  0.00    -0.181 OA 
HETATM   54  C   UNL     1      -9.329   6.334  66.731  1.00  0.00    -0.142 C  
BRANCH  48  55
HETATM   55  N   UNL     1      -6.368   7.117  64.385  1.00  0.00    -0.037 NA 
HETATM   56  C   UNL     1      -5.442   6.138  64.950  1.00  0.00    -0.017 C  
HETATM   57  C   UNL     1      -6.118   7.278  62.957  1.00  0.00    -0.053 C  
ENDBRANCH  48  55
ENDBRANCH  45  46
ENDBRANCH  13  45
ENDBRANCH   2   3
TORSDOF 7
ENDMDL
MODEL       90
REMARK 921   NORMALIZED FREE ENERGY PREDICTED BY IDOCK:   24.19 KCAL/MOL
REMARK 922        TOTAL FREE ENERGY PREDICTED BY IDOCK:   31.50 KCAL/MOL
REMARK 923 INTER-LIGAND FREE ENERGY PREDICTED BY IDOCK:   18.59 KCAL/MOL
REMARK 924 INTRA-LIGAND FREE ENERGY PREDICTED BY IDOCK:   12.91 KCAL/MOL
REMARK 927      BINDING AFFINITY PREDICTED BY RF-SCORE:    0.00 PKD
ROOT
HETATM    1  C   UNL     1     -10.074  10.354  71.321  1.00  0.00     2.154 C  
HETATM    2  C   UNL     1      -9.968   8.856  71.569  1.00  0.00    -0.391 C  
ENDROOT
BRANCH   2   3
HETATM    3  C   UNL     1      -8.600   8.242  71.170  1.00  0.00    -0.142 C  
HETATM    4  O   UNL     1      -8.206   8.276  69.750  1.00  0.00    -0.116 OA 
HETATM    5  C   UNL     1      -8.546   9.270  68.900  1.00  0.00    -0.130 C  
HETATM    6  C   UNL     1      -7.960   9.083  67.488  1.00  0.00    -0.101 C  
HETATM    7  O   UNL     1      -9.287  10.187  69.203  1.00  0.00    -0.174 OA 
HETATM    8  C   UNL     1      -6.951   7.927  67.449  1.00  0.00    -0.075 C  
HETATM    9  C   UNL     1      -7.402  10.393  66.748  1.00  0.00    -0.110 C  
HETATM   10  C   UNL     1      -5.666  12.602  73.707  1.00  0.00     1.343 C  
HETATM   11  C   UNL     1      -8.111  11.750  67.200  1.00  0.00    -0.169 C  
HETATM   12  C   UNL     1      -5.129  10.545  70.582  1.00  0.00    -0.065 C  
HETATM   13  C   UNL     1      -7.421  13.145  66.743  1.00  0.00     0.624 C  
HETATM   14  C   UNL     1      -9.579  11.540  66.760  1.00  0.00    -0.203 C  
HETATM   15  C   UNL     1      -5.684  10.838  71.981  1.00  0.00     0.667 C  
HETATM   16  C   UNL     1      -7.120  10.215  72.209  1.00  0.00     2.789 C  
HETATM   17  C   UNL     1      -6.319  14.035  67.592  1.00  0.00    -0.118 C  
HETATM   18  C   UNL     1      -5.629  13.424  68.849  1.00  0.00    -0.073 C  
HETATM   19  C   UNL     1      -7.350   8.669  72.030  1.00  0.00    -0.039 C  
HETATM   20  C   UNL     1      -6.577  15.528  67.830  1.00  0.00    -0.175 C  
HETATM   21  H   UNL     1      -5.444   8.284  71.969  1.00  0.00     0.000 HD 
HETATM   22  O   UNL     1      -5.208  14.143  66.615  1.00  0.00     1.046 OA 
HETATM   23  C   UNL     1      -6.063  13.875  70.283  1.00  0.00    -0.141 C  
HETATM   24  H   UNL     1      -8.946  10.587  71.613  1.00  0.00     0.000 HD 
HETATM   25  N   UNL     1      -5.772  12.292  72.284  1.00  0.00     0.425 NA 
HETATM   26  C   UNL     1      -7.546  13.732  70.592  1.00  0.00     2.539 C  
HETATM   27  H   UNL     1      -4.574  14.655  67.104  1.00  0.00     0.000 HD 
HETATM   28  C   UNL     1      -7.442   8.028  73.429  1.00  0.00    -0.187 C  
HETATM   29  C   UNL     1      -5.158  13.310  71.429  1.00  0.00    -0.172 C  
HETATM   30  O   UNL     1      -6.197   8.027  71.451  1.00  0.00    -0.034 OA 
HETATM   31  O   UNL     1      -8.083  10.961  71.476  1.00  0.00     4.453 OA 
BRANCH   9  32
HETATM   32  O   UNL     1      -7.650  10.080  65.342  1.00  0.00    -0.126 OA 
BRANCH  32  33
HETATM   33  C   UNL     1      -8.961   9.715  64.923  1.00  0.00    -0.217 C  
HETATM   34  O   UNL     1      -8.956   5.486  65.278  1.00  0.00    -0.249 OA 
HETATM   35  C   UNL     1      -9.316   6.839  64.991  1.00  0.00     1.040 C  
HETATM   36  H   UNL     1      -9.481   5.107  65.973  1.00  0.00     0.000 HD 
HETATM   37  C   UNL     1      -8.458   7.457  63.856  1.00  0.00     0.313 C  
HETATM   38  O   UNL     1      -9.689   9.058  65.968  1.00  0.00    -0.265 OA 
HETATM   39  C   UNL     1     -10.186   7.188  67.339  1.00  0.00    -0.291 C  
HETATM   40  C   UNL     1      -9.260   7.731  66.250  1.00  0.00    -0.166 C  
HETATM   41  C   UNL     1      -9.000   8.886  63.638  1.00  0.00     0.215 C  
HETATM   42  C   UNL     1      -8.595   6.702  62.528  1.00  0.00     0.215 C  
BRANCH  37  43
HETATM   43  O   UNL     1      -7.072   7.605  64.212  1.00  0.00    -0.061 OA 
HETATM   44  C   UNL     1      -6.351   6.461  64.629  1.00  0.00    -0.030 C  
ENDBRANCH  37  43
ENDBRANCH  32  33
ENDBRANCH   9  32
BRANCH  13  45
HETATM   45  O   UNL     1      -8.137  13.968  65.780  1.00  0.00     1.946 OA 
BRANCH  45  46
HETATM   46  C   UNL     1      -9.339  14.659  66.154  1.00  0.00    -0.230 C  
HETATM   47  C   UNL     1     -10.168  16.364  69.267  1.00  0.00    -0.278 C  
HETATM   48  C   UNL     1     -11.943  14.439  66.377  1.00  0.00    -0.385 C  
HETATM   49  C   UNL     1     -10.621  13.919  65.777  1.00  0.00    -0.297 C  
HETATM   50  C   UNL     1     -11.685  14.950  67.809  1.00  0.00    -0.340 C  
HETATM   51  H   UNL     1     -11.493  13.417  64.116  1.00  0.00     0.000 HD 
HETATM   52  O   UNL     1     -10.696  13.877  64.350  1.00  0.00    -0.394 OA 
HETATM   53  O   UNL     1      -9.304  14.959  67.547  1.00  0.00    -0.189 OA 
HETATM   54  C   UNL     1     -10.414  15.797  67.884  1.00  0.00    -0.270 C  
BRANCH  48  55
HETATM   55  N   UNL     1     -12.995  13.364  66.366  1.00  0.00     0.071 NA 
HETATM   56  C   UNL     1     -14.037  13.584  65.365  1.00  0.00     3.915 C  
HETATM   57  C   UNL     1     -12.501  11.994  66.283  1.00  0.00     1.243 C  
ENDBRANCH  48  55
ENDBRANCH  45  46
ENDBRANCH  13  45
ENDBRANCH   2   3
TORSDOF 7
ENDMDL
MODEL       91
REMARK 921   NORMALIZED FREE ENERGY PREDICTED BY IDOCK:   24.90 KCAL/MOL
REMARK 922        TOTAL FREE ENERGY PREDICTED BY IDOCK:   32.52 KCAL/MOL
REMARK 923 INTER-LIGAND FREE ENERGY PREDICTED BY IDOCK:   20.11 KCAL/MOL
REMARK 924 INTRA-LIGAND FREE ENERGY PREDICTED BY IDOCK:   12.40 KCAL/MOL
REMARK 927      BINDING AFFINITY PREDICTED BY RF-SCORE:    0.00 PKD
ROOT
HETATM    1  C   UNL     1      -9.556   6.025  69.467  1.00  0.00    -0.171 C  
HETATM    2  C   UNL     1      -9.926   4.917  68.491  1.00  0.00    -0.185 C  
ENDROOT
BRANCH   2   3
HETATM    3  C   UNL     1     -10.991   5.326  67.440  1.00  0.00     0.426 C  
HETATM    4  O   UNL     1     -11.225   6.762  67.204  1.00  0.00    -0.379 OA 
HETATM    5  C   UNL     1     -10.260   7.704  67.294  1.00  0.00    -0.272 C  
HETATM    6  C   UNL     1     -10.764   9.119  66.948  1.00  0.00    -0.149 C  
HETATM    7  O   UNL     1      -9.126   7.470  67.669  1.00  0.00    -0.126 OA 
HETATM    8  C   UNL     1     -12.186   9.080  66.369  1.00  0.00     8.930 C  
HETATM    9  C   UNL     1      -9.788  10.051  66.080  1.00  0.00    -0.246 C  
HETATM   10  C   UNL     1      -7.615   3.549  63.024  1.00  0.00    -0.055 C  
HETATM   11  C   UNL     1      -8.236   9.724  66.269  1.00  0.00    -0.116 C  
HETATM   12  C   UNL     1     -10.024   6.423  63.496  1.00  0.00     4.302 C  
HETATM   13  C   UNL     1      -7.196  10.396  65.221  1.00  0.00    -0.106 C  
HETATM   14  C   UNL     1      -7.994  10.037  67.764  1.00  0.00    -0.105 C  
HETATM   15  C   UNL     1      -9.432   5.038  63.781  1.00  0.00     0.393 C  
HETATM   16  C   UNL     1      -9.524   4.640  65.309  1.00  0.00    -0.158 C  
HETATM   17  C   UNL     1      -6.641   9.739  63.811  1.00  0.00    -0.119 C  
HETATM   18  C   UNL     1      -7.321   8.464  63.227  1.00  0.00    -0.104 C  
HETATM   19  C   UNL     1     -10.918   4.610  66.037  1.00  0.00     0.326 C  
HETATM   20  C   UNL     1      -5.130   9.671  63.554  1.00  0.00    -0.066 C  
HETATM   21  H   UNL     1     -11.912   4.748  64.371  1.00  0.00     0.000 HD 
HETATM   22  O   UNL     1      -6.997  10.793  62.830  1.00  0.00    -0.336 OA 
HETATM   23  C   UNL     1      -6.617   7.072  63.344  1.00  0.00    -0.044 C  
HETATM   24  H   UNL     1      -8.632   5.156  66.972  1.00  0.00     0.000 HD 
HETATM   25  N   UNL     1      -8.008   4.913  63.369  1.00  0.00    -0.084 NA 
HETATM   26  C   UNL     1      -6.234   6.649  64.756  1.00  0.00    -0.038 C  
HETATM   27  H   UNL     1      -6.678  10.414  62.019  1.00  0.00     0.000 HD 
HETATM   28  C   UNL     1     -11.356   3.139  66.184  1.00  0.00     5.812 C  
HETATM   29  C   UNL     1      -7.335   5.927  62.553  1.00  0.00    -0.053 C  
HETATM   30  O   UNL     1     -11.956   5.180  65.216  1.00  0.00     1.044 OA 
HETATM   31  O   UNL     1      -8.576   5.395  66.054  1.00  0.00    -0.119 OA 
BRANCH   9  32
HETATM   32  O   UNL     1     -10.135  11.387  66.558  1.00  0.00    -0.205 OA 
BRANCH  32  33
HETATM   33  C   UNL     1     -11.248  12.071  65.991  1.00  0.00    -0.335 C  
HETATM   34  O   UNL     1     -11.473  15.635  68.282  1.00  0.00    -0.353 OA 
HETATM   35  C   UNL     1     -11.741  14.578  67.360  1.00  0.00    -0.400 C  
HETATM   36  H   UNL     1     -11.234  16.447  67.849  1.00  0.00     0.000 HD 
HETATM   37  C   UNL     1     -12.131  13.253  68.067  1.00  0.00    -0.221 C  
HETATM   38  O   UNL     1     -10.865  13.335  65.433  1.00  0.00    -0.282 OA 
HETATM   39  C   UNL     1     -10.237  15.615  65.612  1.00  0.00    -0.402 C  
HETATM   40  C   UNL     1     -10.560  14.341  66.394  1.00  0.00    -0.286 C  
HETATM   41  C   UNL     1     -12.432  12.239  66.943  1.00  0.00     0.948 C  
HETATM   42  C   UNL     1     -13.396  13.385  68.923  1.00  0.00     3.437 C  
BRANCH  37  43
HETATM   43  O   UNL     1     -11.056  12.687  68.838  1.00  0.00    -0.247 OA 
HETATM   44  C   UNL     1     -11.365  12.019  70.047  1.00  0.00     0.029 C  
ENDBRANCH  37  43
ENDBRANCH  32  33
ENDBRANCH   9  32
BRANCH  13  45
HETATM   45  O   UNL     1      -6.279  11.404  65.732  1.00  0.00     0.063 OA 
BRANCH  45  46
HETATM   46  C   UNL     1      -6.137  11.620  67.144  1.00  0.00    -0.130 C  
HETATM   47  C   UNL     1      -7.064   9.461  69.931  1.00  0.00    -0.075 C  
HETATM   48  C   UNL     1      -6.691  13.257  69.117  1.00  0.00    -0.092 C  
HETATM   49  C   UNL     1      -6.545  13.020  67.600  1.00  0.00    -0.159 C  
HETATM   50  C   UNL     1      -7.259  11.984  69.778  1.00  0.00     0.537 C  
HETATM   51  H   UNL     1      -5.873  14.820  67.314  1.00  0.00     0.000 HD 
HETATM   52  O   UNL     1      -5.620  13.949  67.030  1.00  0.00     0.058 OA 
HETATM   53  O   UNL     1      -6.854  10.614  67.856  1.00  0.00    -0.071 OA 
HETATM   54  C   UNL     1      -6.570  10.724  69.254  1.00  0.00    -0.074 C  
BRANCH  48  55
HETATM   55  N   UNL     1      -7.569  14.447  69.390  1.00  0.00    -0.046 NA 
HETATM   56  C   UNL     1      -7.056  15.315  70.447  1.00  0.00     0.351 C  
HETATM   57  C   UNL     1      -7.940  15.243  68.225  1.00  0.00    -0.132 C  
ENDBRANCH  48  55
ENDBRANCH  45  46
ENDBRANCH  13  45
ENDBRANCH   2   3
TORSDOF 7
ENDMDL
MODEL       92
REMARK 921   NORMALIZED FREE ENERGY PREDICTED BY IDOCK:   26.80 KCAL/MOL
REMARK 922        TOTAL FREE ENERGY PREDICTED BY IDOCK:   35.19 KCAL/MOL
REMARK 923 INTER-LIGAND FREE ENERGY PREDICTED BY IDOCK:   29.72 KCAL/MOL
REMARK 924 INTRA-LIGAND FREE ENERGY PREDICTED BY IDOCK:    5.47 KCAL/MOL
REMARK 927      BINDING AFFINITY PREDICTED BY RF-SCORE:    0.00 PKD
ROOT
HETATM    1  C   UNL     1     -11.880  10.333  65.417  1.00  0.00     3.677 C  
HETATM    2  C   UNL     1     -10.990   9.409  64.598  1.00  0.00     4.881 C  
ENDROOT
BRANCH   2   3
HETATM    3  C   UNL     1      -9.865  10.139  63.819  1.00  0.00    -0.010 C  
HETATM    4  O   UNL     1      -9.645  11.572  64.087  1.00  0.00    -0.221 OA 
HETATM    5  C   UNL     1      -9.837  12.148  65.293  1.00  0.00    -0.196 C  
HETATM    6  C   UNL     1      -9.484  13.648  65.309  1.00  0.00     0.314 C  
HETATM    7  O   UNL     1     -10.298  11.557  66.253  1.00  0.00    -0.225 OA 
HETATM    8  C   UNL     1      -8.789  14.073  64.007  1.00  0.00     7.109 C  
HETATM    9  C   UNL     1      -8.722  14.206  66.606  1.00  0.00    -0.044 C  
HETATM   10  C   UNL     1      -5.701   7.338  66.797  1.00  0.00    -0.023 C  
HETATM   11  C   UNL     1      -9.030  13.392  67.945  1.00  0.00    -0.201 C  
HETATM   12  C   UNL     1      -6.041  10.843  65.424  1.00  0.00     0.040 C  
HETATM   13  C   UNL     1      -8.087  13.683  69.232  1.00  0.00     0.482 C  
HETATM   14  C   UNL     1     -10.546  13.615  68.147  1.00  0.00    -0.255 C  
HETATM   15  C   UNL     1      -6.341   9.342  65.506  1.00  0.00    -0.065 C  
HETATM   16  C   UNL     1      -7.846   9.003  65.159  1.00  0.00    -0.108 C  
HETATM   17  C   UNL     1      -6.712  12.874  69.662  1.00  0.00     0.091 C  
HETATM   18  C   UNL     1      -6.044  11.889  68.657  1.00  0.00    -0.052 C  
HETATM   19  C   UNL     1      -8.456   9.433  63.774  1.00  0.00    -0.195 C  
HETATM   20  C   UNL     1      -6.578  12.316  71.084  1.00  0.00     2.451 C  
HETATM   21  H   UNL     1      -6.717   9.880  63.026  1.00  0.00     0.000 HD 
HETATM   22  O   UNL     1      -5.731  13.982  69.753  1.00  0.00    -0.097 OA 
HETATM   23  C   UNL     1      -6.185  10.343  68.856  1.00  0.00    -0.043 C  
HETATM   24  H   UNL     1      -9.589   9.206  66.025  1.00  0.00     0.000 HD 
HETATM   25  N   UNL     1      -6.044   8.758  66.841  1.00  0.00    -0.057 NA 
HETATM   26  C   UNL     1      -7.613   9.825  68.958  1.00  0.00    -0.082 C  
HETATM   27  H   UNL     1      -4.940  13.517  70.000  1.00  0.00     0.000 HD 
HETATM   28  C   UNL     1      -8.532   8.186  62.871  1.00  0.00     0.021 C  
HETATM   29  C   UNL     1      -5.311   9.492  67.874  1.00  0.00    -0.037 C  
HETATM   30  O   UNL     1      -7.566  10.306  63.053  1.00  0.00    -0.143 OA 
HETATM   31  O   UNL     1      -8.684   9.410  66.233  1.00  0.00    -0.134 OA 
BRANCH   9  32
HETATM   32  O   UNL     1      -9.202  15.585  66.674  1.00  0.00    -0.229 OA 
BRANCH  32  33
HETATM   33  C   UNL     1     -10.578  15.839  66.935  1.00  0.00    -0.317 C  
HETATM   34  O   UNL     1     -11.513  18.990  64.250  1.00  0.00     1.819 OA 
HETATM   35  C   UNL     1     -11.570  18.006  65.284  1.00  0.00     2.394 C  
HETATM   36  H   UNL     1     -12.079  18.782  63.516  1.00  0.00     0.000 HD 
HETATM   37  C   UNL     1     -10.645  18.345  66.483  1.00  0.00    -0.311 C  
HETATM   38  O   UNL     1     -11.389  15.609  65.776  1.00  0.00    -0.155 OA 
HETATM   39  C   UNL     1     -12.236  16.203  63.642  1.00  0.00     1.774 C  
HETATM   40  C   UNL     1     -11.259  16.590  64.753  1.00  0.00    -0.143 C  
HETATM   41  C   UNL     1     -10.859  17.223  67.521  1.00  0.00    -0.206 C  
HETATM   42  C   UNL     1     -11.006  19.675  67.156  1.00  0.00    -0.420 C  
BRANCH  37  43
HETATM   43  O   UNL     1      -9.247  18.315  66.144  1.00  0.00    -0.475 OA 
HETATM   44  C   UNL     1      -8.334  19.027  66.957  1.00  0.00    -0.276 C  
ENDBRANCH  37  43
ENDBRANCH  32  33
ENDBRANCH   9  32
BRANCH  13  45
HETATM   45  O   UNL     1      -8.695  14.338  70.380  1.00  0.00     1.612 OA 
BRANCH  45  46
HETATM   46  C   UNL     1      -9.921  13.846  70.944  1.00  0.00     4.117 C  
HETATM   47  C   UNL     1     -11.828  10.854  70.107  1.00  0.00    -0.438 C  
HETATM   48  C   UNL     1     -12.414  14.454  71.488  1.00  0.00    -0.355 C  
HETATM   49  C   UNL     1     -10.983  14.924  71.153  1.00  0.00     0.050 C  
HETATM   50  C   UNL     1     -12.713  13.148  70.723  1.00  0.00    -0.260 C  
HETATM   51  H   UNL     1     -11.160  16.493  72.282  1.00  0.00     0.000 HD 
HETATM   52  O   UNL     1     -10.499  15.823  72.152  1.00  0.00     1.106 OA 
HETATM   53  O   UNL     1     -10.418  12.775  70.144  1.00  0.00     1.305 OA 
HETATM   54  C   UNL     1     -11.539  12.171  70.798  1.00  0.00     0.699 C  
BRANCH  48  55
HETATM   55  N   UNL     1     -13.419  15.521  71.153  1.00  0.00    -0.548 NA 
HETATM   56  C   UNL     1     -14.336  15.136  70.083  1.00  0.00     2.002 C  
HETATM   57  C   UNL     1     -14.166  16.067  72.281  1.00  0.00     0.099 C  
ENDBRANCH  48  55
ENDBRANCH  45  46
ENDBRANCH  13  45
ENDBRANCH   2   3
TORSDOF 7
ENDMDL
MODEL       93
REMARK 921   NORMALIZED FREE ENERGY PREDICTED BY IDOCK:   26.93 KCAL/MOL
REMARK 922        TOTAL FREE ENERGY PREDICTED BY IDOCK:   35.37 KCAL/MOL
REMARK 923 INTER-LIGAND FREE ENERGY PREDICTED BY IDOCK:   21.42 KCAL/MOL
REMARK 924 INTRA-LIGAND FREE ENERGY PREDICTED BY IDOCK:   13.95 KCAL/MOL
REMARK 927      BINDING AFFINITY PREDICTED BY RF-SCORE:    0.00 PKD
ROOT
HETATM    1  C   UNL     1      -7.986  18.416  68.769  1.00  0.00    -0.278 C  
HETATM    2  C   UNL     1      -6.634  18.809  68.191  1.00  0.00    -0.235 C  
ENDROOT
BRANCH   2   3
HETATM    3  C   UNL     1      -6.227  18.006  66.927  1.00  0.00    -0.164 C  
HETATM    4  O   UNL     1      -5.912  16.574  67.080  1.00  0.00    -0.151 OA 
HETATM    5  C   UNL     1      -6.509  15.766  67.984  1.00  0.00    -0.137 C  
HETATM    6  C   UNL     1      -6.030  14.305  67.896  1.00  0.00    -0.145 C  
HETATM    7  O   UNL     1      -7.299  16.164  68.820  1.00  0.00    -0.160 OA 
HETATM    8  C   UNL     1      -5.153  14.077  66.656  1.00  0.00     2.490 C  
HETATM    9  C   UNL     1      -7.141  13.159  68.064  1.00  0.00    -0.115 C  
HETATM   10  C   UNL     1     -11.660  18.187  64.806  1.00  0.00     3.320 C  
HETATM   11  C   UNL     1      -8.392  13.590  68.957  1.00  0.00     0.310 C  
HETATM   12  C   UNL     1      -8.914  15.591  64.773  1.00  0.00     3.606 C  
HETATM   13  C   UNL     1      -9.695  12.625  68.937  1.00  0.00     0.200 C  
HETATM   14  C   UNL     1      -7.759  13.851  70.343  1.00  0.00     1.886 C  
HETATM   15  C   UNL     1      -9.494  17.006  64.871  1.00  0.00     2.643 C  
HETATM   16  C   UNL     1      -8.684  17.928  65.870  1.00  0.00     0.171 C  
HETATM   17  C   UNL     1     -11.009  12.746  67.944  1.00  0.00    -0.234 C  
HETATM   18  C   UNL     1     -10.965  13.695  66.709  1.00  0.00    -0.297 C  
HETATM   19  C   UNL     1      -7.144  18.167  65.655  1.00  0.00    -0.135 C  
HETATM   20  C   UNL     1     -12.417  12.774  68.554  1.00  0.00     0.518 C  
HETATM   21  H   UNL     1      -7.165  17.396  63.869  1.00  0.00     0.000 HD 
HETATM   22  O   UNL     1     -11.046  11.396  67.332  1.00  0.00    -0.254 OA 
HETATM   23  C   UNL     1     -11.727  15.062  66.737  1.00  0.00    -0.161 C  
HETATM   24  H   UNL     1      -8.470  18.084  67.808  1.00  0.00     0.000 HD 
HETATM   25  N   UNL     1     -10.920  17.027  65.295  1.00  0.00    -0.416 NA 
HETATM   26  C   UNL     1     -11.379  15.981  67.899  1.00  0.00    -0.218 C  
HETATM   27  H   UNL     1     -11.802  11.466  66.760  1.00  0.00     0.000 HD 
HETATM   28  C   UNL     1      -6.952  19.573  65.054  1.00  0.00     0.064 C  
HETATM   29  C   UNL     1     -11.736  15.814  65.363  1.00  0.00     0.361 C  
HETATM   30  O   UNL     1      -6.612  17.299  64.636  1.00  0.00     2.109 OA 
HETATM   31  O   UNL     1      -8.957  17.531  67.208  1.00  0.00    -0.230 OA 
BRANCH   9  32
HETATM   32  O   UNL     1      -6.373  12.075  68.673  1.00  0.00    -0.053 OA 
BRANCH  32  33
HETATM   33  C   UNL     1      -5.439  11.344  67.885  1.00  0.00    -0.044 C  
HETATM   34  O   UNL     1      -7.796   9.913  64.659  1.00  0.00    -0.130 OA 
HETATM   35  C   UNL     1      -6.726  10.160  65.573  1.00  0.00    -0.122 C  
HETATM   36  H   UNL     1      -7.643  10.298  63.804  1.00  0.00     0.000 HD 
HETATM   37  C   UNL     1      -6.975   9.531  66.969  1.00  0.00    -0.085 C  
HETATM   38  O   UNL     1      -5.308  11.898  66.569  1.00  0.00    -0.308 OA 
HETATM   39  C   UNL     1      -6.068  12.275  64.355  1.00  0.00     6.716 C  
HETATM   40  C   UNL     1      -6.422  11.667  65.713  1.00  0.00     0.976 C  
HETATM   41  C   UNL     1      -5.721   9.843  67.812  1.00  0.00    -0.039 C  
HETATM   42  C   UNL     1      -7.131   8.006  66.916  1.00  0.00    -0.081 C  
BRANCH  37  43
HETATM   43  O   UNL     1      -8.084  10.127  67.667  1.00  0.00    -0.109 OA 
HETATM   44  C   UNL     1      -8.974  10.957  66.946  1.00  0.00    -0.151 C  
ENDBRANCH  37  43
ENDBRANCH  32  33
ENDBRANCH   9  32
BRANCH  13  45
HETATM   45  O   UNL     1     -10.022  11.906  70.160  1.00  0.00     1.750 OA 
BRANCH  45  46
HETATM   46  C   UNL     1     -11.176  11.055  70.227  1.00  0.00    -0.115 C  
HETATM   47  C   UNL     1     -14.060  11.220  72.450  1.00  0.00     0.869 C  
HETATM   48  C   UNL     1     -11.984   8.572  70.478  1.00  0.00     0.061 C  
HETATM   49  C   UNL     1     -10.853   9.565  70.139  1.00  0.00    -0.258 C  
HETATM   50  C   UNL     1     -12.849   9.156  71.614  1.00  0.00    -0.431 C  
HETATM   51  H   UNL     1     -10.130   8.382  68.779  1.00  0.00     0.000 HD 
HETATM   52  O   UNL     1     -10.331   9.309  68.834  1.00  0.00    -0.204 OA 
HETATM   53  O   UNL     1     -11.924  11.356  71.403  1.00  0.00    -0.017 OA 
HETATM   54  C   UNL     1     -13.160  10.635  71.381  1.00  0.00    -0.400 C  
BRANCH  48  55
HETATM   55  N   UNL     1     -11.422   7.231  70.860  1.00  0.00    -0.283 NA 
HETATM   56  C   UNL     1     -12.332   6.434  71.679  1.00  0.00    -0.158 C  
HETATM   57  C   UNL     1     -10.900   6.424  69.761  1.00  0.00    -0.314 C  
ENDBRANCH  48  55
ENDBRANCH  45  46
ENDBRANCH  13  45
ENDBRANCH   2   3
TORSDOF 7
ENDMDL
MODEL       94
REMARK 921   NORMALIZED FREE ENERGY PREDICTED BY IDOCK:   26.93 KCAL/MOL
REMARK 922        TOTAL FREE ENERGY PREDICTED BY IDOCK:   35.37 KCAL/MOL
REMARK 923 INTER-LIGAND FREE ENERGY PREDICTED BY IDOCK:   31.77 KCAL/MOL
REMARK 924 INTRA-LIGAND FREE ENERGY PREDICTED BY IDOCK:    3.60 KCAL/MOL
REMARK 927      BINDING AFFINITY PREDICTED BY RF-SCORE:    0.00 PKD
ROOT
HETATM    1  C   UNL     1      -7.583   9.145  71.025  1.00  0.00    -0.124 C  
HETATM    2  C   UNL     1      -8.456   9.758  69.939  1.00  0.00    -0.217 C  
ENDROOT
BRANCH   2   3
HETATM    3  C   UNL     1      -9.703  10.509  70.475  1.00  0.00     1.081 C  
HETATM    4  O   UNL     1      -9.605  11.965  70.688  1.00  0.00     4.253 OA 
HETATM    5  C   UNL     1      -8.847  12.785  69.928  1.00  0.00     3.026 C  
HETATM    6  C   UNL     1      -8.966  14.266  70.336  1.00  0.00     2.361 C  
HETATM    7  O   UNL     1      -8.101  12.389  69.051  1.00  0.00     0.107 OA 
HETATM    8  C   UNL     1     -10.087  14.475  71.364  1.00  0.00     2.857 C  
HETATM    9  C   UNL     1      -9.027  15.348  69.152  1.00  0.00    -0.245 C  
HETATM   10  C   UNL     1     -12.527   9.864  65.409  1.00  0.00     9.914 C  
HETATM   11  C   UNL     1      -8.286  14.892  67.813  1.00  0.00    -0.163 C  
HETATM   12  C   UNL     1     -12.359  12.621  67.989  1.00  0.00     0.336 C  
HETATM   13  C   UNL     1      -8.548  15.772  66.475  1.00  0.00    -0.308 C  
HETATM   14  C   UNL     1      -6.812  14.754  68.260  1.00  0.00    -0.115 C  
HETATM   15  C   UNL     1     -12.247  11.180  67.478  1.00  0.00     1.144 C  
HETATM   16  C   UNL     1     -11.088  10.371  68.189  1.00  0.00    -0.285 C  
HETATM   17  C   UNL     1      -9.700  15.510  65.322  1.00  0.00    -0.084 C  
HETATM   18  C   UNL     1     -10.851  14.495  65.589  1.00  0.00    -0.329 C  
HETATM   19  C   UNL     1     -11.074  10.217  69.754  1.00  0.00    -0.279 C  
HETATM   20  C   UNL     1      -9.287  15.431  63.846  1.00  0.00     8.055 C  
HETATM   21  H   UNL     1     -12.894  10.879  69.942  1.00  0.00     0.000 HD 
HETATM   22  O   UNL     1     -10.400  16.818  65.298  1.00  0.00    -0.622 OA 
HETATM   23  C   UNL     1     -10.836  13.088  64.905  1.00  0.00    -0.343 C  
HETATM   24  H   UNL     1      -9.132  10.342  68.138  1.00  0.00     0.000 HD 
HETATM   25  N   UNL     1     -12.020  11.095  66.010  1.00  0.00     0.504 NA 
HETATM   26  C   UNL     1      -9.579  12.262  65.137  1.00  0.00    -0.015 C  
HETATM   27  H   UNL     1     -11.064  16.666  64.635  1.00  0.00     0.000 HD 
HETATM   28  C   UNL     1     -11.549   8.793  70.104  1.00  0.00     0.058 C  
HETATM   29  C   UNL     1     -12.145  12.257  65.128  1.00  0.00    -0.316 C  
HETATM   30  O   UNL     1     -12.067  11.055  70.377  1.00  0.00    -0.311 OA 
HETATM   31  O   UNL     1      -9.828  10.828  67.711  1.00  0.00    -0.163 OA 
BRANCH   9  32
HETATM   32  O   UNL     1      -8.393  16.512  69.767  1.00  0.00     0.313 OA 
BRANCH  32  33
HETATM   33  C   UNL     1      -7.134  16.967  69.281  1.00  0.00    -0.177 C  
HETATM   34  O   UNL     1      -6.660  20.731  71.183  1.00  0.00    -0.182 OA 
HETATM   35  C   UNL     1      -6.487  19.582  70.352  1.00  0.00    -0.010 C  
HETATM   36  H   UNL     1      -5.997  20.796  71.861  1.00  0.00     0.000 HD 
HETATM   37  C   UNL     1      -7.570  19.476  69.246  1.00  0.00    -0.202 C  
HETATM   38  O   UNL     1      -6.189  17.146  70.344  1.00  0.00     0.062 OA 
HETATM   39  C   UNL     1      -5.298  18.328  72.197  1.00  0.00     0.768 C  
HETATM   40  C   UNL     1      -6.434  18.276  71.175  1.00  0.00     1.945 C  
HETATM   41  C   UNL     1      -7.215  18.225  68.415  1.00  0.00    -0.276 C  
HETATM   42  C   UNL     1      -7.569  20.680  68.295  1.00  0.00     0.109 C  
BRANCH  37  43
HETATM   43  O   UNL     1      -8.891  19.248  69.769  1.00  0.00     0.325 OA 
HETATM   44  C   UNL     1      -9.966  20.015  69.260  1.00  0.00    -0.111 C  
ENDBRANCH  37  43
ENDBRANCH  32  33
ENDBRANCH   9  32
BRANCH  13  45
HETATM   45  O   UNL     1      -7.431  16.539  65.943  1.00  0.00     0.129 OA 
BRANCH  45  46
HETATM   46  C   UNL     1      -7.456  17.975  65.951  1.00  0.00    -0.178 C  
HETATM   47  C   UNL     1     -10.303  20.251  65.957  1.00  0.00    -0.364 C  
HETATM   48  C   UNL     1      -6.606  20.129  64.719  1.00  0.00    -0.227 C  
HETATM   49  C   UNL     1      -6.462  18.616  64.984  1.00  0.00    -0.071 C  
HETATM   50  C   UNL     1      -8.102  20.506  64.724  1.00  0.00     1.380 C  
HETATM   51  H   UNL     1      -4.528  18.706  64.843  1.00  0.00     0.000 HD 
HETATM   52  O   UNL     1      -5.146  18.307  65.445  1.00  0.00    -0.148 OA 
HETATM   53  O   UNL     1      -8.785  18.431  65.708  1.00  0.00    -0.443 OA 
HETATM   54  C   UNL     1      -8.843  19.850  65.889  1.00  0.00    -0.130 C  
BRANCH  48  55
HETATM   55  N   UNL     1      -5.957  20.508  63.416  1.00  0.00    -0.243 NA 
HETATM   56  C   UNL     1      -5.313  19.383  62.743  1.00  0.00    -0.326 C  
HETATM   57  C   UNL     1      -6.798  21.240  62.476  1.00  0.00     0.053 C  
ENDBRANCH  48  55
ENDBRANCH  45  46
ENDBRANCH  13  45
ENDBRANCH   2   3
TORSDOF 7
ENDMDL
MODEL       95
REMARK 921   NORMALIZED FREE ENERGY PREDICTED BY IDOCK:   27.19 KCAL/MOL
REMARK 922        TOTAL FREE ENERGY PREDICTED BY IDOCK:   35.73 KCAL/MOL
REMARK 923 INTER-LIGAND FREE ENERGY PREDICTED BY IDOCK:   22.50 KCAL/MOL
REMARK 924 INTRA-LIGAND FREE ENERGY PREDICTED BY IDOCK:   13.23 KCAL/MOL
REMARK 927      BINDING AFFINITY PREDICTED BY RF-SCORE:    0.00 PKD
ROOT
HETATM    1  C   UNL     1     -10.583  15.621  63.709  1.00  0.00     2.984 C  
HETATM    2  C   UNL     1     -11.193  15.121  65.011  1.00  0.00    -0.414 C  
ENDROOT
BRANCH   2   3
HETATM    3  C   UNL     1     -10.747  15.916  66.266  1.00  0.00    -0.261 C  
HETATM    4  O   UNL     1     -11.356  15.571  67.564  1.00  0.00    -0.314 OA 
HETATM    5  C   UNL     1     -11.739  14.321  67.905  1.00  0.00    -0.359 C  
HETATM    6  C   UNL     1     -12.297  14.232  69.339  1.00  0.00    -0.238 C  
HETATM    7  O   UNL     1     -11.704  13.376  67.138  1.00  0.00    -0.337 OA 
HETATM    8  C   UNL     1     -12.076  15.541  70.109  1.00  0.00    -0.404 C  
HETATM    9  C   UNL     1     -11.881  12.947  70.206  1.00  0.00    -0.213 C  
HETATM   10  C   UNL     1      -5.500  13.363  66.276  1.00  0.00     3.893 C  
HETATM   11  C   UNL     1     -11.562  11.647  69.336  1.00  0.00    -0.392 C  
HETATM   12  C   UNL     1      -7.877  14.490  68.990  1.00  0.00    -0.106 C  
HETATM   13  C   UNL     1     -10.846  10.400  70.086  1.00  0.00    -0.271 C  
HETATM   14  C   UNL     1     -12.915  11.345  68.651  1.00  0.00     2.440 C  
HETATM   15  C   UNL     1      -7.266  14.487  67.584  1.00  0.00    -0.187 C  
HETATM   16  C   UNL     1      -8.338  14.768  66.455  1.00  0.00     0.343 C  
HETATM   17  C   UNL     1      -9.226  10.101  70.195  1.00  0.00     0.111 C  
HETATM   18  C   UNL     1      -8.203  11.203  69.785  1.00  0.00     0.735 C  
HETATM   19  C   UNL     1      -9.196  16.086  66.488  1.00  0.00    -0.276 C  
HETATM   20  C   UNL     1      -8.682   8.727  69.785  1.00  0.00    -0.133 C  
HETATM   21  H   UNL     1      -8.085  16.902  67.860  1.00  0.00     0.000 HD 
HETATM   22  O   UNL     1      -9.040   9.997  71.663  1.00  0.00     0.651 OA 
HETATM   23  C   UNL     1      -7.428  11.094  68.430  1.00  0.00    -0.102 C  
HETATM   24  H   UNL     1      -9.811  13.793  65.614  1.00  0.00     0.000 HD 
HETATM   25  N   UNL     1      -6.582  13.210  67.246  1.00  0.00    -0.207 NA 
HETATM   26  C   UNL     1      -8.297  10.944  67.190  1.00  0.00    -0.125 C  
HETATM   27  H   UNL     1      -8.108   9.825  71.726  1.00  0.00     0.000 HD 
HETATM   28  C   UNL     1      -8.627  17.060  65.438  1.00  0.00     1.366 C  
HETATM   29  C   UNL     1      -6.310  12.176  68.247  1.00  0.00    -0.053 C  
HETATM   30  O   UNL     1      -9.020  16.800  67.727  1.00  0.00    -0.212 OA 
HETATM   31  O   UNL     1      -9.167  13.624  66.292  1.00  0.00    -0.186 OA 
BRANCH   9  32
HETATM   32  O   UNL     1     -13.049  12.766  71.065  1.00  0.00    -0.146 OA 
BRANCH  32  33
HETATM   33  C   UNL     1     -12.920  12.932  72.474  1.00  0.00     0.041 C  
HETATM   34  O   UNL     1     -11.558  16.931  72.864  1.00  0.00    -0.215 OA 
HETATM   35  C   UNL     1     -11.947  15.582  73.128  1.00  0.00    -0.466 C  
HETATM   36  H   UNL     1     -12.166  17.565  73.224  1.00  0.00     0.000 HD 
HETATM   37  C   UNL     1     -10.953  14.547  72.538  1.00  0.00     1.943 C  
HETATM   38  O   UNL     1     -13.784  13.963  72.967  1.00  0.00    -0.600 OA 
HETATM   39  C   UNL     1     -14.383  16.234  73.294  1.00  0.00     1.035 C  
HETATM   40  C   UNL     1     -13.380  15.288  72.635  1.00  0.00    -0.478 C  
HETATM   41  C   UNL     1     -11.484  13.158  72.949  1.00  0.00     5.706 C  
HETATM   42  C   UNL     1      -9.537  14.689  73.110  1.00  0.00     7.595 C  
BRANCH  37  43
HETATM   43  O   UNL     1     -10.918  14.553  71.099  1.00  0.00     0.167 OA 
HETATM   44  C   UNL     1      -9.851  15.214  70.447  1.00  0.00     0.399 C  
ENDBRANCH  37  43
ENDBRANCH  32  33
ENDBRANCH   9  32
BRANCH  13  45
HETATM   45  O   UNL     1     -11.621   9.180  70.256  1.00  0.00    -0.210 OA 
BRANCH  45  46
HETATM   46  C   UNL     1     -10.969   7.908  70.394  1.00  0.00    -0.249 C  
HETATM   47  C   UNL     1     -10.858   5.091  68.083  1.00  0.00     0.473 C  
HETATM   48  C   UNL     1     -10.733   5.787  71.919  1.00  0.00    -0.242 C  
HETATM   49  C   UNL     1     -11.155   7.263  71.766  1.00  0.00    -0.235 C  
HETATM   50  C   UNL     1     -11.045   5.031  70.611  1.00  0.00     0.593 C  
HETATM   51  H   UNL     1     -10.599   7.680  73.580  1.00  0.00     0.000 HD 
HETATM   52  O   UNL     1     -10.484   8.082  72.726  1.00  0.00    -0.307 OA 
HETATM   53  O   UNL     1     -11.397   7.037  69.349  1.00  0.00    -0.153 OA 
HETATM   54  C   UNL     1     -10.620   5.835  69.382  1.00  0.00    -0.313 C  
BRANCH  48  55
HETATM   55  N   UNL     1     -11.428   5.151  73.091  1.00  0.00    -0.316 NA 
HETATM   56  C   UNL     1     -11.898   3.794  72.819  1.00  0.00     0.785 C  
HETATM   57  C   UNL     1     -10.701   5.184  74.355  1.00  0.00    -0.042 C  
ENDBRANCH  48  55
ENDBRANCH  45  46
ENDBRANCH  13  45
ENDBRANCH   2   3
TORSDOF 7
ENDMDL
MODEL       96
REMARK 921   NORMALIZED FREE ENERGY PREDICTED BY IDOCK:   27.35 KCAL/MOL
REMARK 922        TOTAL FREE ENERGY PREDICTED BY IDOCK:   35.97 KCAL/MOL
REMARK 923 INTER-LIGAND FREE ENERGY PREDICTED BY IDOCK:   26.71 KCAL/MOL
REMARK 924 INTRA-LIGAND FREE ENERGY PREDICTED BY IDOCK:    9.26 KCAL/MOL
REMARK 927      BINDING AFFINITY PREDICTED BY RF-SCORE:    0.00 PKD
ROOT
HETATM    1  C   UNL     1     -11.724   4.800  66.276  1.00  0.00     3.022 C  
HETATM    2  C   UNL     1     -11.125   6.196  66.376  1.00  0.00     0.214 C  
ENDROOT
BRANCH   2   3
HETATM    3  C   UNL     1      -9.809   6.382  65.576  1.00  0.00     0.865 C  
HETATM    4  O   UNL     1      -9.254   7.742  65.449  1.00  0.00     0.118 OA 
HETATM    5  C   UNL     1      -9.366   8.690  66.405  1.00  0.00    -0.211 C  
HETATM    6  C   UNL     1      -8.650  10.004  66.038  1.00  0.00    -0.148 C  
HETATM    7  O   UNL     1     -10.015   8.542  67.425  1.00  0.00    -0.180 OA 
HETATM    8  C   UNL     1      -7.797   9.842  64.772  1.00  0.00    -0.141 C  
HETATM    9  C   UNL     1      -7.850  10.754  67.210  1.00  0.00    -0.113 C  
HETATM   10  C   UNL     1      -6.659   3.792  69.750  1.00  0.00    -0.033 C  
HETATM   11  C   UNL     1      -8.429  10.482  68.673  1.00  0.00    -0.138 C  
HETATM   12  C   UNL     1      -6.031   6.686  67.401  1.00  0.00    -0.017 C  
HETATM   13  C   UNL     1      -7.521  10.941  69.936  1.00  0.00     0.172 C  
HETATM   14  C   UNL     1      -9.852  11.085  68.602  1.00  0.00    -0.197 C  
HETATM   15  C   UNL     1      -6.702   5.388  67.867  1.00  0.00    -0.055 C  
HETATM   16  C   UNL     1      -8.221   5.299  67.437  1.00  0.00    -0.103 C  
HETATM   17  C   UNL     1      -6.420  10.022  70.755  1.00  0.00    -0.058 C  
HETATM   18  C   UNL     1      -5.961   8.652  70.170  1.00  0.00    -0.030 C  
HETATM   19  C   UNL     1      -8.622   5.404  65.920  1.00  0.00    -0.131 C  
HETATM   20  C   UNL     1      -6.513   9.915  72.282  1.00  0.00     0.988 C  
HETATM   21  H   UNL     1      -6.786   5.203  65.310  1.00  0.00     0.000 HD 
HETATM   22  O   UNL     1      -5.199  10.859  70.654  1.00  0.00    -0.074 OA 
HETATM   23  C   UNL     1      -6.497   7.315  70.782  1.00  0.00    -0.043 C  
HETATM   24  H   UNL     1      -9.905   6.140  67.972  1.00  0.00     0.000 HD 
HETATM   25  N   UNL     1      -6.639   5.195  69.341  1.00  0.00    -0.045 NA 
HETATM   26  C   UNL     1      -8.012   7.183  70.839  1.00  0.00    -0.096 C  
HETATM   27  H   UNL     1      -4.566  10.330  71.125  1.00  0.00     0.000 HD 
HETATM   28  C   UNL     1      -8.954   3.988  65.409  1.00  0.00    -0.132 C  
HETATM   29  C   UNL     1      -5.807   6.032  70.208  1.00  0.00    -0.017 C  
HETATM   30  O   UNL     1      -7.501   5.793  65.102  1.00  0.00    -0.073 OA 
HETATM   31  O   UNL     1      -8.992   6.193  68.231  1.00  0.00    -0.116 OA 
BRANCH   9  32
HETATM   32  O   UNL     1      -7.973  12.156  66.817  1.00  0.00    -0.126 OA 
BRANCH  32  33
HETATM   33  C   UNL     1      -8.458  12.483  65.518  1.00  0.00     1.410 C  
HETATM   34  O   UNL     1     -11.796  14.975  66.324  1.00  0.00    -0.195 OA 
HETATM   35  C   UNL     1     -10.810  14.170  65.677  1.00  0.00    -0.305 C  
HETATM   36  H   UNL     1     -11.712  15.898  66.113  1.00  0.00     0.000 HD 
HETATM   37  C   UNL     1     -10.948  12.663  66.022  1.00  0.00    -0.282 C  
HETATM   38  O   UNL     1      -8.405  13.894  65.273  1.00  0.00     2.891 OA 
HETATM   39  C   UNL     1      -9.198  16.113  65.543  1.00  0.00     0.191 C  
HETATM   40  C   UNL     1      -9.376  14.658  65.979  1.00  0.00    -0.181 C  
HETATM   41  C   UNL     1      -9.853  11.935  65.214  1.00  0.00    -0.255 C  
HETATM   42  C   UNL     1     -12.301  12.078  65.600  1.00  0.00     0.366 C  
BRANCH  37  43
HETATM   43  O   UNL     1     -10.682  12.374  67.406  1.00  0.00    -0.222 OA 
HETATM   44  C   UNL     1     -11.437  11.363  68.046  1.00  0.00    -0.307 C  
ENDBRANCH  37  43
ENDBRANCH  32  33
ENDBRANCH   9  32
BRANCH  13  45
HETATM   45  O   UNL     1      -8.012  12.036  70.758  1.00  0.00     4.103 OA 
BRANCH  45  46
HETATM   46  C   UNL     1      -8.360  13.299  70.169  1.00  0.00     3.302 C  
HETATM   47  C   UNL     1      -6.233  16.137  69.330  1.00  0.00    -0.163 C  
HETATM   48  C   UNL     1      -9.912  15.401  70.395  1.00  0.00     0.214 C  
HETATM   49  C   UNL     1      -9.617  13.933  70.762  1.00  0.00     4.398 C  
HETATM   50  C   UNL     1      -8.581  16.174  70.284  1.00  0.00     1.623 C  
HETATM   51  H   UNL     1     -11.508  13.490  70.794  1.00  0.00     0.000 HD 
HETATM   52  O   UNL     1     -10.726  13.096  70.425  1.00  0.00     1.215 OA 
HETATM   53  O   UNL     1      -7.246  14.185  70.248  1.00  0.00     0.262 OA 
HETATM   54  C   UNL     1      -7.532  15.377  69.509  1.00  0.00    -0.211 C  
BRANCH  48  55
HETATM   55  N   UNL     1     -10.823  16.034  71.411  1.00  0.00     0.210 NA 
HETATM   56  C   UNL     1     -11.415  15.070  72.336  1.00  0.00    -0.188 C  
HETATM   57  C   UNL     1     -10.263  17.160  72.151  1.00  0.00     5.735 C  
ENDBRANCH  48  55
ENDBRANCH  45  46
ENDBRANCH  13  45
ENDBRANCH   2   3
TORSDOF 7
ENDMDL
MODEL       97
REMARK 921   NORMALIZED FREE ENERGY PREDICTED BY IDOCK:   30.35 KCAL/MOL
REMARK 922        TOTAL FREE ENERGY PREDICTED BY IDOCK:   40.19 KCAL/MOL
REMARK 923 INTER-LIGAND FREE ENERGY PREDICTED BY IDOCK:   32.90 KCAL/MOL
REMARK 924 INTRA-LIGAND FREE ENERGY PREDICTED BY IDOCK:    7.30 KCAL/MOL
REMARK 927      BINDING AFFINITY PREDICTED BY RF-SCORE:    0.00 PKD
ROOT
HETATM    1  C   UNL     1     -10.302  16.136  63.110  1.00  0.00     8.809 C  
HETATM    2  C   UNL     1     -11.415  15.560  63.973  1.00  0.00     0.135 C  
ENDROOT
BRANCH   2   3
HETATM    3  C   UNL     1     -11.720  16.387  65.250  1.00  0.00     0.755 C  
HETATM    4  O   UNL     1     -12.071  15.662  66.485  1.00  0.00     0.548 OA 
HETATM    5  C   UNL     1     -11.571  14.451  66.812  1.00  0.00    -0.385 C  
HETATM    6  C   UNL     1     -12.064  13.944  68.182  1.00  0.00    -0.317 C  
HETATM    7  O   UNL     1     -10.852  13.800  66.076  1.00  0.00    -0.281 OA 
HETATM    8  C   UNL     1     -12.830  15.038  68.940  1.00  0.00     0.770 C  
HETATM    9  C   UNL     1     -10.991  13.203  69.117  1.00  0.00    -0.145 C  
HETATM   10  C   UNL     1      -6.116  17.894  65.867  1.00  0.00    -0.222 C  
HETATM   11  C   UNL     1      -9.818  12.476  68.315  1.00  0.00    -0.227 C  
HETATM   12  C   UNL     1      -8.890  17.050  68.292  1.00  0.00    -0.242 C  
HETATM   13  C   UNL     1      -8.535  11.964  69.164  1.00  0.00     0.419 C  
HETATM   14  C   UNL     1     -10.569  11.397  67.500  1.00  0.00    -0.252 C  
HETATM   15  C   UNL     1      -8.299  17.518  66.957  1.00  0.00    -0.219 C  
HETATM   16  C   UNL     1      -9.180  17.088  65.716  1.00  0.00     0.109 C  
HETATM   17  C   UNL     1      -7.135  12.794  69.449  1.00  0.00     0.186 C  
HETATM   18  C   UNL     1      -7.053  14.315  69.123  1.00  0.00    -0.117 C  
HETATM   19  C   UNL     1     -10.690  17.519  65.629  1.00  0.00    -0.089 C  
HETATM   20  C   UNL     1      -5.788  12.134  69.130  1.00  0.00    -0.070 C  
HETATM   21  H   UNL     1     -10.522  18.791  67.091  1.00  0.00     0.000 HD 
HETATM   22  O   UNL     1      -7.066  12.761  70.931  1.00  0.00     1.221 OA 
HETATM   23  C   UNL     1      -6.274  14.810  67.860  1.00  0.00    -0.171 C  
HETATM   24  H   UNL     1      -9.564  15.431  64.748  1.00  0.00     0.000 HD 
HETATM   25  N   UNL     1      -6.917  17.020  66.722  1.00  0.00    -0.209 NA 
HETATM   26  C   UNL     1      -6.710  14.191  66.539  1.00  0.00     2.803 C  
HETATM   27  H   UNL     1      -6.261  13.238  71.094  1.00  0.00     0.000 HD 
HETATM   28  C   UNL     1     -10.804  18.680  64.622  1.00  0.00     2.880 C  
HETATM   29  C   UNL     1      -6.129  16.366  67.770  1.00  0.00    -0.133 C  
HETATM   30  O   UNL     1     -11.143  18.109  66.863  1.00  0.00    -0.032 OA 
HETATM   31  O   UNL     1      -9.035  15.690  65.494  1.00  0.00    -0.051 OA 
BRANCH   9  32
HETATM   32  O   UNL     1     -11.828  12.258  69.853  1.00  0.00    -0.321 OA 
BRANCH  32  33
HETATM   33  C   UNL     1     -11.696  12.153  71.267  1.00  0.00     1.338 C  
HETATM   34  O   UNL     1     -12.199  16.153  72.592  1.00  0.00    -0.473 OA 
HETATM   35  C   UNL     1     -11.941  14.749  72.533  1.00  0.00    -0.183 C  
HETATM   36  H   UNL     1     -12.999  16.359  73.061  1.00  0.00     0.000 HD 
HETATM   37  C   UNL     1     -10.634  14.413  71.768  1.00  0.00     2.719 C  
HETATM   38  O   UNL     1     -12.891  12.565  71.944  1.00  0.00    -0.294 OA 
HETATM   39  C   UNL     1     -14.401  14.208  72.744  1.00  0.00     0.324 C  
HETATM   40  C   UNL     1     -13.129  13.968  71.931  1.00  0.00    -0.386 C  
HETATM   41  C   UNL     1     -10.477  12.879  71.838  1.00  0.00     9.989 C  
HETATM   42  C   UNL     1      -9.390  15.036  72.413  1.00  0.00     6.214 C  
BRANCH  37  43
HETATM   43  O   UNL     1     -10.697  14.746  70.369  1.00  0.00    -0.083 OA 
HETATM   44  C   UNL     1      -9.695  15.583  69.824  1.00  0.00    -0.241 C  
ENDBRANCH  37  43
ENDBRANCH  32  33
ENDBRANCH   9  32
BRANCH  13  45
HETATM   45  O   UNL     1      -8.331  10.528  69.281  1.00  0.00    -0.155 OA 
BRANCH  45  46
HETATM   46  C   UNL     1      -8.430   9.872  70.554  1.00  0.00     0.220 C  
HETATM   47  C   UNL     1      -5.800   8.933  72.897  1.00  0.00    -0.061 C  
HETATM   48  C   UNL     1      -9.350   7.752  71.795  1.00  0.00    -0.141 C  
HETATM   49  C   UNL     1      -9.387   8.681  70.564  1.00  0.00    -0.175 C  
HETATM   50  C   UNL     1      -7.898   7.640  72.304  1.00  0.00    -0.116 C  
HETATM   51  H   UNL     1     -11.302   8.441  70.354  1.00  0.00     0.000 HD 
HETATM   52  O   UNL     1     -10.707   9.181  70.348  1.00  0.00    -0.212 OA 
HETATM   53  O   UNL     1      -7.129   9.497  71.001  1.00  0.00    -0.250 OA 
HETATM   54  C   UNL     1      -7.209   9.004  72.342  1.00  0.00     0.341 C  
BRANCH  48  55
HETATM   55  N   UNL     1      -9.913   6.398  71.460  1.00  0.00    -0.180 NA 
HETATM   56  C   UNL     1     -10.964   6.444  70.446  1.00  0.00    -0.308 C  
HETATM   57  C   UNL     1      -8.935   5.369  71.123  1.00  0.00    -0.141 C  
ENDBRANCH  48  55
ENDBRANCH  45  46
ENDBRANCH  13  45
ENDBRANCH   2   3
TORSDOF 7
ENDMDL
MODEL       98
REMARK 921   NORMALIZED FREE ENERGY PREDICTED BY IDOCK:   31.27 KCAL/MOL
REMARK 922        TOTAL FREE ENERGY PREDICTED BY IDOCK:   41.49 KCAL/MOL
REMARK 923 INTER-LIGAND FREE ENERGY PREDICTED BY IDOCK:   29.37 KCAL/MOL
REMARK 924 INTRA-LIGAND FREE ENERGY PREDICTED BY IDOCK:   12.12 KCAL/MOL
REMARK 927      BINDING AFFINITY PREDICTED BY RF-SCORE:    0.00 PKD
ROOT
HETATM    1  C   UNL     1      -6.666   8.371  70.771  1.00  0.00    -0.040 C  
HETATM    2  C   UNL     1      -7.054   8.203  69.309  1.00  0.00    -0.060 C  
ENDROOT
BRANCH   2   3
HETATM    3  C   UNL     1      -8.569   7.956  69.079  1.00  0.00    -0.135 C  
HETATM    4  O   UNL     1      -9.491   9.099  69.210  1.00  0.00    -0.153 OA 
HETATM    5  C   UNL     1      -9.163  10.369  68.886  1.00  0.00    -0.177 C  
HETATM    6  C   UNL     1     -10.329  11.359  69.070  1.00  0.00    -0.166 C  
HETATM    7  O   UNL     1      -8.044  10.707  68.543  1.00  0.00    -0.111 OA 
HETATM    8  C   UNL     1     -11.645  10.626  69.365  1.00  0.00    -0.352 C  
HETATM    9  C   UNL     1     -10.511  12.491  67.947  1.00  0.00    -0.217 C  
HETATM   10  C   UNL     1      -7.792   7.225  63.342  1.00  0.00    -0.110 C  
HETATM   11  C   UNL     1      -9.156  12.903  67.209  1.00  0.00    -0.208 C  
HETATM   12  C   UNL     1     -10.510   8.800  65.444  1.00  0.00     2.154 C  
HETATM   13  C   UNL     1      -9.278  13.805  65.867  1.00  0.00     0.192 C  
HETATM   14  C   UNL     1      -8.302  13.496  68.354  1.00  0.00    -0.140 C  
HETATM   15  C   UNL     1      -9.327   7.865  65.166  1.00  0.00     0.778 C  
HETATM   16  C   UNL     1      -8.385   7.686  66.424  1.00  0.00    -0.129 C  
HETATM   17  C   UNL     1      -9.364  13.264  64.309  1.00  0.00     1.666 C  
HETATM   18  C   UNL     1      -9.614  11.753  64.023  1.00  0.00    -0.118 C  
HETATM   19  C   UNL     1      -8.971   7.155  67.783  1.00  0.00    -0.122 C  
HETATM   20  C   UNL     1      -8.395  13.825  63.261  1.00  0.00    12.674 C  
HETATM   21  H   UNL     1     -10.652   6.612  66.970  1.00  0.00     0.000 HD 
HETATM   22  O   UNL     1     -10.615  13.909  63.839  1.00  0.00    -0.468 OA 
HETATM   23  C   UNL     1      -8.439  10.837  63.544  1.00  0.00    -0.022 C  
HETATM   24  H   UNL     1      -7.063   8.766  67.379  1.00  0.00     0.000 HD 
HETATM   25  N   UNL     1      -8.480   8.316  64.029  1.00  0.00    -0.023 NA 
HETATM   26  C   UNL     1      -7.211  10.826  64.442  1.00  0.00     0.367 C  
HETATM   27  H   UNL     1     -10.665  13.597  62.943  1.00  0.00     0.000 HD 
HETATM   28  C   UNL     1      -8.562   5.677  67.942  1.00  0.00    -0.101 C  
HETATM   29  C   UNL     1      -8.886   9.395  63.127  1.00  0.00    -0.190 C  
HETATM   30  O   UNL     1     -10.410   7.095  67.751  1.00  0.00    -0.174 OA 
HETATM   31  O   UNL     1      -7.629   8.874  66.624  1.00  0.00    -0.088 OA 
BRANCH   9  32
HETATM   32  O   UNL     1     -11.081  13.596  68.716  1.00  0.00    -0.250 OA 
BRANCH  32  33
HETATM   33  C   UNL     1     -11.209  13.478  70.129  1.00  0.00     0.251 C  
HETATM   34  O   UNL     1     -12.382  17.376  71.329  1.00  0.00     2.726 OA 
HETATM   35  C   UNL     1     -11.968  16.009  71.322  1.00  0.00    -0.424 C  
HETATM   36  H   UNL     1     -13.274  17.487  71.636  1.00  0.00     0.000 HD 
HETATM   37  C   UNL     1     -10.511  15.828  70.821  1.00  0.00     0.196 C  
HETATM   38  O   UNL     1     -12.548  13.748  70.564  1.00  0.00    -0.327 OA 
HETATM   39  C   UNL     1     -14.351  15.206  71.060  1.00  0.00    -0.260 C  
HETATM   40  C   UNL     1     -12.929  15.118  70.505  1.00  0.00    -0.321 C  
HETATM   41  C   UNL     1     -10.206  14.318  70.921  1.00  0.00     2.232 C  
HETATM   42  C   UNL     1      -9.486  16.566  71.691  1.00  0.00     6.538 C  
BRANCH  37  43
HETATM   43  O   UNL     1     -10.342  16.179  69.436  1.00  0.00    -0.240 OA 
HETATM   44  C   UNL     1     -11.032  17.307  68.932  1.00  0.00     0.027 C  
ENDBRANCH  37  43
ENDBRANCH  32  33
ENDBRANCH   9  32
BRANCH  13  45
HETATM   45  O   UNL     1      -8.782  15.172  65.926  1.00  0.00     0.015 OA 
BRANCH  45  46
HETATM   46  C   UNL     1      -9.454  16.164  66.717  1.00  0.00    -0.238 C  
HETATM   47  C   UNL     1     -12.984  16.451  67.580  1.00  0.00     3.999 C  
HETATM   48  C   UNL     1      -9.877  18.737  67.002  1.00  0.00    -0.325 C  
HETATM   49  C   UNL     1      -9.024  17.597  66.409  1.00  0.00    -0.231 C  
HETATM   50  C   UNL     1     -11.360  18.312  67.007  1.00  0.00     0.775 C  
HETATM   51  H   UNL     1      -7.389  18.626  66.609  1.00  0.00     0.000 HD 
HETATM   52  O   UNL     1      -7.656  17.735  66.800  1.00  0.00    -0.192 OA 
HETATM   53  O   UNL     1     -10.865  16.006  66.585  1.00  0.00    -0.285 OA 
HETATM   54  C   UNL     1     -11.531  16.876  67.505  1.00  0.00     0.452 C  
BRANCH  48  55
HETATM   55  N   UNL     1      -9.682  20.011  66.225  1.00  0.00    -0.430 NA 
HETATM   56  C   UNL     1      -8.504  19.986  65.361  1.00  0.00     0.593 C  
HETATM   57  C   UNL     1     -10.842  20.483  65.477  1.00  0.00     0.556 C  
ENDBRANCH  48  55
ENDBRANCH  45  46
ENDBRANCH  13  45
ENDBRANCH   2   3
TORSDOF 7
ENDMDL
MODEL       99
REMARK 921   NORMALIZED FREE ENERGY PREDICTED BY IDOCK:   33.01 KCAL/MOL
REMARK 922        TOTAL FREE ENERGY PREDICTED BY IDOCK:   43.94 KCAL/MOL
REMARK 923 INTER-LIGAND FREE ENERGY PREDICTED BY IDOCK:   14.76 KCAL/MOL
REMARK 924 INTRA-LIGAND FREE ENERGY PREDICTED BY IDOCK:   29.18 KCAL/MOL
REMARK 927      BINDING AFFINITY PREDICTED BY RF-SCORE:    0.00 PKD
ROOT
HETATM    1  C   UNL     1     -10.955  17.467  69.840  1.00  0.00     0.797 C  
HETATM    2  C   UNL     1      -9.671  16.682  70.063  1.00  0.00     0.744 C  
ENDROOT
BRANCH   2   3
HETATM    3  C   UNL     1      -8.523  17.053  69.088  1.00  0.00    -0.026 C  
HETATM    4  O   UNL     1      -7.636  15.977  68.609  1.00  0.00    -0.153 OA 
HETATM    5  C   UNL     1      -8.043  14.706  68.400  1.00  0.00    -0.147 C  
HETATM    6  C   UNL     1      -6.926  13.797  67.851  1.00  0.00    -0.158 C  
HETATM    7  O   UNL     1      -9.160  14.306  68.674  1.00  0.00    -0.195 OA 
HETATM    8  C   UNL     1      -5.682  14.610  67.466  1.00  0.00     0.134 C  
HETATM    9  C   UNL     1      -7.335  12.746  66.709  1.00  0.00     0.456 C  
HETATM   10  C   UNL     1     -12.268  18.042  64.723  1.00  0.00     6.665 C  
HETATM   11  C   UNL     1      -8.859  12.276  66.770  1.00  0.00    -0.195 C  
HETATM   12  C   UNL     1      -8.796  16.560  64.919  1.00  0.00     3.467 C  
HETATM   13  C   UNL     1      -9.443  11.461  65.495  1.00  0.00    -0.227 C  
HETATM   14  C   UNL     1      -8.949  11.558  68.136  1.00  0.00    -0.172 C  
HETATM   15  C   UNL     1      -9.976  17.418  65.392  1.00  0.00     0.425 C  
HETATM   16  C   UNL     1     -10.106  17.457  66.968  1.00  0.00    -0.313 C  
HETATM   17  C   UNL     1     -10.221  12.092  64.181  1.00  0.00    -0.343 C  
HETATM   18  C   UNL     1     -10.213  13.632  63.939  1.00  0.00     0.982 C  
HETATM   19  C   UNL     1      -8.902  17.954  67.851  1.00  0.00    -0.260 C  
HETATM   20  C   UNL     1     -11.581  11.520  63.762  1.00  0.00    -0.329 C  
HETATM   21  H   UNL     1      -7.935  18.665  66.320  1.00  0.00     0.000 HD 
HETATM   22  O   UNL     1      -9.394  11.570  63.066  1.00  0.00    -0.457 OA 
HETATM   23  C   UNL     1     -11.492  14.483  64.237  1.00  0.00    -0.194 C  
HETATM   24  H   UNL     1     -10.675  16.229  68.381  1.00  0.00     0.000 HD 
HETATM   25  N   UNL     1     -11.284  16.969  64.844  1.00  0.00    -0.662 NA 
HETATM   26  C   UNL     1     -12.050  14.352  65.647  1.00  0.00    -0.359 C  
HETATM   27  H   UNL     1      -9.841  11.934  62.311  1.00  0.00     0.000 HD 
HETATM   28  C   UNL     1      -9.212  19.386  68.329  1.00  0.00    -0.402 C  
HETATM   29  C   UNL     1     -11.386  15.975  63.773  1.00  0.00     1.015 C  
HETATM   30  O   UNL     1      -7.706  18.122  67.066  1.00  0.00    -0.211 OA 
HETATM   31  O   UNL     1     -10.597  16.206  67.435  1.00  0.00    -0.306 OA 
BRANCH   9  32
HETATM   32  O   UNL     1      -6.406  11.646  66.960  1.00  0.00    -0.122 OA 
BRANCH  32  33
HETATM   33  C   UNL     1      -5.986  11.368  68.292  1.00  0.00    -0.045 C  
HETATM   34  O   UNL     1      -8.429   8.085  69.417  1.00  0.00    -0.129 OA 
HETATM   35  C   UNL     1      -7.499   9.169  69.424  1.00  0.00    -0.077 C  
HETATM   36  H   UNL     1      -8.006   7.239  69.509  1.00  0.00     0.000 HD 
HETATM   37  C   UNL     1      -8.189  10.550  69.274  1.00  0.00    -0.145 C  
HETATM   38  O   UNL     1      -5.443  10.047  68.412  1.00  0.00    -0.039 OA 
HETATM   39  C   UNL     1      -5.644   7.688  68.553  1.00  0.00    -0.027 C  
HETATM   40  C   UNL     1      -6.404   8.999  68.348  1.00  0.00    -0.054 C  
HETATM   41  C   UNL     1      -7.065  11.604  69.350  1.00  0.00    -0.007 C  
HETATM   42  C   UNL     1      -9.180  10.846  70.407  1.00  0.00     2.069 C  
BRANCH  37  43
HETATM   43  O   UNL     1      -8.820  10.730  67.993  1.00  0.00    -0.127 OA 
HETATM   44  C   UNL     1      -9.797   9.794  67.579  1.00  0.00    -0.167 C  
ENDBRANCH  37  43
ENDBRANCH  32  33
ENDBRANCH   9  32
BRANCH  13  45
HETATM   45  O   UNL     1      -9.785  10.060  65.688  1.00  0.00    -0.230 OA 
BRANCH  45  46
HETATM   46  C   UNL     1      -8.778   9.039  65.601  1.00  0.00    -0.175 C  
HETATM   47  C   UNL     1      -5.348   9.254  64.386  1.00  0.00    -0.055 C  
HETATM   48  C   UNL     1      -8.239   6.650  64.662  1.00  0.00    -0.034 C  
HETATM   49  C   UNL     1      -9.291   7.710  65.050  1.00  0.00     1.063 C  
HETATM   50  C   UNL     1      -7.000   7.356  64.074  1.00  0.00    -0.058 C  
HETATM   51  H   UNL     1     -10.538   6.349  65.654  1.00  0.00     0.000 HD 
HETATM   52  O   UNL     1     -10.220   7.176  65.996  1.00  0.00     0.290 OA 
HETATM   53  O   UNL     1      -7.672   9.523  64.843  1.00  0.00    -0.107 OA 
HETATM   54  C   UNL     1      -6.600   8.576  64.905  1.00  0.00    -0.068 C  
BRANCH  48  55
HETATM   55  N   UNL     1      -8.813   5.660  63.686  1.00  0.00     0.200 NA 
HETATM   56  C   UNL     1      -8.960   4.318  64.243  1.00  0.00    -0.148 C  
HETATM   57  C   UNL     1     -10.047   6.065  63.022  1.00  0.00     3.375 C  
ENDBRANCH  48  55
ENDBRANCH  45  46
ENDBRANCH  13  45
ENDBRANCH   2   3
TORSDOF 7
ENDMDL
MODEL      100
REMARK 921   NORMALIZED FREE ENERGY PREDICTED BY IDOCK:   33.22 KCAL/MOL
REMARK 922        TOTAL FREE ENERGY PREDICTED BY IDOCK:   44.23 KCAL/MOL
REMARK 923 INTER-LIGAND FREE ENERGY PREDICTED BY IDOCK:   20.36 KCAL/MOL
REMARK 924 INTRA-LIGAND FREE ENERGY PREDICTED BY IDOCK:   23.87 KCAL/MOL
REMARK 927      BINDING AFFINITY PREDICTED BY RF-SCORE:    0.00 PKD
ROOT
HETATM    1  C   UNL     1     -13.421   7.995  70.151  1.00  0.00     2.154 C  
HETATM    2  C   UNL     1     -13.305   7.347  68.778  1.00  0.00     9.903 C  
ENDROOT
BRANCH   2   3
HETATM    3  C   UNL     1     -12.116   6.360  68.641  1.00  0.00     2.210 C  
HETATM    4  O   UNL     1     -11.158   6.568  67.540  1.00  0.00    -0.341 OA 
HETATM    5  C   UNL     1     -10.823   7.784  67.056  1.00  0.00    -0.106 C  
HETATM    6  C   UNL     1      -9.762   7.718  65.941  1.00  0.00     0.217 C  
HETATM    7  O   UNL     1     -11.349   8.820  67.422  1.00  0.00     0.463 OA 
HETATM    8  C   UNL     1      -9.181   6.304  65.804  1.00  0.00     0.013 C  
HETATM    9  C   UNL     1      -8.614   8.840  65.957  1.00  0.00    -0.148 C  
HETATM   10  C   UNL     1      -9.511   8.506  73.401  1.00  0.00     0.294 C  
HETATM   11  C   UNL     1      -9.059  10.220  66.626  1.00  0.00    -0.163 C  
HETATM   12  C   UNL     1      -8.255   7.194  70.087  1.00  0.00    -0.135 C  
HETATM   13  C   UNL     1      -7.897  11.300  66.962  1.00  0.00    -0.150 C  
HETATM   14  C   UNL     1     -10.194  10.708  65.695  1.00  0.00    -0.319 C  
HETATM   15  C   UNL     1      -9.256   7.345  71.238  1.00  0.00    -0.150 C  
HETATM   16  C   UNL     1     -10.759   7.297  70.748  1.00  0.00    -0.231 C  
HETATM   17  C   UNL     1      -7.072  11.464  68.383  1.00  0.00    -0.079 C  
HETATM   18  C   UNL     1      -7.178  10.358  69.476  1.00  0.00    -0.130 C  
HETATM   19  C   UNL     1     -11.292   6.051  69.949  1.00  0.00    -0.285 C  
HETATM   20  C   UNL     1      -7.000  12.839  69.060  1.00  0.00    -0.059 C  
HETATM   21  H   UNL     1      -9.723   4.979  70.363  1.00  0.00     0.000 HD 
HETATM   22  O   UNL     1      -5.665  11.355  67.926  1.00  0.00    -0.043 OA 
HETATM   23  C   UNL     1      -8.047  10.594  70.755  1.00  0.00     2.359 C  
HETATM   24  H   UNL     1     -11.981   8.480  69.781  1.00  0.00     0.000 HD 
HETATM   25  N   UNL     1      -9.074   8.603  72.010  1.00  0.00    -0.277 NA 
HETATM   26  C   UNL     1      -9.499  10.973  70.498  1.00  0.00     2.710 C  
HETATM   27  H   UNL     1      -5.191  11.449  68.744  1.00  0.00     0.000 HD 
HETATM   28  C   UNL     1     -12.141   5.190  70.904  1.00  0.00     3.236 C  
HETATM   29  C   UNL     1      -7.907   9.470  71.836  1.00  0.00     1.154 C  
HETATM   30  O   UNL     1     -10.219   5.165  69.575  1.00  0.00    -0.234 OA 
HETATM   31  O   UNL     1     -11.078   8.509  70.076  1.00  0.00    -0.236 OA 
BRANCH   9  32
HETATM   32  O   UNL     1      -8.309   8.986  64.536  1.00  0.00    -0.158 OA 
BRANCH  32  33
HETATM   33  C   UNL     1      -7.333   8.142  63.934  1.00  0.00    -0.101 C  
HETATM   34  O   UNL     1      -7.372   4.693  66.405  1.00  0.00    -0.078 OA 
HETATM   35  C   UNL     1      -7.047   5.662  65.408  1.00  0.00    -0.066 C  
HETATM   36  H   UNL     1      -7.739   3.897  66.037  1.00  0.00     0.000 HD 
HETATM   37  C   UNL     1      -6.449   6.961  66.010  1.00  0.00    -0.051 C  
HETATM   38  O   UNL     1      -7.905   6.910  63.477  1.00  0.00    -0.117 OA 
HETATM   39  C   UNL     1      -8.790   4.738  63.828  1.00  0.00    -0.106 C  
HETATM   40  C   UNL     1      -8.259   5.998  64.512  1.00  0.00    -0.095 C  
HETATM   41  C   UNL     1      -6.110   7.874  64.813  1.00  0.00    -0.045 C  
HETATM   42  C   UNL     1      -5.149   6.713  66.786  1.00  0.00    -0.009 C  
BRANCH  37  43
HETATM   43  O   UNL     1      -7.387   7.694  66.819  1.00  0.00    -0.085 OA 
HETATM   44  C   UNL     1      -6.907   8.396  67.950  1.00  0.00    -0.067 C  
ENDBRANCH  37  43
ENDBRANCH  32  33
ENDBRANCH   9  32
BRANCH  13  45
HETATM   45  O   UNL     1      -7.883  12.537  66.197  1.00  0.00     0.641 OA 
BRANCH  45  46
HETATM   46  C   UNL     1      -9.000  13.439  66.237  1.00  0.00     0.132 C  
HETATM   47  C   UNL     1     -11.466  14.203  63.664  1.00  0.00     0.479 C  
HETATM   48  C   UNL     1      -9.725  15.916  66.704  1.00  0.00    -0.253 C  
HETATM   49  C   UNL     1      -8.679  14.794  66.866  1.00  0.00    -0.236 C  
HETATM   50  C   UNL     1     -10.391  15.795  65.318  1.00  0.00    -0.387 C  
HETATM   51  H   UNL     1      -8.184  15.416  68.637  1.00  0.00     0.000 HD 
HETATM   52  O   UNL     1      -8.383  14.574  68.246  1.00  0.00    -0.138 OA 
HETATM   53  O   UNL     1      -9.540  13.590  64.926  1.00  0.00     0.059 OA 
HETATM   54  C   UNL     1     -10.753  14.346  64.994  1.00  0.00    -0.423 C  
BRANCH  48  55
HETATM   55  N   UNL     1      -9.090  17.268  66.884  1.00  0.00    -0.229 NA 
HETATM   56  C   UNL     1      -8.212  17.344  68.050  1.00  0.00    -0.229 C  
HETATM   57  C   UNL     1      -8.415  17.813  65.712  1.00  0.00     0.293 C  
ENDBRANCH  48  55
ENDBRANCH  45  46
ENDBRANCH  13  45
ENDBRANCH   2   3
TORSDOF 7
ENDMDL
MODEL      101
REMARK 921   NORMALIZED FREE ENERGY PREDICTED BY IDOCK:   34.62 KCAL/MOL
REMARK 922        TOTAL FREE ENERGY PREDICTED BY IDOCK:   46.21 KCAL/MOL
REMARK 923 INTER-LIGAND FREE ENERGY PREDICTED BY IDOCK:   38.32 KCAL/MOL
REMARK 924 INTRA-LIGAND FREE ENERGY PREDICTED BY IDOCK:    7.89 KCAL/MOL
REMARK 927      BINDING AFFINITY PREDICTED BY RF-SCORE:    0.00 PKD
ROOT
HETATM    1  C   UNL     1      -5.512   6.304  68.934  1.00  0.00    -0.015 C  
HETATM    2  C   UNL     1      -5.393   4.918  68.317  1.00  0.00    -0.011 C  
ENDROOT
BRANCH   2   3
HETATM    3  C   UNL     1      -6.736   4.147  68.223  1.00  0.00    -0.047 C  
HETATM    4  O   UNL     1      -7.978   4.861  68.572  1.00  0.00    -0.084 OA 
HETATM    5  C   UNL     1      -8.172   6.180  68.354  1.00  0.00    -0.115 C  
HETATM    6  C   UNL     1      -9.577   6.659  68.765  1.00  0.00    -0.131 C  
HETATM    7  O   UNL     1      -7.305   6.925  67.933  1.00  0.00    -0.092 OA 
HETATM    8  C   UNL     1     -10.491   5.477  69.117  1.00  0.00    -0.315 C  
HETATM    9  C   UNL     1     -10.303   7.712  67.796  1.00  0.00    -0.219 C  
HETATM   10  C   UNL     1      -6.547   4.106  62.391  1.00  0.00    -0.022 C  
HETATM   11  C   UNL     1      -9.299   8.637  66.968  1.00  0.00    -0.202 C  
HETATM   12  C   UNL     1      -9.331   4.441  64.925  1.00  0.00    -0.163 C  
HETATM   13  C   UNL     1      -9.918   9.512  65.751  1.00  0.00    -0.245 C  
HETATM   14  C   UNL     1      -8.564   9.431  68.072  1.00  0.00    -0.120 C  
HETATM   15  C   UNL     1      -7.943   4.025  64.425  1.00  0.00    -0.086 C  
HETATM   16  C   UNL     1      -6.835   4.127  65.549  1.00  0.00    -0.057 C  
HETATM   17  C   UNL     1     -10.020   9.075  64.161  1.00  0.00     2.349 C  
HETATM   18  C   UNL     1      -9.751   7.598  63.743  1.00  0.00     4.213 C  
HETATM   19  C   UNL     1      -7.000   3.335  66.899  1.00  0.00    -0.054 C  
HETATM   20  C   UNL     1      -9.468  10.015  63.083  1.00  0.00    -0.229 C  
HETATM   21  H   UNL     1      -8.472   2.264  66.214  1.00  0.00     0.000 HD 
HETATM   22  O   UNL     1     -11.470   9.243  63.898  1.00  0.00     7.067 OA 
HETATM   23  C   UNL     1      -8.405   7.209  63.047  1.00  0.00     0.155 C  
HETATM   24  H   UNL     1      -5.867   5.556  66.471  1.00  0.00     0.000 HD 
HETATM   25  N   UNL     1      -7.476   4.824  63.260  1.00  0.00    -0.053 NA 
HETATM   26  C   UNL     1      -7.142   7.594  63.804  1.00  0.00    -0.066 C  
HETATM   27  H   UNL     1     -11.528   8.990  62.984  1.00  0.00     0.000 HD 
HETATM   28  C   UNL     1      -6.074   2.104  66.854  1.00  0.00    -0.023 C  
HETATM   29  C   UNL     1      -8.361   5.732  62.527  1.00  0.00    -0.079 C  
HETATM   30  O   UNL     1      -8.313   2.753  67.012  1.00  0.00    -0.086 OA 
HETATM   31  O   UNL     1      -6.532   5.495  65.795  1.00  0.00    -0.038 OA 
BRANCH   9  32
HETATM   32  O   UNL     1     -11.118   8.481  68.735  1.00  0.00     0.083 OA 
BRANCH  32  33
HETATM   33  C   UNL     1     -10.565   9.630  69.370  1.00  0.00    -0.225 C  
HETATM   34  O   UNL     1     -10.071   8.374  73.393  1.00  0.00     0.085 OA 
HETATM   35  C   UNL     1     -10.128   9.150  72.195  1.00  0.00     0.148 C  
HETATM   36  H   UNL     1      -9.182   8.241  73.702  1.00  0.00     0.000 HD 
HETATM   37  C   UNL     1     -11.579   9.366  71.691  1.00  0.00    -0.396 C  
HETATM   38  O   UNL     1      -9.264   9.363  69.908  1.00  0.00    -0.175 OA 
HETATM   39  C   UNL     1      -7.801   8.427  71.522  1.00  0.00    -0.146 C  
HETATM   40  C   UNL     1      -9.257   8.544  71.073  1.00  0.00    -0.182 C  
HETATM   41  C   UNL     1     -11.470  10.253  70.434  1.00  0.00    -0.415 C  
HETATM   42  C   UNL     1     -12.458  10.107  72.707  1.00  0.00     1.544 C  
BRANCH  37  43
HETATM   43  O   UNL     1     -12.217   8.147  71.268  1.00  0.00    -0.300 OA 
HETATM   44  C   UNL     1     -13.284   8.225  70.342  1.00  0.00     1.249 C  
ENDBRANCH  37  43
ENDBRANCH  32  33
ENDBRANCH   9  32
BRANCH  13  45
HETATM   45  O   UNL     1      -9.940  10.959  65.903  1.00  0.00    -0.223 OA 
BRANCH  45  46
HETATM   46  C   UNL     1     -10.480  11.799  64.871  1.00  0.00    -0.287 C  
HETATM   47  C   UNL     1      -8.766  14.036  62.558  1.00  0.00    16.729 C  
HETATM   48  C   UNL     1     -12.209  13.704  64.359  1.00  0.00    -0.390 C  
HETATM   49  C   UNL     1     -11.725  12.577  65.294  1.00  0.00    -0.386 C  
HETATM   50  C   UNL     1     -10.987  14.399  63.725  1.00  0.00     1.137 C  
HETATM   51  H   UNL     1     -13.544  12.115  65.793  1.00  0.00     0.000 HD 
HETATM   52  O   UNL     1     -12.770  11.632  65.529  1.00  0.00     0.758 OA 
HETATM   53  O   UNL     1      -9.463  12.672  64.385  1.00  0.00     0.175 OA 
HETATM   54  C   UNL     1      -9.950  13.384  63.242  1.00  0.00     3.245 C  
BRANCH  48  55
HETATM   55  N   UNL     1     -13.065  14.689  65.107  1.00  0.00    -0.305 NA 
HETATM   56  C   UNL     1     -12.300  15.561  65.996  1.00  0.00     1.107 C  
HETATM   57  C   UNL     1     -13.980  15.482  64.294  1.00  0.00     4.262 C  
ENDBRANCH  48  55
ENDBRANCH  45  46
ENDBRANCH  13  45
ENDBRANCH   2   3
TORSDOF 7
ENDMDL
MODEL      102
REMARK 921   NORMALIZED FREE ENERGY PREDICTED BY IDOCK:   35.58 KCAL/MOL
REMARK 922        TOTAL FREE ENERGY PREDICTED BY IDOCK:   47.56 KCAL/MOL
REMARK 923 INTER-LIGAND FREE ENERGY PREDICTED BY IDOCK:   36.55 KCAL/MOL
REMARK 924 INTRA-LIGAND FREE ENERGY PREDICTED BY IDOCK:   11.01 KCAL/MOL
REMARK 927      BINDING AFFINITY PREDICTED BY RF-SCORE:    0.00 PKD
ROOT
HETATM    1  C   UNL     1     -10.422  10.655  71.622  1.00  0.00     3.710 C  
HETATM    2  C   UNL     1     -10.108   9.183  71.849  1.00  0.00    -0.196 C  
ENDROOT
BRANCH   2   3
HETATM    3  C   UNL     1      -8.715   8.743  71.325  1.00  0.00    -0.215 C  
HETATM    4  O   UNL     1      -8.385   9.004  69.912  1.00  0.00    -0.116 OA 
HETATM    5  C   UNL     1      -8.836  10.074  69.221  1.00  0.00    -0.178 C  
HETATM    6  C   UNL     1      -8.298  10.131  67.779  1.00  0.00    -0.114 C  
HETATM    7  O   UNL     1      -9.633  10.878  69.673  1.00  0.00     0.032 OA 
HETATM    8  C   UNL     1      -7.206   9.078  67.547  1.00  0.00    -0.080 C  
HETATM    9  C   UNL     1      -7.874  11.571  67.212  1.00  0.00    -0.153 C  
HETATM   10  C   UNL     1      -6.020  12.940  74.355  1.00  0.00     1.071 C  
HETATM   11  C   UNL     1      -8.665  12.791  67.872  1.00  0.00    -0.185 C  
HETATM   12  C   UNL     1      -5.459  11.382  70.957  1.00  0.00    -0.065 C  
HETATM   13  C   UNL     1      -8.104  14.287  67.594  1.00  0.00    -0.179 C  
HETATM   14  C   UNL     1     -10.130  12.524  67.454  1.00  0.00    -0.211 C  
HETATM   15  C   UNL     1      -5.975  11.433  72.400  1.00  0.00     2.169 C  
HETATM   16  C   UNL     1      -7.348  10.669  72.583  1.00  0.00     6.685 C  
HETATM   17  C   UNL     1      -7.039  15.139  68.524  1.00  0.00    -0.110 C  
HETATM   18  C   UNL     1      -6.251  14.420  69.661  1.00  0.00    -0.126 C  
HETATM   19  C   UNL     1      -7.466   9.149  72.197  1.00  0.00     0.468 C  
HETATM   20  C   UNL     1      -7.400  16.559  68.977  1.00  0.00    -0.228 C  
HETATM   21  H   UNL     1      -5.541   8.933  72.023  1.00  0.00     0.000 HD 
HETATM   22  O   UNL     1      -5.982  15.471  67.538  1.00  0.00    -0.232 OA 
HETATM   23  C   UNL     1      -6.657  14.634  71.157  1.00  0.00     0.512 C  
HETATM   24  H   UNL     1      -9.221  10.969  72.103  1.00  0.00     0.000 HD 
HETATM   25  N   UNL     1      -6.161  12.820  72.906  1.00  0.00     2.172 NA 
HETATM   26  C   UNL     1      -8.111  14.328  71.489  1.00  0.00     5.223 C  
HETATM   27  H   UNL     1      -5.368  15.961  68.073  1.00  0.00     0.000 HD 
HETATM   28  C   UNL     1      -7.449   8.317  73.495  1.00  0.00    -0.175 C  
HETATM   29  C   UNL     1      -5.664  13.993  72.183  1.00  0.00    -0.072 C  
HETATM   30  O   UNL     1      -6.293   8.689  71.498  1.00  0.00    -0.054 OA 
HETATM   31  O   UNL     1      -8.396  11.428  71.992  1.00  0.00    10.701 OA 
BRANCH   9  32
HETATM   32  O   UNL     1      -8.157  11.435  65.785  1.00  0.00     0.020 OA 
BRANCH  32  33
HETATM   33  C   UNL     1      -9.426  10.946  65.362  1.00  0.00    -0.214 C  
HETATM   34  O   UNL     1      -8.726   6.804  64.764  1.00  0.00    -0.350 OA 
HETATM   35  C   UNL     1      -9.317   8.104  64.805  1.00  0.00     1.086 C  
HETATM   36  H   UNL     1      -9.122   6.202  65.383  1.00  0.00     0.000 HD 
HETATM   37  C   UNL     1      -8.670   9.087  63.794  1.00  0.00    -0.075 C  
HETATM   38  O   UNL     1      -9.948   9.968  66.271  1.00  0.00    -0.218 OA 
HETATM   39  C   UNL     1     -10.023   7.793  67.213  1.00  0.00    -0.277 C  
HETATM   40  C   UNL     1      -9.292   8.705  66.227  1.00  0.00    -0.220 C  
HETATM   41  C   UNL     1      -9.446  10.414  63.929  1.00  0.00    -0.354 C  
HETATM   42  C   UNL     1      -8.802   8.618  62.340  1.00  0.00    -0.033 C  
BRANCH  37  43
HETATM   43  O   UNL     1      -7.298   9.393  64.103  1.00  0.00    -0.100 OA 
HETATM   44  C   UNL     1      -6.525  10.093  63.146  1.00  0.00    -0.138 C  
ENDBRANCH  37  43
ENDBRANCH  32  33
ENDBRANCH   9  32
BRANCH  13  45
HETATM   45  O   UNL     1      -8.922  15.173  66.779  1.00  0.00    -0.229 OA 
BRANCH  45  46
HETATM   46  C   UNL     1      -9.635  16.269  67.373  1.00  0.00    -0.230 C  
HETATM   47  C   UNL     1     -12.755  16.263  69.257  1.00  0.00     1.474 C  
HETATM   48  C   UNL     1     -10.714  18.614  66.908  1.00  0.00    -0.309 C  
HETATM   49  C   UNL     1      -9.739  17.500  66.474  1.00  0.00    -0.295 C  
HETATM   50  C   UNL     1     -11.953  17.976  67.569  1.00  0.00     2.562 C  
HETATM   51  H   UNL     1      -8.486  18.788  65.738  1.00  0.00     0.000 HD 
HETATM   52  O   UNL     1      -8.421  18.022  66.297  1.00  0.00    -0.382 OA 
HETATM   53  O   UNL     1     -10.921  15.827  67.799  1.00  0.00    -0.309 OA 
HETATM   54  C   UNL     1     -11.561  16.867  68.545  1.00  0.00     0.360 C  
BRANCH  48  55
HETATM   55  N   UNL     1     -11.106  19.468  65.733  1.00  0.00    -0.198 NA 
HETATM   56  C   UNL     1     -10.141  20.526  65.440  1.00  0.00     0.484 C  
HETATM   57  C   UNL     1     -11.448  18.749  64.511  1.00  0.00     4.437 C  
ENDBRANCH  48  55
ENDBRANCH  45  46
ENDBRANCH  13  45
ENDBRANCH   2   3
TORSDOF 7
ENDMDL
MODEL      103
REMARK 921   NORMALIZED FREE ENERGY PREDICTED BY IDOCK:   36.35 KCAL/MOL
REMARK 922        TOTAL FREE ENERGY PREDICTED BY IDOCK:   48.64 KCAL/MOL
REMARK 923 INTER-LIGAND FREE ENERGY PREDICTED BY IDOCK:   44.12 KCAL/MOL
REMARK 924 INTRA-LIGAND FREE ENERGY PREDICTED BY IDOCK:    4.53 KCAL/MOL
REMARK 927      BINDING AFFINITY PREDICTED BY RF-SCORE:    0.00 PKD
ROOT
HETATM    1  C   UNL     1      -6.081   4.384  69.911  1.00  0.00    -0.019 C  
HETATM    2  C   UNL     1      -6.514   5.843  69.952  1.00  0.00    -0.038 C  
ENDROOT
BRANCH   2   3
HETATM    3  C   UNL     1      -7.044   6.309  71.334  1.00  0.00    -0.078 C  
HETATM    4  O   UNL     1      -6.701   7.668  71.792  1.00  0.00    -0.048 OA 
HETATM    5  C   UNL     1      -6.546   8.723  70.962  1.00  0.00    -0.060 C  
HETATM    6  C   UNL     1      -6.240  10.036  71.707  1.00  0.00     0.453 C  
HETATM    7  O   UNL     1      -6.585   8.633  69.748  1.00  0.00    -0.041 OA 
HETATM    8  C   UNL     1      -6.404   9.870  73.225  1.00  0.00     1.240 C  
HETATM    9  C   UNL     1      -6.956  11.367  71.167  1.00  0.00     3.135 C  
HETATM   10  C   UNL     1     -12.518   6.669  69.346  1.00  0.00     2.097 C  
HETATM   11  C   UNL     1      -7.303  11.335  69.609  1.00  0.00     0.096 C  
HETATM   12  C   UNL     1     -10.475   8.699  71.793  1.00  0.00    -0.394 C  
HETATM   13  C   UNL     1      -8.288  12.490  69.037  1.00  0.00     0.417 C  
HETATM   14  C   UNL     1      -5.911  11.237  68.944  1.00  0.00    -0.043 C  
HETATM   15  C   UNL     1     -10.849   7.449  70.988  1.00  0.00    -0.239 C  
HETATM   16  C   UNL     1      -9.584   6.608  70.547  1.00  0.00    -0.169 C  
HETATM   17  C   UNL     1      -9.931  12.411  68.884  1.00  0.00     0.079 C  
HETATM   18  C   UNL     1     -10.720  11.251  69.564  1.00  0.00    -0.147 C  
HETATM   19  C   UNL     1      -8.574   6.071  71.627  1.00  0.00    -0.131 C  
HETATM   20  C   UNL     1     -10.580  12.743  67.535  1.00  0.00    -0.240 C  
HETATM   21  H   UNL     1      -9.770   6.481  73.105  1.00  0.00     0.000 HD 
HETATM   22  O   UNL     1     -10.359  13.607  69.650  1.00  0.00    -0.289 OA 
HETATM   23  C   UNL     1     -11.277  10.068  68.706  1.00  0.00    -0.173 C  
HETATM   24  H   UNL     1      -8.139   6.787  69.240  1.00  0.00     0.000 HD 
HETATM   25  N   UNL     1     -11.635   7.755  69.762  1.00  0.00     0.198 NA 
HETATM   26  C   UNL     1     -10.249   9.339  67.852  1.00  0.00    -0.263 C  
HETATM   27  H   UNL     1     -11.304  13.560  69.562  1.00  0.00     0.000 HD 
HETATM   28  C   UNL     1      -8.834   4.564  71.825  1.00  0.00    -0.140 C  
HETATM   29  C   UNL     1     -12.197   9.082  69.502  1.00  0.00     1.501 C  
HETATM   30  O   UNL     1      -8.848   6.625  72.928  1.00  0.00    -0.126 OA 
HETATM   31  O   UNL     1      -8.899   7.292  69.505  1.00  0.00    -0.137 OA 
BRANCH   9  32
HETATM   32  O   UNL     1      -5.974  12.398  71.495  1.00  0.00    -0.082 OA 
BRANCH  32  33
HETATM   33  C   UNL     1      -6.101  13.131  72.710  1.00  0.00     2.019 C  
HETATM   34  O   UNL     1      -8.132  16.659  71.514  1.00  0.00     6.905 OA 
HETATM   35  C   UNL     1      -7.425  15.670  72.264  1.00  0.00     6.730 C  
HETATM   36  H   UNL     1      -9.033  16.761  71.799  1.00  0.00     0.000 HD 
HETATM   37  C   UNL     1      -5.955  15.504  71.799  1.00  0.00     0.955 C  
HETATM   38  O   UNL     1      -7.474  13.348  73.057  1.00  0.00     5.975 OA 
HETATM   39  C   UNL     1      -9.565  14.439  72.807  1.00  0.00     7.809 C  
HETATM   40  C   UNL     1      -8.149  14.306  72.248  1.00  0.00     7.279 C  
HETATM   41  C   UNL     1      -5.325  14.448  72.731  1.00  0.00    -0.191 C  
HETATM   42  C   UNL     1      -5.137  16.794  71.939  1.00  0.00     0.584 C  
BRANCH  37  43
HETATM   43  O   UNL     1      -5.841  14.978  70.464  1.00  0.00    -0.141 OA 
HETATM   44  C   UNL     1      -5.806  15.883  69.377  1.00  0.00    -0.127 C  
ENDBRANCH  37  43
ENDBRANCH  32  33
ENDBRANCH   9  32
BRANCH  13  45
HETATM   45  O   UNL     1      -7.719  13.472  68.127  1.00  0.00    -0.115 OA 
BRANCH  45  46
HETATM   46  C   UNL     1      -7.996  14.872  68.289  1.00  0.00    -0.130 C  
HETATM   47  C   UNL     1     -10.373  16.531  70.499  1.00  0.00     0.699 C  
HETATM   48  C   UNL     1      -8.671  17.073  67.032  1.00  0.00    -0.221 C  
HETATM   49  C   UNL     1      -8.108  15.638  66.972  1.00  0.00    -0.241 C  
HETATM   50  C   UNL     1      -9.768  17.143  68.115  1.00  0.00    -0.276 C  
HETATM   51  H   UNL     1      -6.890  16.103  65.533  1.00  0.00     0.000 HD 
HETATM   52  O   UNL     1      -6.821  15.627  66.352  1.00  0.00     0.265 OA 
HETATM   53  O   UNL     1      -9.165  15.038  69.087  1.00  0.00    -0.203 OA 
HETATM   54  C   UNL     1      -9.340  16.425  69.395  1.00  0.00    -0.090 C  
BRANCH  48  55
HETATM   55  N   UNL     1      -9.207  17.493  65.690  1.00  0.00    -0.299 NA 
HETATM   56  C   UNL     1     -10.183  16.555  65.138  1.00  0.00     0.118 C  
HETATM   57  C   UNL     1      -9.721  18.856  65.610  1.00  0.00     0.453 C  
ENDBRANCH  48  55
ENDBRANCH  45  46
ENDBRANCH  13  45
ENDBRANCH   2   3
TORSDOF 7
ENDMDL
MODEL      104
REMARK 921   NORMALIZED FREE ENERGY PREDICTED BY IDOCK:   39.13 KCAL/MOL
REMARK 922        TOTAL FREE ENERGY PREDICTED BY IDOCK:   52.57 KCAL/MOL
REMARK 923 INTER-LIGAND FREE ENERGY PREDICTED BY IDOCK:   17.07 KCAL/MOL
REMARK 924 INTRA-LIGAND FREE ENERGY PREDICTED BY IDOCK:   35.50 KCAL/MOL
REMARK 927      BINDING AFFINITY PREDICTED BY RF-SCORE:    0.00 PKD
ROOT
HETATM    1  C   UNL     1      -9.919  13.745  70.639  1.00  0.00     3.543 C  
HETATM    2  C   UNL     1      -9.977  15.215  70.249  1.00  0.00     0.125 C  
ENDROOT
BRANCH   2   3
HETATM    3  C   UNL     1      -8.857  15.656  69.269  1.00  0.00    -0.264 C  
HETATM    4  O   UNL     1      -8.104  14.611  68.552  1.00  0.00    -0.133 OA 
HETATM    5  C   UNL     1      -8.641  13.434  68.161  1.00  0.00    -0.174 C  
HETATM    6  C   UNL     1      -7.648  12.547  67.385  1.00  0.00    -0.156 C  
HETATM    7  O   UNL     1      -9.773  13.085  68.444  1.00  0.00    -0.227 OA 
HETATM    8  C   UNL     1      -6.357  13.309  67.053  1.00  0.00     0.690 C  
HETATM    9  C   UNL     1      -8.218  11.750  66.114  1.00  0.00     0.159 C  
HETATM   10  C   UNL     1     -12.740  17.700  65.422  1.00  0.00     8.863 C  
HETATM   11  C   UNL     1      -9.774  11.404  66.205  1.00  0.00    -0.239 C  
HETATM   12  C   UNL     1      -9.417  15.926  65.109  1.00  0.00     0.600 C  
HETATM   13  C   UNL     1     -10.505  10.876  64.857  1.00  0.00    -0.282 C  
HETATM   14  C   UNL     1      -9.852  10.467  67.433  1.00  0.00    -0.204 C  
HETATM   15  C   UNL     1     -10.481  16.782  65.806  1.00  0.00    -0.292 C  
HETATM   16  C   UNL     1     -10.516  16.554  67.371  1.00  0.00    -0.310 C  
HETATM   17  C   UNL     1     -11.294  11.790  63.730  1.00  0.00    -0.438 C  
HETATM   18  C   UNL     1     -11.156  13.342  63.753  1.00  0.00    -0.066 C  
HETATM   19  C   UNL     1      -9.222  16.787  68.234  1.00  0.00    -0.227 C  
HETATM   20  C   UNL     1     -12.724  11.414  63.321  1.00  0.00     0.366 C  
HETATM   21  H   UNL     1      -8.282  17.674  66.780  1.00  0.00     0.000 HD 
HETATM   22  O   UNL     1     -10.586  11.405  62.485  1.00  0.00    -0.353 OA 
HETATM   23  C   UNL     1     -12.331  14.230  64.283  1.00  0.00    -0.407 C  
HETATM   24  H   UNL     1     -11.115  15.149  68.593  1.00  0.00     0.000 HD 
HETATM   25  N   UNL     1     -11.855  16.546  65.287  1.00  0.00     0.829 NA 
HETATM   26  C   UNL     1     -12.816  13.900  65.688  1.00  0.00    -0.467 C  
HETATM   27  H   UNL     1     -11.040  11.932  61.837  1.00  0.00     0.000 HD 
HETATM   28  C   UNL     1      -9.368  18.133  68.971  1.00  0.00    -0.099 C  
HETATM   29  C   UNL     1     -12.112  15.766  64.073  1.00  0.00     0.206 C  
HETATM   30  O   UNL     1      -8.062  16.992  67.404  1.00  0.00    -0.171 OA 
HETATM   31  O   UNL     1     -11.094  15.285  67.653  1.00  0.00    -0.307 OA 
BRANCH   9  32
HETATM   32  O   UNL     1      -7.384  10.550  66.106  1.00  0.00    -0.124 OA 
BRANCH  32  33
HETATM   33  C   UNL     1      -7.988   9.273  65.929  1.00  0.00    -0.106 C  
HETATM   34  O   UNL     1      -8.766   8.005  69.903  1.00  0.00    -0.136 OA 
HETATM   35  C   UNL     1      -8.627   8.058  68.482  1.00  0.00    -0.128 C  
HETATM   36  H   UNL     1      -9.674   7.977  70.181  1.00  0.00     0.000 HD 
HETATM   37  C   UNL     1      -7.144   8.104  68.028  1.00  0.00    -0.086 C  
HETATM   38  O   UNL     1      -9.324   9.242  66.448  1.00  0.00    -0.164 OA 
HETATM   39  C   UNL     1     -10.895   9.145  68.222  1.00  0.00    -0.104 C  
HETATM   40  C   UNL     1      -9.410   9.240  67.869  1.00  0.00    -0.129 C  
HETATM   41  C   UNL     1      -7.167   8.109  66.485  1.00  0.00    -0.080 C  
HETATM   42  C   UNL     1      -6.347   6.872  68.476  1.00  0.00    -0.032 C  
BRANCH  37  43
HETATM   43  O   UNL     1      -6.470   9.312  68.422  1.00  0.00    -0.053 OA 
HETATM   44  C   UNL     1      -6.171  10.278  67.432  1.00  0.00    -0.058 C  
ENDBRANCH  37  43
ENDBRANCH  32  33
ENDBRANCH   9  32
BRANCH  13  45
HETATM   45  O   UNL     1     -10.964   9.496  64.834  1.00  0.00     2.293 OA 
BRANCH  45  46
HETATM   46  C   UNL     1     -10.139   8.455  64.290  1.00  0.00     4.441 C  
HETATM   47  C   UNL     1      -9.109   5.289  65.774  1.00  0.00    -0.161 C  
HETATM   48  C   UNL     1      -7.805   7.927  63.215  1.00  0.00    -0.141 C  
HETATM   49  C   UNL     1      -8.884   8.966  63.584  1.00  0.00     0.095 C  
HETATM   50  C   UNL     1      -7.742   6.847  64.314  1.00  0.00    -0.113 C  
HETATM   51  H   UNL     1      -8.521  10.011  61.988  1.00  0.00     0.000 HD 
HETATM   52  O   UNL     1      -9.301   9.693  62.427  1.00  0.00    -0.271 OA 
HETATM   53  O   UNL     1      -9.812   7.519  65.315  1.00  0.00     1.144 OA 
HETATM   54  C   UNL     1      -9.140   6.395  64.739  1.00  0.00     0.682 C  
BRANCH  48  55
HETATM   55  N   UNL     1      -6.467   8.589  63.028  1.00  0.00    -0.087 NA 
HETATM   56  C   UNL     1      -6.557  10.037  62.856  1.00  0.00    -0.127 C  
HETATM   57  C   UNL     1      -5.454   8.266  64.027  1.00  0.00    -0.056 C  
ENDBRANCH  48  55
ENDBRANCH  45  46
ENDBRANCH  13  45
ENDBRANCH   2   3
TORSDOF 7
ENDMDL
MODEL      105
REMARK 921   NORMALIZED FREE ENERGY PREDICTED BY IDOCK:   39.46 KCAL/MOL
REMARK 922        TOTAL FREE ENERGY PREDICTED BY IDOCK:   53.02 KCAL/MOL
REMARK 923 INTER-LIGAND FREE ENERGY PREDICTED BY IDOCK:   35.06 KCAL/MOL
REMARK 924 INTRA-LIGAND FREE ENERGY PREDICTED BY IDOCK:   17.97 KCAL/MOL
REMARK 927      BINDING AFFINITY PREDICTED BY RF-SCORE:    0.00 PKD
ROOT
HETATM    1  C   UNL     1      -8.260   8.631  63.270  1.00  0.00    -0.162 C  
HETATM    2  C   UNL     1      -7.734   7.751  64.395  1.00  0.00    -0.123 C  
ENDROOT
BRANCH   2   3
HETATM    3  C   UNL     1      -6.728   8.461  65.338  1.00  0.00    -0.056 C  
HETATM    4  O   UNL     1      -6.692   9.935  65.340  1.00  0.00    -0.090 OA 
HETATM    5  C   UNL     1      -7.777  10.713  65.132  1.00  0.00     0.011 C  
HETATM    6  C   UNL     1      -7.469  12.219  65.239  1.00  0.00     3.396 C  
HETATM    7  O   UNL     1      -8.871  10.271  64.832  1.00  0.00    -0.168 OA 
HETATM    8  C   UNL     1      -6.051  12.464  65.774  1.00  0.00     3.365 C  
HETATM    9  C   UNL     1      -8.558  13.137  65.979  1.00  0.00     0.866 C  
HETATM   10  C   UNL     1      -9.792   6.970  70.075  1.00  0.00    -0.177 C  
HETATM   11  C   UNL     1     -10.051  12.579  65.890  1.00  0.00    -0.270 C  
HETATM   12  C   UNL     1      -7.805  10.030  69.090  1.00  0.00    -0.112 C  
HETATM   13  C   UNL     1     -11.165  13.263  66.851  1.00  0.00    -0.305 C  
HETATM   14  C   UNL     1     -10.346  12.615  64.372  1.00  0.00    -0.386 C  
HETATM   15  C   UNL     1      -8.203   8.551  69.041  1.00  0.00    -0.116 C  
HETATM   16  C   UNL     1      -8.069   7.931  67.592  1.00  0.00    -0.124 C  
HETATM   17  C   UNL     1     -11.613  12.769  68.362  1.00  0.00    -0.325 C  
HETATM   18  C   UNL     1     -10.760  11.706  69.117  1.00  0.00    -0.188 C  
HETATM   19  C   UNL     1      -6.690   7.974  66.837  1.00  0.00    -0.064 C  
HETATM   20  C   UNL     1     -13.098  12.540  68.671  1.00  0.00     2.981 C  
HETATM   21  H   UNL     1      -5.711   8.507  68.431  1.00  0.00     0.000 HD 
HETATM   22  O   UNL     1     -11.397  14.003  69.155  1.00  0.00    -0.254 OA 
HETATM   23  C   UNL     1     -11.267  10.231  69.239  1.00  0.00    -0.281 C  
HETATM   24  H   UNL     1      -9.037   8.052  65.896  1.00  0.00     0.000 HD 
HETATM   25  N   UNL     1      -9.593   8.303  69.510  1.00  0.00    -0.169 NA 
HETATM   26  C   UNL     1     -11.599   9.543  67.923  1.00  0.00     1.056 C  
HETATM   27  H   UNL     1     -11.654  13.719  70.024  1.00  0.00     0.000 HD 
HETATM   28  C   UNL     1      -6.056   6.571  66.908  1.00  0.00    -0.029 C  
HETATM   29  C   UNL     1     -10.392   9.333  70.177  1.00  0.00    -0.222 C  
HETATM   30  O   UNL     1      -5.734   8.801  67.528  1.00  0.00    -0.038 OA 
HETATM   31  O   UNL     1      -9.118   8.425  66.767  1.00  0.00    -0.142 OA 
BRANCH   9  32
HETATM   32  O   UNL     1      -8.401  14.415  65.288  1.00  0.00     2.923 OA 
BRANCH  32  33
HETATM   33  C   UNL     1      -8.781  15.621  65.944  1.00  0.00     0.127 C  
HETATM   34  O   UNL     1      -5.156  16.960  67.697  1.00  0.00    -0.109 OA 
HETATM   35  C   UNL     1      -6.525  16.817  67.317  1.00  0.00    -0.174 C  
HETATM   36  H   UNL     1      -4.751  17.734  67.323  1.00  0.00     0.000 HD 
HETATM   37  C   UNL     1      -7.185  15.552  67.928  1.00  0.00    -0.141 C  
HETATM   38  O   UNL     1      -8.078  16.754  65.418  1.00  0.00     0.312 OA 
HETATM   39  C   UNL     1      -6.152  18.118  65.182  1.00  0.00    -0.077 C  
HETATM   40  C   UNL     1      -6.704  16.825  65.783  1.00  0.00     1.186 C  
HETATM   41  C   UNL     1      -8.658  15.571  67.467  1.00  0.00    -0.184 C  
HETATM   42  C   UNL     1      -7.179  15.560  69.461  1.00  0.00    -0.201 C  
BRANCH  37  43
HETATM   43  O   UNL     1      -6.625  14.325  67.427  1.00  0.00    -0.284 OA 
HETATM   44  C   UNL     1      -5.732  13.599  68.250  1.00  0.00    -0.103 C  
ENDBRANCH  37  43
ENDBRANCH  32  33
ENDBRANCH   9  32
BRANCH  13  45
HETATM   45  O   UNL     1     -12.216  14.044  66.216  1.00  0.00    -0.433 OA 
BRANCH  45  46
HETATM   46  C   UNL     1     -12.411  15.426  66.556  1.00  0.00     1.002 C  
HETATM   47  C   UNL     1     -12.848  18.316  64.377  1.00  0.00    13.304 C  
HETATM   48  C   UNL     1     -11.430  17.450  67.906  1.00  0.00     0.586 C  
HETATM   49  C   UNL     1     -11.489  15.927  67.666  1.00  0.00    -0.070 C  
HETATM   50  C   UNL     1     -11.555  18.182  66.554  1.00  0.00     1.877 C  
HETATM   51  H   UNL     1     -11.269  15.552  69.559  1.00  0.00     0.000 HD 
HETATM   52  O   UNL     1     -11.842  15.240  68.868  1.00  0.00    -0.338 OA 
HETATM   53  O   UNL     1     -12.293  16.227  65.382  1.00  0.00     1.480 OA 
HETATM   54  C   UNL     1     -12.659  17.577  65.687  1.00  0.00     7.553 C  
BRANCH  48  55
HETATM   55  N   UNL     1     -10.158  17.830  68.612  1.00  0.00    -0.369 NA 
HETATM   56  C   UNL     1      -8.955  17.346  67.939  1.00  0.00    -0.251 C  
HETATM   57  C   UNL     1     -10.013  19.244  68.942  1.00  0.00    -0.427 C  
ENDBRANCH  48  55
ENDBRANCH  45  46
ENDBRANCH  13  45
ENDBRANCH   2   3
TORSDOF 7
ENDMDL
MODEL      106
REMARK 921   NORMALIZED FREE ENERGY PREDICTED BY IDOCK:   41.18 KCAL/MOL
REMARK 922        TOTAL FREE ENERGY PREDICTED BY IDOCK:   55.46 KCAL/MOL
REMARK 923 INTER-LIGAND FREE ENERGY PREDICTED BY IDOCK:   27.29 KCAL/MOL
REMARK 924 INTRA-LIGAND FREE ENERGY PREDICTED BY IDOCK:   28.17 KCAL/MOL
REMARK 927      BINDING AFFINITY PREDICTED BY RF-SCORE:    0.00 PKD
ROOT
HETATM    1  C   UNL     1      -8.888  17.541  71.450  1.00  0.00     9.429 C  
HETATM    2  C   UNL     1      -8.225  18.224  70.263  1.00  0.00     2.768 C  
ENDROOT
BRANCH   2   3
HETATM    3  C   UNL     1      -9.097  18.255  68.980  1.00  0.00    -0.043 C  
HETATM    4  O   UNL     1      -8.915  17.183  67.984  1.00  0.00    -0.223 OA 
HETATM    5  C   UNL     1      -8.582  15.913  68.301  1.00  0.00    -0.176 C  
HETATM    6  C   UNL     1      -8.507  14.985  67.073  1.00  0.00    -0.258 C  
HETATM    7  O   UNL     1      -8.312  15.552  69.432  1.00  0.00    -0.242 OA 
HETATM    8  C   UNL     1      -9.044  15.679  65.814  1.00  0.00    -0.157 C  
HETATM    9  C   UNL     1      -9.097  13.502  67.241  1.00  0.00    -0.225 C  
HETATM   10  C   UNL     1     -13.902  16.812  71.961  1.00  0.00     4.119 C  
HETATM   11  C   UNL     1      -9.039  12.941  68.734  1.00  0.00     0.171 C  
HETATM   12  C   UNL     1     -12.592  15.960  68.520  1.00  0.00     1.117 C  
HETATM   13  C   UNL     1      -9.877  11.591  69.061  1.00  0.00     0.007 C  
HETATM   14  C   UNL     1      -7.522  12.889  69.029  1.00  0.00     0.104 C  
HETATM   15  C   UNL     1     -12.720  16.802  69.795  1.00  0.00     3.497 C  
HETATM   16  C   UNL     1     -11.364  17.512  70.193  1.00  0.00     1.961 C  
HETATM   17  C   UNL     1     -11.426  11.493  69.626  1.00  0.00    -0.301 C  
HETATM   18  C   UNL     1     -12.331  12.761  69.636  1.00  0.00    -0.059 C  
HETATM   19  C   UNL     1     -10.646  18.475  69.177  1.00  0.00     0.487 C  
HETATM   20  C   UNL     1     -11.722  10.649  70.872  1.00  0.00    -0.387 C  
HETATM   21  H   UNL     1     -12.186  18.546  67.991  1.00  0.00     0.000 HD 
HETATM   22  O   UNL     1     -12.063  10.630  68.602  1.00  0.00    -0.777 OA 
HETATM   23  C   UNL     1     -12.624  13.510  70.979  1.00  0.00    -0.438 C  
HETATM   24  H   UNL     1      -9.641  16.973  70.948  1.00  0.00     0.000 HD 
HETATM   25  N   UNL     1     -13.179  16.017  70.972  1.00  0.00    -0.153 NA 
HETATM   26  C   UNL     1     -11.397  13.949  71.764  1.00  0.00     1.888 C  
HETATM   27  H   UNL     1     -12.954  10.574  68.928  1.00  0.00     0.000 HD 
HETATM   28  C   UNL     1     -10.909  19.928  69.619  1.00  0.00     1.142 C  
HETATM   29  C   UNL     1     -13.690  14.650  70.852  1.00  0.00    -0.114 C  
HETATM   30  O   UNL     1     -11.252  18.414  67.872  1.00  0.00    -0.041 OA 
HETATM   31  O   UNL     1     -10.456  16.546  70.709  1.00  0.00     0.428 OA 
BRANCH   9  32
HETATM   32  O   UNL     1      -8.255  12.733  66.327  1.00  0.00     0.337 OA 
BRANCH  32  33
HETATM   33  C   UNL     1      -8.799  12.258  65.099  1.00  0.00     0.881 C  
HETATM   34  O   UNL     1     -12.988  12.485  65.736  1.00  0.00    -0.102 OA 
HETATM   35  C   UNL     1     -11.697  12.227  65.184  1.00  0.00    -0.361 C  
HETATM   36  H   UNL     1     -13.467  13.150  65.255  1.00  0.00     0.000 HD 
HETATM   37  C   UNL     1     -10.916  11.141  65.970  1.00  0.00    -0.123 C  
HETATM   38  O   UNL     1      -9.594  13.258  64.449  1.00  0.00     0.088 OA 
HETATM   39  C   UNL     1     -11.565  14.553  64.203  1.00  0.00    -0.148 C  
HETATM   40  C   UNL     1     -10.851  13.514  65.067  1.00  0.00    -0.340 C  
HETATM   41  C   UNL     1      -9.578  10.948  65.224  1.00  0.00    -0.276 C  
HETATM   42  C   UNL     1     -11.636   9.787  65.988  1.00  0.00     3.065 C  
BRANCH  37  43
HETATM   43  O   UNL     1     -10.573  11.548  67.307  1.00  0.00    -0.210 OA 
HETATM   44  C   UNL     1     -11.266  12.639  67.884  1.00  0.00    -0.266 C  
ENDBRANCH  37  43
ENDBRANCH  32  33
ENDBRANCH   9  32
BRANCH  13  45
HETATM   45  O   UNL     1      -9.122  10.388  69.376  1.00  0.00    -0.196 OA 
BRANCH  45  46
HETATM   46  C   UNL     1      -8.780  10.069  70.734  1.00  0.00     0.862 C  
HETATM   47  C   UNL     1      -5.546  10.211  72.410  1.00  0.00     0.365 C  
HETATM   48  C   UNL     1      -8.889   8.211  72.581  1.00  0.00    -0.219 C  
HETATM   49  C   UNL     1      -9.413   8.776  71.245  1.00  0.00    -0.250 C  
HETATM   50  C   UNL     1      -7.373   8.476  72.687  1.00  0.00    -0.065 C  
HETATM   51  H   UNL     1     -11.220   8.173  71.619  1.00  0.00     0.000 HD 
HETATM   52  O   UNL     1     -10.826   8.977  71.301  1.00  0.00    -0.261 OA 
HETATM   53  O   UNL     1      -7.361  10.043  70.875  1.00  0.00    -0.302 OA 
HETATM   54  C   UNL     1      -7.021   9.901  72.258  1.00  0.00     1.777 C  
BRANCH  48  55
HETATM   55  N   UNL     1      -9.191   6.741  72.694  1.00  0.00    -0.139 NA 
HETATM   56  C   UNL     1      -8.276   6.030  73.584  1.00  0.00    -0.112 C  
HETATM   57  C   UNL     1     -10.572   6.399  73.018  1.00  0.00    -0.242 C  
ENDBRANCH  48  55
ENDBRANCH  45  46
ENDBRANCH  13  45
ENDBRANCH   2   3
TORSDOF 7
ENDMDL
MODEL      107
REMARK 921   NORMALIZED FREE ENERGY PREDICTED BY IDOCK:   42.40 KCAL/MOL
REMARK 922        TOTAL FREE ENERGY PREDICTED BY IDOCK:   57.17 KCAL/MOL
REMARK 923 INTER-LIGAND FREE ENERGY PREDICTED BY IDOCK:   40.99 KCAL/MOL
REMARK 924 INTRA-LIGAND FREE ENERGY PREDICTED BY IDOCK:   16.18 KCAL/MOL
REMARK 927      BINDING AFFINITY PREDICTED BY RF-SCORE:    0.00 PKD
ROOT
HETATM    1  C   UNL     1      -5.536   6.327  68.942  1.00  0.00    -0.015 C  
HETATM    2  C   UNL     1      -5.585   4.917  68.371  1.00  0.00    -0.016 C  
ENDROOT
BRANCH   2   3
HETATM    3  C   UNL     1      -6.960   4.216  68.530  1.00  0.00    -0.051 C  
HETATM    4  O   UNL     1      -8.080   4.992  69.095  1.00  0.00    -0.082 OA 
HETATM    5  C   UNL     1      -8.243   6.320  68.907  1.00  0.00    -0.113 C  
HETATM    6  C   UNL     1      -9.523   6.869  69.565  1.00  0.00    -0.146 C  
HETATM    7  O   UNL     1      -7.432   7.020  68.329  1.00  0.00    -0.094 OA 
HETATM    8  C   UNL     1     -10.416   5.734  70.086  1.00  0.00    -0.348 C  
HETATM    9  C   UNL     1     -10.360   7.960  68.738  1.00  0.00    -0.203 C  
HETATM   10  C   UNL     1      -7.844   4.180  62.762  1.00  0.00    -0.066 C  
HETATM   11  C   UNL     1      -9.479   8.834  67.733  1.00  0.00    -0.164 C  
HETATM   12  C   UNL     1     -10.096   4.650  65.760  1.00  0.00    -0.264 C  
HETATM   13  C   UNL     1     -10.265   9.743  66.644  1.00  0.00    -0.226 C  
HETATM   14  C   UNL     1      -8.515   9.587  68.679  1.00  0.00    -0.119 C  
HETATM   15  C   UNL     1      -8.846   4.165  65.018  1.00  0.00    -0.131 C  
HETATM   16  C   UNL     1      -7.547   4.207  65.920  1.00  0.00    -0.089 C  
HETATM   17  C   UNL     1     -10.677   9.315  65.103  1.00  0.00     2.765 C  
HETATM   18  C   UNL     1     -10.565   7.827  64.653  1.00  0.00     7.652 C  
HETATM   19  C   UNL     1      -7.503   3.422  67.282  1.00  0.00    -0.067 C  
HETATM   20  C   UNL     1     -10.285  10.229  63.935  1.00  0.00     0.154 C  
HETATM   21  H   UNL     1      -9.128   2.429  66.885  1.00  0.00     0.000 HD 
HETATM   22  O   UNL     1     -12.141   9.557  65.108  1.00  0.00     6.226 OA 
HETATM   23  C   UNL     1      -9.391   7.371  63.725  1.00  0.00     2.502 C  
HETATM   24  H   UNL     1      -6.356   5.583  66.638  1.00  0.00     0.000 HD 
HETATM   25  N   UNL     1      -8.561   4.942  63.782  1.00  0.00    -0.136 NA 
HETATM   26  C   UNL     1      -7.993   7.690  64.236  1.00  0.00    -0.112 C  
HETATM   27  H   UNL     1     -12.378   9.311  64.222  1.00  0.00     0.000 HD 
HETATM   28  C   UNL     1      -6.664   2.145  67.077  1.00  0.00    -0.039 C  
HETATM   29  C   UNL     1      -9.517   5.896  63.216  1.00  0.00     1.512 C  
HETATM   30  O   UNL     1      -8.801   2.907  67.638  1.00  0.00    -0.109 OA 
HETATM   31  O   UNL     1      -7.137   5.557  66.096  1.00  0.00    -0.065 OA 
BRANCH   9  32
HETATM   32  O   UNL     1     -10.949   8.767  69.804  1.00  0.00    -0.223 OA 
BRANCH  32  33
HETATM   33  C   UNL     1     -10.248   9.905  70.296  1.00  0.00    -0.264 C  
HETATM   34  O   UNL     1      -8.974   8.673  74.151  1.00  0.00    -0.057 OA 
HETATM   35  C   UNL     1      -9.254   9.439  72.979  1.00  0.00     2.919 C  
HETATM   36  H   UNL     1      -8.045   8.517  74.274  1.00  0.00     0.000 HD 
HETATM   37  C   UNL     1     -10.772   9.692  72.779  1.00  0.00     3.225 C  
HETATM   38  O   UNL     1      -8.871   9.606  70.560  1.00  0.00    -0.225 OA 
HETATM   39  C   UNL     1      -7.134   8.642  71.855  1.00  0.00    -0.090 C  
HETATM   40  C   UNL     1      -8.648   8.798  71.711  1.00  0.00    -0.128 C  
HETATM   41  C   UNL     1     -10.899  10.565  71.512  1.00  0.00     1.721 C  
HETATM   42  C   UNL     1     -11.403  10.468  73.941  1.00  0.00    15.354 C  
BRANCH  37  43
HETATM   43  O   UNL     1     -11.515   8.489  72.513  1.00  0.00    -0.371 OA 
HETATM   44  C   UNL     1     -10.947   7.514  71.660  1.00  0.00    -0.232 C  
ENDBRANCH  37  43
ENDBRANCH  32  33
ENDBRANCH   9  32
BRANCH  13  45
HETATM   45  O   UNL     1     -10.185  11.189  66.787  1.00  0.00    -0.216 OA 
BRANCH  45  46
HETATM   46  C   UNL     1      -9.818  11.784  68.041  1.00  0.00    -0.183 C  
HETATM   47  C   UNL     1     -11.864  13.641  70.420  1.00  0.00    -0.308 C  
HETATM   48  C   UNL     1      -8.161  13.449  69.209  1.00  0.00     0.646 C  
HETATM   49  C   UNL     1      -8.498  12.551  68.000  1.00  0.00    -0.173 C  
HETATM   50  C   UNL     1      -9.460  14.084  69.747  1.00  0.00     1.133 C  
HETATM   51  H   UNL     1      -6.631  12.083  67.741  1.00  0.00     0.000 HD 
HETATM   52  O   UNL     1      -7.452  11.606  67.767  1.00  0.00    -0.099 OA 
HETATM   53  O   UNL     1     -10.883  12.609  68.508  1.00  0.00    -0.235 OA 
HETATM   54  C   UNL     1     -10.592  13.060  69.835  1.00  0.00     1.036 C  
BRANCH  48  55
HETATM   55  N   UNL     1      -7.159  14.505  68.828  1.00  0.00    -0.105 NA 
HETATM   56  C   UNL     1      -7.729  15.575  68.013  1.00  0.00    -0.127 C  
HETATM   57  C   UNL     1      -6.383  15.070  69.926  1.00  0.00    -0.162 C  
ENDBRANCH  48  55
ENDBRANCH  45  46
ENDBRANCH  13  45
ENDBRANCH   2   3
TORSDOF 7
ENDMDL
MODEL      108
REMARK 921   NORMALIZED FREE ENERGY PREDICTED BY IDOCK:   42.66 KCAL/MOL
REMARK 922        TOTAL FREE ENERGY PREDICTED BY IDOCK:   57.54 KCAL/MOL
REMARK 923 INTER-LIGAND FREE ENERGY PREDICTED BY IDOCK:   51.14 KCAL/MOL
REMARK 924 INTRA-LIGAND FREE ENERGY PREDICTED BY IDOCK:    6.41 KCAL/MOL
REMARK 927      BINDING AFFINITY PREDICTED BY RF-SCORE:    0.00 PKD
ROOT
HETATM    1  C   UNL     1      -7.881  15.856  70.877  1.00  0.00     3.027 C  
HETATM    2  C   UNL     1      -6.704  15.157  70.213  1.00  0.00    -0.000 C  
ENDROOT
BRANCH   2   3
HETATM    3  C   UNL     1      -6.754  15.164  68.662  1.00  0.00    -0.093 C  
HETATM    4  O   UNL     1      -6.953  13.881  67.963  1.00  0.00    -0.106 OA 
HETATM    5  C   UNL     1      -7.692  12.864  68.457  1.00  0.00    -0.109 C  
HETATM    6  C   UNL     1      -7.777  11.659  67.500  1.00  0.00    -0.136 C  
HETATM    7  O   UNL     1      -8.190  12.874  69.569  1.00  0.00     0.853 OA 
HETATM    8  C   UNL     1      -7.184  11.995  66.124  1.00  0.00     0.824 C  
HETATM    9  C   UNL     1      -9.196  10.920  67.379  1.00  0.00    -0.147 C  
HETATM   10  C   UNL     1     -11.969  17.781  68.634  1.00  0.00     3.078 C  
HETATM   11  C   UNL     1     -10.104  11.031  68.688  1.00  0.00    -0.207 C  
HETATM   12  C   UNL     1     -10.348  15.134  66.477  1.00  0.00    -0.286 C  
HETATM   13  C   UNL     1     -11.658  10.585  68.562  1.00  0.00    -0.148 C  
HETATM   14  C   UNL     1      -9.267  10.288  69.755  1.00  0.00    -0.101 C  
HETATM   15  C   UNL     1     -10.372  16.320  67.449  1.00  0.00    -0.285 C  
HETATM   16  C   UNL     1      -9.180  16.278  68.488  1.00  0.00    -0.211 C  
HETATM   17  C   UNL     1     -12.946  11.557  68.206  1.00  0.00     3.325 C  
HETATM   18  C   UNL     1     -12.706  13.003  67.678  1.00  0.00     1.270 C  
HETATM   19  C   UNL     1      -7.691  16.235  67.985  1.00  0.00    -0.148 C  
HETATM   20  C   UNL     1     -14.173  11.550  69.126  1.00  0.00     9.251 C  
HETATM   21  H   UNL     1      -8.185  16.667  66.154  1.00  0.00     0.000 HD 
HETATM   22  O   UNL     1     -13.529  10.860  67.033  1.00  0.00     8.355 OA 
HETATM   23  C   UNL     1     -12.925  14.232  68.621  1.00  0.00     1.637 C  
HETATM   24  H   UNL     1      -8.708  15.232  70.073  1.00  0.00     0.000 HD 
HETATM   25  N   UNL     1     -11.639  16.419  68.221  1.00  0.00    -0.159 NA 
HETATM   26  C   UNL     1     -12.144  14.202  69.927  1.00  0.00    -0.405 C  
HETATM   27  H   UNL     1     -14.270  11.420  66.829  1.00  0.00     0.000 HD 
HETATM   28  C   UNL     1      -7.080  17.640  68.159  1.00  0.00    -0.216 C  
HETATM   29  C   UNL     1     -12.821  15.617  67.897  1.00  0.00     2.293 C  
HETATM   30  O   UNL     1      -7.620  16.021  66.562  1.00  0.00    -0.208 OA 
HETATM   31  O   UNL     1      -9.424  15.257  69.448  1.00  0.00    -0.235 OA 
BRANCH   9  32
HETATM   32  O   UNL     1      -8.801   9.543  67.093  1.00  0.00    -0.130 OA 
BRANCH  32  33
HETATM   33  C   UNL     1      -8.430   8.680  68.164  1.00  0.00    -0.131 C  
HETATM   34  O   UNL     1      -7.144   5.158  66.177  1.00  0.00    -0.069 OA 
HETATM   35  C   UNL     1      -7.526   6.112  67.169  1.00  0.00    -0.081 C  
HETATM   36  H   UNL     1      -6.215   4.962  66.196  1.00  0.00     0.000 HD 
HETATM   37  C   UNL     1      -9.044   6.432  67.137  1.00  0.00    -0.120 C  
HETATM   38  O   UNL     1      -7.041   8.328  68.104  1.00  0.00    -0.078 OA 
HETATM   39  C   UNL     1      -5.209   7.121  67.205  1.00  0.00    -0.013 C  
HETATM   40  C   UNL     1      -6.703   7.414  67.066  1.00  0.00    -0.069 C  
HETATM   41  C   UNL     1      -9.298   7.428  68.289  1.00  0.00    -0.140 C  
HETATM   42  C   UNL     1      -9.918   5.198  67.391  1.00  0.00    -0.215 C  
BRANCH  37  43
HETATM   43  O   UNL     1      -9.455   7.102  65.931  1.00  0.00     0.011 OA 
HETATM   44  C   UNL     1      -8.484   7.368  64.937  1.00  0.00     0.060 C  
ENDBRANCH  37  43
ENDBRANCH  32  33
ENDBRANCH   9  32
BRANCH  13  45
HETATM   45  O   UNL     1     -12.079   9.392  69.280  1.00  0.00     0.740 OA 
BRANCH  45  46
HETATM   46  C   UNL     1     -11.811   9.245  70.683  1.00  0.00    -0.192 C  
HETATM   47  C   UNL     1     -11.249  11.801  73.221  1.00  0.00    13.799 C  
HETATM   48  C   UNL     1     -10.232   8.116  72.447  1.00  0.00    -0.298 C  
HETATM   49  C   UNL     1     -10.787   8.159  71.008  1.00  0.00    -0.235 C  
HETATM   50  C   UNL     1     -10.095   9.556  72.982  1.00  0.00     3.908 C  
HETATM   51  H   UNL     1     -10.723   6.225  70.852  1.00  0.00     0.000 HD 
HETATM   52  O   UNL     1     -11.360   6.900  70.649  1.00  0.00    -0.283 OA 
HETATM   53  O   UNL     1     -11.424  10.504  71.229  1.00  0.00    -0.203 OA 
HETATM   54  C   UNL     1     -11.328  10.398  72.653  1.00  0.00     4.531 C  
BRANCH  48  55
HETATM   55  N   UNL     1      -8.913   7.394  72.489  1.00  0.00    -0.129 NA 
HETATM   56  C   UNL     1      -7.782   8.273  72.778  1.00  0.00    -0.117 C  
HETATM   57  C   UNL     1      -8.862   6.214  73.344  1.00  0.00    -0.125 C  
ENDBRANCH  48  55
ENDBRANCH  45  46
ENDBRANCH  13  45
ENDBRANCH   2   3
TORSDOF 7
ENDMDL
MODEL      109
REMARK 921   NORMALIZED FREE ENERGY PREDICTED BY IDOCK:   44.66 KCAL/MOL
REMARK 922        TOTAL FREE ENERGY PREDICTED BY IDOCK:   60.36 KCAL/MOL
REMARK 923 INTER-LIGAND FREE ENERGY PREDICTED BY IDOCK:   55.16 KCAL/MOL
REMARK 924 INTRA-LIGAND FREE ENERGY PREDICTED BY IDOCK:    5.20 KCAL/MOL
REMARK 927      BINDING AFFINITY PREDICTED BY RF-SCORE:    0.00 PKD
ROOT
HETATM    1  C   UNL     1      -9.604  17.130  62.908  1.00  0.00    19.086 C  
HETATM    2  C   UNL     1     -10.910  17.215  63.685  1.00  0.00     5.485 C  
ENDROOT
BRANCH   2   3
HETATM    3  C   UNL     1     -10.832  18.090  64.964  1.00  0.00     0.949 C  
HETATM    4  O   UNL     1     -11.465  17.585  66.196  1.00  0.00     0.918 OA 
HETATM    5  C   UNL     1     -11.538  16.275  66.520  1.00  0.00     0.815 C  
HETATM    6  C   UNL     1     -12.205  16.028  67.887  1.00  0.00     0.903 C  
HETATM    7  O   UNL     1     -11.168  15.380  65.782  1.00  0.00    -0.298 OA 
HETATM    8  C   UNL     1     -12.426  17.342  68.648  1.00  0.00     4.066 C  
HETATM    9  C   UNL     1     -11.559  14.894  68.821  1.00  0.00    -0.323 C  
HETATM   10  C   UNL     1      -5.129  17.029  65.594  1.00  0.00     0.944 C  
HETATM   11  C   UNL     1     -10.813  13.733  68.018  1.00  0.00    -0.263 C  
HETATM   12  C   UNL     1      -8.002  17.459  68.011  1.00  0.00    -0.224 C  
HETATM   13  C   UNL     1      -9.878  12.716  68.867  1.00  0.00     0.155 C  
HETATM   14  C   UNL     1     -11.953  13.087  67.198  1.00  0.00    -0.389 C  
HETATM   15  C   UNL     1      -7.262  17.630  66.679  1.00  0.00    -0.229 C  
HETATM   16  C   UNL     1      -8.240  17.624  65.436  1.00  0.00     1.381 C  
HETATM   17  C   UNL     1      -8.258  12.859  69.157  1.00  0.00     0.565 C  
HETATM   18  C   UNL     1      -7.527  14.198  68.836  1.00  0.00    -0.112 C  
HETATM   19  C   UNL     1      -9.416  18.665  65.348  1.00  0.00     1.316 C  
HETATM   20  C   UNL     1      -7.327  11.683  68.837  1.00  0.00    -0.107 C  
HETATM   21  H   UNL     1      -8.719  19.737  66.814  1.00  0.00     0.000 HD 
HETATM   22  O   UNL     1      -8.214  12.796  70.638  1.00  0.00     3.972 OA 
HETATM   23  C   UNL     1      -6.607  14.310  67.575  1.00  0.00    -0.098 C  
HETATM   24  H   UNL     1      -9.299  16.299  64.461  1.00  0.00     0.000 HD 
HETATM   25  N   UNL     1      -6.230  16.585  66.444  1.00  0.00    -0.131 NA 
HETATM   26  C   UNL     1      -7.264  13.944  66.252  1.00  0.00     3.171 C  
HETATM   27  H   UNL     1      -7.282  12.879  70.804  1.00  0.00     0.000 HD 
HETATM   28  C   UNL     1      -9.015  19.765  64.345  1.00  0.00     4.852 C  
HETATM   29  C   UNL     1      -5.805  15.652  67.491  1.00  0.00    -0.074 C  
HETATM   30  O   UNL     1      -9.573  19.390  66.583  1.00  0.00    -0.316 OA 
HETATM   31  O   UNL     1      -8.711  16.302  65.209  1.00  0.00     0.299 OA 
BRANCH   9  32
HETATM   32  O   UNL     1     -12.724  14.400  69.553  1.00  0.00    -0.123 OA 
BRANCH  32  33
HETATM   33  C   UNL     1     -12.545  13.763  70.814  1.00  0.00    -0.340 C  
HETATM   34  O   UNL     1     -11.732  17.000  73.435  1.00  0.00    -0.199 OA 
HETATM   35  C   UNL     1     -11.916  15.696  72.880  1.00  0.00    -0.479 C  
HETATM   36  H   UNL     1     -12.403  17.226  74.068  1.00  0.00     0.000 HD 
HETATM   37  C   UNL     1     -10.820  15.327  71.845  1.00  0.00     0.309 C  
HETATM   38  O   UNL     1     -13.517  14.202  71.772  1.00  0.00    -0.343 OA 
HETATM   39  C   UNL     1     -14.407  15.783  73.299  1.00  0.00     1.010 C  
HETATM   40  C   UNL     1     -13.319  15.526  72.257  1.00  0.00    -0.473 C  
HETATM   41  C   UNL     1     -11.132  13.888  71.384  1.00  0.00     2.040 C  
HETATM   42  C   UNL     1      -9.410  15.326  72.447  1.00  0.00     6.380 C  
BRANCH  37  43
HETATM   43  O   UNL     1     -10.863  16.145  70.661  1.00  0.00    -0.259 OA 
HETATM   44  C   UNL     1     -10.434  17.490  70.749  1.00  0.00     1.870 C  
ENDBRANCH  37  43
ENDBRANCH  32  33
ENDBRANCH   9  32
BRANCH  13  45
HETATM   45  O   UNL     1     -10.314  11.332  68.979  1.00  0.00    -0.205 OA 
BRANCH  45  46
HETATM   46  C   UNL     1      -9.552  10.271  68.384  1.00  0.00    -0.149 C  
HETATM   47  C   UNL     1     -10.005   8.599  65.177  1.00  0.00     1.264 C  
HETATM   48  C   UNL     1      -8.635   7.840  68.748  1.00  0.00    -0.129 C  
HETATM   49  C   UNL     1      -9.204   9.141  69.352  1.00  0.00    -0.156 C  
HETATM   50  C   UNL     1      -9.312   7.572  67.388  1.00  0.00    -0.164 C  
HETATM   51  H   UNL     1      -8.098   8.969  70.939  1.00  0.00     0.000 HD 
HETATM   52  O   UNL     1      -8.315   9.671  70.337  1.00  0.00    -0.186 OA 
HETATM   53  O   UNL     1     -10.237   9.777  67.235  1.00  0.00    -0.203 OA 
HETATM   54  C   UNL     1      -9.400   8.844  66.544  1.00  0.00    -0.195 C  
BRANCH  48  55
HETATM   55  N   UNL     1      -8.832   6.683  69.689  1.00  0.00    -0.142 NA 
HETATM   56  C   UNL     1     -10.236   6.320  69.872  1.00  0.00    -0.184 C  
HETATM   57  C   UNL     1      -8.039   5.492  69.407  1.00  0.00    -0.095 C  
ENDBRANCH  48  55
ENDBRANCH  45  46
ENDBRANCH  13  45
ENDBRANCH   2   3
TORSDOF 7
ENDMDL
MODEL      110
REMARK 921   NORMALIZED FREE ENERGY PREDICTED BY IDOCK:   44.78 KCAL/MOL
REMARK 922        TOTAL FREE ENERGY PREDICTED BY IDOCK:   60.53 KCAL/MOL
REMARK 923 INTER-LIGAND FREE ENERGY PREDICTED BY IDOCK:   21.50 KCAL/MOL
REMARK 924 INTRA-LIGAND FREE ENERGY PREDICTED BY IDOCK:   39.03 KCAL/MOL
REMARK 927      BINDING AFFINITY PREDICTED BY RF-SCORE:    0.00 PKD
ROOT
HETATM    1  C   UNL     1     -10.687   2.268  70.809  1.00  0.00     2.082 C  
HETATM    2  C   UNL     1     -10.079   3.223  69.791  1.00  0.00     0.708 C  
ENDROOT
BRANCH   2   3
HETATM    3  C   UNL     1      -8.589   2.940  69.466  1.00  0.00    -0.067 C  
HETATM    4  O   UNL     1      -7.999   3.581  68.277  1.00  0.00    -0.070 OA 
HETATM    5  C   UNL     1      -8.359   4.803  67.826  1.00  0.00    -0.103 C  
HETATM    6  C   UNL     1      -7.548   5.255  66.596  1.00  0.00    -0.088 C  
HETATM    7  O   UNL     1      -9.270   5.453  68.306  1.00  0.00    -0.108 OA 
HETATM    8  C   UNL     1      -6.378   4.302  66.316  1.00  0.00    -0.033 C  
HETATM    9  C   UNL     1      -7.096   6.794  66.544  1.00  0.00    -0.071 C  
HETATM   10  C   UNL     1      -6.773   6.116  74.012  1.00  0.00    -0.079 C  
HETATM   11  C   UNL     1      -8.066   7.786  67.335  1.00  0.00    -0.123 C  
HETATM   12  C   UNL     1      -5.468   5.560  70.509  1.00  0.00    -0.008 C  
HETATM   13  C   UNL     1      -7.540   9.298  67.596  1.00  0.00    -0.088 C  
HETATM   14  C   UNL     1      -9.402   7.653  66.567  1.00  0.00    -0.241 C  
HETATM   15  C   UNL     1      -6.262   5.212  71.773  1.00  0.00    -0.030 C  
HETATM   16  C   UNL     1      -7.602   4.434  71.454  1.00  0.00    -0.072 C  
HETATM   17  C   UNL     1      -6.726   9.853  68.922  1.00  0.00    -0.053 C  
HETATM   18  C   UNL     1      -6.144   8.843  69.956  1.00  0.00    -0.037 C  
HETATM   19  C   UNL     1      -7.561   3.081  70.652  1.00  0.00    -0.040 C  
HETATM   20  C   UNL     1      -7.245  11.093  69.661  1.00  0.00    -0.016 C  
HETATM   21  H   UNL     1      -5.631   2.912  70.826  1.00  0.00     0.000 HD 
HETATM   22  O   UNL     1      -5.513  10.441  68.303  1.00  0.00    -0.035 OA 
HETATM   23  C   UNL     1      -6.850   8.634  71.337  1.00  0.00    -0.082 C  
HETATM   24  H   UNL     1      -9.355   4.864  70.699  1.00  0.00     0.000 HD 
HETATM   25  N   UNL     1      -6.618   6.404  72.588  1.00  0.00    -0.063 NA 
HETATM   26  C   UNL     1      -8.323   8.256  71.267  1.00  0.00    -0.156 C  
HETATM   27  H   UNL     1      -5.045  10.760  69.066  1.00  0.00     0.000 HD 
HETATM   28  C   UNL     1      -7.759   1.922  71.649  1.00  0.00    -0.040 C  
HETATM   29  C   UNL     1      -6.048   7.729  72.331  1.00  0.00    -0.041 C  
HETATM   30  O   UNL     1      -6.250   2.827  70.111  1.00  0.00    -0.023 OA 
HETATM   31  O   UNL     1      -8.550   5.332  70.891  1.00  0.00    -0.123 OA 
BRANCH   9  32
HETATM   32  O   UNL     1      -7.082   7.061  65.108  1.00  0.00    -0.057 OA 
BRANCH  32  33
HETATM   33  C   UNL     1      -7.918   8.082  64.572  1.00  0.00    -0.151 C  
HETATM   34  O   UNL     1     -11.778   7.018  65.976  1.00  0.00     1.819 OA 
HETATM   35  C   UNL     1     -10.690   7.651  65.300  1.00  0.00     5.231 C  
HETATM   36  H   UNL     1     -12.167   7.573  66.642  1.00  0.00     0.000 HD 
HETATM   37  C   UNL     1     -10.055   6.745  64.212  1.00  0.00     5.103 C  
HETATM   38  O   UNL     1      -8.563   8.836  65.607  1.00  0.00    -0.152 OA 
HETATM   39  C   UNL     1     -10.203   9.123  67.296  1.00  0.00    -0.319 C  
HETATM   40  C   UNL     1      -9.607   8.144  66.284  1.00  0.00    -0.178 C  
HETATM   41  C   UNL     1      -8.941   7.584  63.551  1.00  0.00     1.257 C  
HETATM   42  C   UNL     1     -11.049   6.347  63.114  1.00  0.00    10.019 C  
BRANCH  37  43
HETATM   43  O   UNL     1      -9.409   5.579  64.755  1.00  0.00     0.165 OA 
HETATM   44  C   UNL     1      -9.650   4.324  64.147  1.00  0.00    -0.116 C  
ENDBRANCH  37  43
ENDBRANCH  32  33
ENDBRANCH   9  32
BRANCH  13  45
HETATM   45  O   UNL     1      -8.224  10.380  66.904  1.00  0.00    -0.122 OA 
BRANCH  45  46
HETATM   46  C   UNL     1      -8.730  11.512  67.628  1.00  0.00    -0.142 C  
HETATM   47  C   UNL     1     -11.802  11.851  69.561  1.00  0.00    -0.395 C  
HETATM   48  C   UNL     1      -9.373  14.048  67.443  1.00  0.00    -0.220 C  
HETATM   49  C   UNL     1      -8.613  12.834  66.871  1.00  0.00    -0.137 C  
HETATM   50  C   UNL     1     -10.707  13.571  68.055  1.00  0.00    -0.263 C  
HETATM   51  H   UNL     1      -7.150  13.953  66.256  1.00  0.00     0.000 HD 
HETATM   52  O   UNL     1      -7.223  13.131  66.727  1.00  0.00     0.268 OA 
HETATM   53  O   UNL     1     -10.075  11.260  68.028  1.00  0.00    -0.169 OA 
HETATM   54  C   UNL     1     -10.519  12.308  68.896  1.00  0.00    -0.101 C  
BRANCH  48  55
HETATM   55  N   UNL     1      -9.606  15.083  66.377  1.00  0.00    -0.271 NA 
HETATM   56  C   UNL     1      -8.485  16.005  66.212  1.00  0.00    -0.302 C  
HETATM   57  C   UNL     1     -10.031  14.573  65.078  1.00  0.00    -0.171 C  
ENDBRANCH  48  55
ENDBRANCH  45  46
ENDBRANCH  13  45
ENDBRANCH   2   3
TORSDOF 7
ENDMDL
MODEL      111
REMARK 921   NORMALIZED FREE ENERGY PREDICTED BY IDOCK:   45.15 KCAL/MOL
REMARK 922        TOTAL FREE ENERGY PREDICTED BY IDOCK:   61.04 KCAL/MOL
REMARK 923 INTER-LIGAND FREE ENERGY PREDICTED BY IDOCK:   34.59 KCAL/MOL
REMARK 924 INTRA-LIGAND FREE ENERGY PREDICTED BY IDOCK:   26.45 KCAL/MOL
REMARK 927      BINDING AFFINITY PREDICTED BY RF-SCORE:    0.00 PKD
ROOT
HETATM    1  C   UNL     1     -11.660  16.097  63.530  1.00  0.00     1.941 C  
HETATM    2  C   UNL     1     -12.098  15.515  64.866  1.00  0.00     0.152 C  
ENDROOT
BRANCH   2   3
HETATM    3  C   UNL     1     -11.770  16.412  66.088  1.00  0.00     1.213 C  
HETATM    4  O   UNL     1     -12.225  15.973  67.420  1.00  0.00     0.774 OA 
HETATM    5  C   UNL     1     -12.316  14.678  67.794  1.00  0.00     0.135 C  
HETATM    6  C   UNL     1     -12.769  14.502  69.256  1.00  0.00     0.292 C  
HETATM    7  O   UNL     1     -12.118  13.746  67.036  1.00  0.00    -0.406 OA 
HETATM    8  C   UNL     1     -12.795  15.845  70.000  1.00  0.00     0.396 C  
HETATM    9  C   UNL     1     -12.046  13.354  70.112  1.00  0.00    -0.344 C  
HETATM   10  C   UNL     1      -6.105  15.034  65.844  1.00  0.00     6.850 C  
HETATM   11  C   UNL     1     -11.500  12.133  69.239  1.00  0.00    -0.363 C  
HETATM   12  C   UNL     1      -8.529  15.687  68.670  1.00  0.00    -0.179 C  
HETATM   13  C   UNL     1     -10.499  11.083  69.963  1.00  0.00     0.351 C  
HETATM   14  C   UNL     1     -12.790  11.536  68.631  1.00  0.00     1.870 C  
HETATM   15  C   UNL     1      -8.003  15.783  67.233  1.00  0.00    -0.186 C  
HETATM   16  C   UNL     1      -9.164  15.806  66.160  1.00  0.00    -0.350 C  
HETATM   17  C   UNL     1      -8.848  11.138  69.988  1.00  0.00     1.620 C  
HETATM   18  C   UNL     1      -8.106  12.423  69.514  1.00  0.00     1.159 C  
HETATM   19  C   UNL     1     -10.281  16.912  66.226  1.00  0.00    -0.329 C  
HETATM   20  C   UNL     1      -8.045   9.902  69.563  1.00  0.00    -0.155 C  
HETATM   21  H   UNL     1      -9.303  17.975  67.529  1.00  0.00     0.000 HD 
HETATM   22  O   UNL     1      -8.572  11.106  71.445  1.00  0.00     5.359 OA 
HETATM   23  C   UNL     1      -7.394  12.453  68.121  1.00  0.00    -0.111 C  
HETATM   24  H   UNL     1     -10.436  14.523  65.408  1.00  0.00     0.000 HD 
HETATM   25  N   UNL     1      -7.079  14.674  66.872  1.00  0.00     0.152 NA 
HETATM   26  C   UNL     1      -8.272  12.095  66.930  1.00  0.00    -0.134 C  
HETATM   27  H   UNL     1      -7.622  11.138  71.460  1.00  0.00     0.000 HD 
HETATM   28  C   UNL     1      -9.987  17.963  65.137  1.00  0.00     1.381 C  
HETATM   29  C   UNL     1      -6.544  13.743  67.868  1.00  0.00    -0.160 C  
HETATM   30  O   UNL     1     -10.201  17.674  67.446  1.00  0.00    -0.319 OA 
HETATM   31  O   UNL     1      -9.737  14.509  66.053  1.00  0.00    -0.298 OA 
BRANCH   9  32
HETATM   32  O   UNL     1     -13.104  12.946  71.034  1.00  0.00    -0.154 OA 
BRANCH  32  33
HETATM   33  C   UNL     1     -13.173  13.533  72.330  1.00  0.00    -0.477 C  
HETATM   34  O   UNL     1     -11.461  17.372  71.756  1.00  0.00     0.145 OA 
HETATM   35  C   UNL     1     -12.030  16.196  72.333  1.00  0.00    -0.554 C  
HETATM   36  H   UNL     1     -12.045  18.120  71.799  1.00  0.00     0.000 HD 
HETATM   37  C   UNL     1     -11.075  14.974  72.262  1.00  0.00     0.314 C  
HETATM   38  O   UNL     1     -13.985  14.714  72.335  1.00  0.00    -0.452 OA 
HETATM   39  C   UNL     1     -14.378  17.004  71.864  1.00  0.00     6.852 C  
HETATM   40  C   UNL     1     -13.395  15.845  71.704  1.00  0.00    -0.133 C  
HETATM   41  C   UNL     1     -11.810  13.813  72.964  1.00  0.00     1.718 C  
HETATM   42  C   UNL     1      -9.756  15.206  73.009  1.00  0.00     6.688 C  
BRANCH  37  43
HETATM   43  O   UNL     1     -10.823  14.533  70.916  1.00  0.00     0.174 OA 
HETATM   44  C   UNL     1      -9.492  14.548  70.434  1.00  0.00     1.578 C  
ENDBRANCH  37  43
ENDBRANCH  32  33
ENDBRANCH   9  32
BRANCH  13  45
HETATM   45  O   UNL     1     -10.986   9.730  70.186  1.00  0.00    -0.250 OA 
BRANCH  45  46
HETATM   46  C   UNL     1     -10.091   8.608  70.137  1.00  0.00    -0.185 C  
HETATM   47  C   UNL     1      -6.922   8.085  71.861  1.00  0.00    -0.072 C  
HETATM   48  C   UNL     1      -8.696   7.062  68.542  1.00  0.00    -0.122 C  
HETATM   49  C   UNL     1      -9.845   8.074  68.726  1.00  0.00    -0.172 C  
HETATM   50  C   UNL     1      -7.537   7.430  69.490  1.00  0.00    -0.099 C  
HETATM   51  H   UNL     1     -10.924   7.201  67.368  1.00  0.00     0.000 HD 
HETATM   52  O   UNL     1     -11.077   7.533  68.245  1.00  0.00     0.042 OA 
HETATM   53  O   UNL     1      -8.866   8.946  70.784  1.00  0.00    -0.168 OA 
HETATM   54  C   UNL     1      -8.044   7.779  70.890  1.00  0.00    -0.102 C  
BRANCH  48  55
HETATM   55  N   UNL     1      -8.236   7.031  67.110  1.00  0.00    -0.117 NA 
HETATM   56  C   UNL     1      -8.271   8.341  66.463  1.00  0.00    -0.106 C  
HETATM   57  C   UNL     1      -6.948   6.388  66.871  1.00  0.00    -0.068 C  
ENDBRANCH  48  55
ENDBRANCH  45  46
ENDBRANCH  13  45
ENDBRANCH   2   3
TORSDOF 7
ENDMDL
MODEL      112
REMARK 921   NORMALIZED FREE ENERGY PREDICTED BY IDOCK:   45.75 KCAL/MOL
REMARK 922        TOTAL FREE ENERGY PREDICTED BY IDOCK:   61.90 KCAL/MOL
REMARK 923 INTER-LIGAND FREE ENERGY PREDICTED BY IDOCK:   16.23 KCAL/MOL
REMARK 924 INTRA-LIGAND FREE ENERGY PREDICTED BY IDOCK:   45.67 KCAL/MOL
REMARK 927      BINDING AFFINITY PREDICTED BY RF-SCORE:    0.00 PKD
ROOT
HETATM    1  C   UNL     1      -8.303   7.070  72.966  1.00  0.00    -0.122 C  
HETATM    2  C   UNL     1      -9.662   6.678  73.529  1.00  0.00    -0.213 C  
ENDROOT
BRANCH   2   3
HETATM    3  C   UNL     1     -10.776   6.539  72.458  1.00  0.00    -0.226 C  
HETATM    4  O   UNL     1     -11.402   7.768  71.936  1.00  0.00    -0.251 OA 
HETATM    5  C   UNL     1     -10.747   8.940  71.790  1.00  0.00    -0.362 C  
HETATM    6  C   UNL     1     -11.624  10.048  71.176  1.00  0.00    -0.460 C  
HETATM    7  O   UNL     1      -9.601   9.119  72.160  1.00  0.00    -0.276 OA 
HETATM    8  C   UNL     1     -12.963   9.490  70.675  1.00  0.00     0.044 C  
HETATM    9  C   UNL     1     -10.933  11.012  70.095  1.00  0.00     0.006 C  
HETATM   10  C   UNL     1      -6.941   4.893  68.380  1.00  0.00    -0.057 C  
HETATM   11  C   UNL     1      -9.357  11.184  70.286  1.00  0.00     2.217 C  
HETATM   12  C   UNL     1     -10.075   7.004  68.336  1.00  0.00    -0.176 C  
HETATM   13  C   UNL     1      -8.528  11.883  69.080  1.00  0.00     0.266 C  
HETATM   14  C   UNL     1      -9.245  11.861  71.671  1.00  0.00    15.272 C  
HETATM   15  C   UNL     1      -9.121   5.935  68.881  1.00  0.00    -0.120 C  
HETATM   16  C   UNL     1      -9.130   5.859  70.461  1.00  0.00    -0.148 C  
HETATM   17  C   UNL     1      -7.779  11.126  67.817  1.00  0.00    -0.112 C  
HETATM   18  C   UNL     1      -8.056   9.619  67.539  1.00  0.00    -0.114 C  
HETATM   19  C   UNL     1     -10.473   5.593  71.234  1.00  0.00    -0.236 C  
HETATM   20  C   UNL     1      -6.306  11.434  67.520  1.00  0.00    -0.069 C  
HETATM   21  H   UNL     1     -11.429   5.090  69.616  1.00  0.00     0.000 HD 
HETATM   22  O   UNL     1      -8.398  11.805  66.653  1.00  0.00    -0.190 OA 
HETATM   23  C   UNL     1      -6.989   8.538  67.917  1.00  0.00    -0.074 C  
HETATM   24  H   UNL     1      -8.456   6.945  71.943  1.00  0.00     0.000 HD 
HETATM   25  N   UNL     1      -7.712   6.132  68.447  1.00  0.00    -0.101 NA 
HETATM   26  C   UNL     1      -6.534   8.549  69.369  1.00  0.00    -0.037 C  
HETATM   27  H   UNL     1      -7.968  11.369  65.927  1.00  0.00     0.000 HD 
HETATM   28  C   UNL     1     -10.479   4.124  71.702  1.00  0.00     0.058 C  
HETATM   29  C   UNL     1      -7.336   7.097  67.412  1.00  0.00    -0.092 C  
HETATM   30  O   UNL     1     -11.612   5.660  70.354  1.00  0.00     0.089 OA 
HETATM   31  O   UNL     1      -8.451   6.990  70.993  1.00  0.00    -0.130 OA 
BRANCH   9  32
HETATM   32  O   UNL     1     -11.655  12.267  70.297  1.00  0.00    -0.196 OA 
BRANCH  32  33
HETATM   33  C   UNL     1     -12.503  12.765  69.267  1.00  0.00     0.322 C  
HETATM   34  O   UNL     1     -10.144  15.775  67.431  1.00  0.00    -0.239 OA 
HETATM   35  C   UNL     1     -11.217  14.909  67.802  1.00  0.00    -0.321 C  
HETATM   36  H   UNL     1      -9.816  15.599  66.556  1.00  0.00     0.000 HD 
HETATM   37  C   UNL     1     -11.752  15.197  69.230  1.00  0.00    -0.329 C  
HETATM   38  O   UNL     1     -11.932  12.568  67.967  1.00  0.00    -0.342 OA 
HETATM   39  C   UNL     1     -10.407  13.102  66.232  1.00  0.00    -0.291 C  
HETATM   40  C   UNL     1     -10.833  13.420  67.665  1.00  0.00    -0.259 C  
HETATM   41  C   UNL     1     -12.926  14.222  69.454  1.00  0.00     0.811 C  
HETATM   42  C   UNL     1     -12.296  16.623  69.385  1.00  0.00     1.586 C  
BRANCH  37  43
HETATM   43  O   UNL     1     -10.790  14.910  70.261  1.00  0.00    -0.199 OA 
HETATM   44  C   UNL     1      -9.484  14.518  69.882  1.00  0.00     0.693 C  
ENDBRANCH  37  43
ENDBRANCH  32  33
ENDBRANCH   9  32
BRANCH  13  45
HETATM   45  O   UNL     1      -7.945  13.193  69.332  1.00  0.00     0.469 OA 
BRANCH  45  46
HETATM   46  C   UNL     1      -7.624  14.076  68.247  1.00  0.00    -0.135 C  
HETATM   47  C   UNL     1      -5.565  17.084  68.228  1.00  0.00    -0.123 C  
HETATM   48  C   UNL     1      -8.635  15.580  66.350  1.00  0.00    -0.257 C  
HETATM   49  C   UNL     1      -8.819  14.432  67.363  1.00  0.00    -0.203 C  
HETATM   50  C   UNL     1      -7.723  16.661  66.967  1.00  0.00    -0.235 C  
HETATM   51  H   UNL     1      -9.984  13.459  66.152  1.00  0.00     0.000 HD 
HETATM   52  O   UNL     1      -9.241  13.238  66.702  1.00  0.00    -0.250 OA 
HETATM   53  O   UNL     1      -6.988  15.246  68.755  1.00  0.00    -0.103 OA 
HETATM   54  C   UNL     1      -6.512  16.043  67.666  1.00  0.00    -0.164 C  
BRANCH  48  55
HETATM   55  N   UNL     1      -9.965  16.157  65.949  1.00  0.00    -0.338 NA 
HETATM   56  C   UNL     1     -10.548  17.028  66.967  1.00  0.00    -0.226 C  
HETATM   57  C   UNL     1     -10.006  16.812  64.646  1.00  0.00     2.172 C  
ENDBRANCH  48  55
ENDBRANCH  45  46
ENDBRANCH  13  45
ENDBRANCH   2   3
TORSDOF 7
ENDMDL
MODEL      113
REMARK 921   NORMALIZED FREE ENERGY PREDICTED BY IDOCK:   48.76 KCAL/MOL
REMARK 922        TOTAL FREE ENERGY PREDICTED BY IDOCK:   66.14 KCAL/MOL
REMARK 923 INTER-LIGAND FREE ENERGY PREDICTED BY IDOCK:   33.67 KCAL/MOL
REMARK 924 INTRA-LIGAND FREE ENERGY PREDICTED BY IDOCK:   32.47 KCAL/MOL
REMARK 927      BINDING AFFINITY PREDICTED BY RF-SCORE:    0.00 PKD
ROOT
HETATM    1  C   UNL     1     -12.030   4.834  66.280  1.00  0.00     4.435 C  
HETATM    2  C   UNL     1     -11.521   6.247  66.030  1.00  0.00     1.974 C  
ENDROOT
BRANCH   2   3
HETATM    3  C   UNL     1     -10.194   6.311  65.230  1.00  0.00     1.884 C  
HETATM    4  O   UNL     1      -9.765   7.615  64.691  1.00  0.00     2.001 OA 
HETATM    5  C   UNL     1     -10.011   8.796  65.298  1.00  0.00     0.934 C  
HETATM    6  C   UNL     1      -9.408   9.998  64.546  1.00  0.00    -0.345 C  
HETATM    7  O   UNL     1     -10.690   8.906  66.303  1.00  0.00     0.090 OA 
HETATM    8  C   UNL     1      -8.485   9.541  63.408  1.00  0.00    -0.197 C  
HETATM    9  C   UNL     1      -8.738  11.155  65.434  1.00  0.00    -0.057 C  
HETATM   10  C   UNL     1      -7.008   5.497  70.051  1.00  0.00    -0.061 C  
HETATM   11  C   UNL     1      -9.356  11.293  66.900  1.00  0.00    -0.190 C  
HETATM   12  C   UNL     1      -6.551   7.564  66.920  1.00  0.00    -0.061 C  
HETATM   13  C   UNL     1      -8.555  12.215  67.967  1.00  0.00    -0.175 C  
HETATM   14  C   UNL     1     -10.825  11.691  66.623  1.00  0.00    -0.327 C  
HETATM   15  C   UNL     1      -7.115   6.413  67.762  1.00  0.00    -0.085 C  
HETATM   16  C   UNL     1      -8.597   6.036  67.361  1.00  0.00    -0.102 C  
HETATM   17  C   UNL     1      -7.411  11.718  69.049  1.00  0.00    -0.055 C  
HETATM   18  C   UNL     1      -6.797  10.291  68.932  1.00  0.00    -0.059 C  
HETATM   19  C   UNL     1      -8.936   5.620  65.882  1.00  0.00    -0.155 C  
HETATM   20  C   UNL     1      -7.565  12.083  70.531  1.00  0.00     3.590 C  
HETATM   21  H   UNL     1      -7.062   5.433  65.392  1.00  0.00     0.000 HD 
HETATM   22  O   UNL     1      -6.273  12.606  68.707  1.00  0.00    -0.066 OA 
HETATM   23  C   UNL     1      -7.230   9.163  69.926  1.00  0.00    -0.062 C  
HETATM   24  H   UNL     1     -10.377   6.819  67.580  1.00  0.00     0.000 HD 
HETATM   25  N   UNL     1      -7.103   6.696  69.223  1.00  0.00    -0.081 NA 
HETATM   26  C   UNL     1      -8.727   8.896  70.000  1.00  0.00    -0.151 C  
HETATM   27  H   UNL     1      -5.614  12.319  69.330  1.00  0.00     0.000 HD 
HETATM   28  C   UNL     1      -9.107   4.088  65.837  1.00  0.00    -0.143 C  
HETATM   29  C   UNL     1      -6.396   7.844  69.794  1.00  0.00    -0.030 C  
HETATM   30  O   UNL     1      -7.820   5.850  64.999  1.00  0.00    -0.093 OA 
HETATM   31  O   UNL     1      -9.486   7.046  67.822  1.00  0.00    -0.125 OA 
BRANCH   9  32
HETATM   32  O   UNL     1      -8.976  12.344  64.619  1.00  0.00     0.714 OA 
BRANCH  32  33
HETATM   33  C   UNL     1      -9.915  12.288  63.549  1.00  0.00    -0.226 C  
HETATM   34  O   UNL     1     -13.004  14.901  64.826  1.00  0.00    -0.294 OA 
HETATM   35  C   UNL     1     -12.227  13.947  64.101  1.00  0.00    -0.393 C  
HETATM   36  H   UNL     1     -13.096  15.726  64.363  1.00  0.00     0.000 HD 
HETATM   37  C   UNL     1     -12.077  12.600  64.858  1.00  0.00    -0.438 C  
HETATM   38  O   UNL     1     -10.099  13.571  62.938  1.00  0.00     2.971 OA 
HETATM   39  C   UNL     1     -10.976  15.774  62.882  1.00  0.00     6.865 C  
HETATM   40  C   UNL     1     -10.838  14.503  63.721  1.00  0.00     1.537 C  
HETATM   41  C   UNL     1     -11.262  11.674  63.930  1.00  0.00    -0.479 C  
HETATM   42  C   UNL     1     -13.423  11.917  65.129  1.00  0.00     3.380 C  
BRANCH  37  43
HETATM   43  O   UNL     1     -11.316  12.717  66.074  1.00  0.00    -0.295 OA 
HETATM   44  C   UNL     1      -9.915  12.530  66.020  1.00  0.00    -0.257 C  
ENDBRANCH  37  43
ENDBRANCH  32  33
ENDBRANCH   9  32
BRANCH  13  45
HETATM   45  O   UNL     1      -9.186  13.454  68.396  1.00  0.00    -0.195 OA 
BRANCH  45  46
HETATM   46  C   UNL     1      -9.687  14.395  67.435  1.00  0.00    -0.220 C  
HETATM   47  C   UNL     1      -7.897  16.299  64.894  1.00  0.00     6.244 C  
HETATM   48  C   UNL     1     -11.077  16.600  67.132  1.00  0.00     0.095 C  
HETATM   49  C   UNL     1     -10.696  15.389  68.009  1.00  0.00    -0.279 C  
HETATM   50  C   UNL     1      -9.838  17.060  66.336  1.00  0.00    -0.312 C  
HETATM   51  H   UNL     1     -12.489  15.272  68.745  1.00  0.00     0.000 HD 
HETATM   52  O   UNL     1     -11.862  14.655  68.389  1.00  0.00    -0.315 OA 
HETATM   53  O   UNL     1      -8.596  15.067  66.810  1.00  0.00    -0.244 OA 
HETATM   54  C   UNL     1      -9.084  15.874  65.734  1.00  0.00    -0.153 C  
BRANCH  48  55
HETATM   55  N   UNL     1     -11.625  17.719  67.975  1.00  0.00     0.808 NA 
HETATM   56  C   UNL     1     -12.079  17.280  69.293  1.00  0.00     2.979 C  
HETATM   57  C   UNL     1     -10.771  18.894  68.105  1.00  0.00    -0.115 C  
ENDBRANCH  48  55
ENDBRANCH  45  46
ENDBRANCH  13  45
ENDBRANCH   2   3
TORSDOF 7
ENDMDL
MODEL      114
REMARK 921   NORMALIZED FREE ENERGY PREDICTED BY IDOCK:   48.93 KCAL/MOL
REMARK 922        TOTAL FREE ENERGY PREDICTED BY IDOCK:   66.37 KCAL/MOL
REMARK 923 INTER-LIGAND FREE ENERGY PREDICTED BY IDOCK:   34.62 KCAL/MOL
REMARK 924 INTRA-LIGAND FREE ENERGY PREDICTED BY IDOCK:   31.75 KCAL/MOL
REMARK 927      BINDING AFFINITY PREDICTED BY RF-SCORE:    0.00 PKD
ROOT
HETATM    1  C   UNL     1      -5.749  17.654  64.050  1.00  0.00     2.619 C  
HETATM    2  C   UNL     1      -5.472  18.408  65.342  1.00  0.00    -0.225 C  
ENDROOT
BRANCH   2   3
HETATM    3  C   UNL     1      -6.747  18.923  66.062  1.00  0.00    -0.240 C  
HETATM    4  O   UNL     1      -8.040  18.300  65.724  1.00  0.00    -0.513 OA 
HETATM    5  C   UNL     1      -8.181  17.001  65.380  1.00  0.00     1.600 C  
HETATM    6  C   UNL     1      -9.647  16.600  65.127  1.00  0.00     1.036 C  
HETATM    7  O   UNL     1      -7.241  16.242  65.228  1.00  0.00     2.490 OA 
HETATM    8  C   UNL     1     -10.613  17.718  65.543  1.00  0.00    -0.044 C  
HETATM    9  C   UNL     1     -10.117  15.166  65.674  1.00  0.00    -0.363 C  
HETATM   10  C   UNL     1      -5.126  16.500  71.117  1.00  0.00    -0.125 C  
HETATM   11  C   UNL     1      -8.945  14.086  65.766  1.00  0.00     0.662 C  
HETATM   12  C   UNL     1      -8.450  16.989  69.387  1.00  0.00     0.297 C  
HETATM   13  C   UNL     1      -9.249  12.718  66.582  1.00  0.00    -0.212 C  
HETATM   14  C   UNL     1      -8.509  13.918  64.292  1.00  0.00     8.092 C  
HETATM   15  C   UNL     1      -6.979  17.294  69.694  1.00  0.00     0.119 C  
HETATM   16  C   UNL     1      -6.183  17.794  68.422  1.00  0.00    -0.179 C  
HETATM   17  C   UNL     1      -8.953  12.426  68.180  1.00  0.00    -0.196 C  
HETATM   18  C   UNL     1      -8.582  13.604  69.130  1.00  0.00     0.466 C  
HETATM   19  C   UNL     1      -6.672  19.063  67.630  1.00  0.00    -0.204 C  
HETATM   20  C   UNL     1      -8.157  11.178  68.585  1.00  0.00    -0.150 C  
HETATM   21  H   UNL     1      -7.924  19.583  69.025  1.00  0.00     0.000 HD 
HETATM   22  O   UNL     1     -10.294  12.013  68.661  1.00  0.00    -0.216 OA 
HETATM   23  C   UNL     1      -7.104  13.797  69.606  1.00  0.00     0.198 C  
HETATM   24  H   UNL     1      -5.480  17.001  66.778  1.00  0.00     0.000 HD 
HETATM   25  N   UNL     1      -6.244  16.128  70.255  1.00  0.00    -0.049 NA 
HETATM   26  C   UNL     1      -6.068  13.903  68.495  1.00  0.00    -0.093 C  
HETATM   27  H   UNL     1     -10.124  11.845  69.580  1.00  0.00     0.000 HD 
HETATM   28  C   UNL     1      -5.757  20.246  68.000  1.00  0.00    -0.253 C  
HETATM   29  C   UNL     1      -6.925  14.908  70.694  1.00  0.00     0.481 C  
HETATM   30  O   UNL     1      -7.970  19.499  68.079  1.00  0.00    -0.291 OA 
HETATM   31  O   UNL     1      -5.958  16.700  67.542  1.00  0.00    -0.126 OA 
BRANCH   9  32
HETATM   32  O   UNL     1     -11.142  14.789  64.702  1.00  0.00    -0.371 OA 
BRANCH  32  33
HETATM   33  C   UNL     1     -12.508  14.739  65.103  1.00  0.00    -0.109 C  
HETATM   34  O   UNL     1     -12.440  16.401  69.007  1.00  0.00    -0.156 OA 
HETATM   35  C   UNL     1     -12.845  15.769  67.791  1.00  0.00     2.548 C  
HETATM   36  H   UNL     1     -12.829  17.259  69.121  1.00  0.00     0.000 HD 
HETATM   37  C   UNL     1     -12.208  14.367  67.605  1.00  0.00    -0.165 C  
HETATM   38  O   UNL     1     -13.033  16.047  65.360  1.00  0.00     2.111 OA 
HETATM   39  C   UNL     1     -13.274  18.000  66.683  1.00  0.00    10.698 C  
HETATM   40  C   UNL     1     -12.560  16.654  66.558  1.00  0.00     4.358 C  
HETATM   41  C   UNL     1     -12.779  13.807  66.285  1.00  0.00    -0.258 C  
HETATM   42  C   UNL     1     -12.583  13.389  68.725  1.00  0.00     0.573 C  
BRANCH  37  43
HETATM   43  O   UNL     1     -10.779  14.414  67.434  1.00  0.00    -0.274 OA 
HETATM   44  C   UNL     1      -9.954  13.939  68.481  1.00  0.00    -0.221 C  
ENDBRANCH  37  43
ENDBRANCH  32  33
ENDBRANCH   9  32
BRANCH  13  45
HETATM   45  O   UNL     1      -9.314  11.479  65.821  1.00  0.00    -0.226 OA 
BRANCH  45  46
HETATM   46  C   UNL     1      -9.257  10.206  66.483  1.00  0.00    -0.153 C  
HETATM   47  C   UNL     1      -7.246   9.158  69.337  1.00  0.00    -0.067 C  
HETATM   48  C   UNL     1      -8.867   7.636  66.133  1.00  0.00    -0.164 C  
HETATM   49  C   UNL     1      -9.207   9.014  65.529  1.00  0.00    -0.198 C  
HETATM   50  C   UNL     1      -7.838   7.818  67.268  1.00  0.00    -0.117 C  
HETATM   51  H   UNL     1     -10.421   8.223  64.235  1.00  0.00     0.000 HD 
HETATM   52  O   UNL     1     -10.451   8.965  64.829  1.00  0.00     2.410 OA 
HETATM   53  O   UNL     1      -8.159  10.189  67.392  1.00  0.00    -0.113 OA 
HETATM   54  C   UNL     1      -8.205   8.992  68.176  1.00  0.00    -0.113 C  
BRANCH  48  55
HETATM   55  N   UNL     1      -8.345   6.702  65.075  1.00  0.00    -0.107 NA 
HETATM   56  C   UNL     1      -9.220   5.557  64.832  1.00  0.00     0.231 C  
HETATM   57  C   UNL     1      -7.970   7.324  63.809  1.00  0.00    -0.078 C  
ENDBRANCH  48  55
ENDBRANCH  45  46
ENDBRANCH  13  45
ENDBRANCH   2   3
TORSDOF 7
ENDMDL
MODEL      115
REMARK 921   NORMALIZED FREE ENERGY PREDICTED BY IDOCK:   55.72 KCAL/MOL
REMARK 922        TOTAL FREE ENERGY PREDICTED BY IDOCK:   75.94 KCAL/MOL
REMARK 923 INTER-LIGAND FREE ENERGY PREDICTED BY IDOCK:   57.49 KCAL/MOL
REMARK 924 INTRA-LIGAND FREE ENERGY PREDICTED BY IDOCK:   18.46 KCAL/MOL
REMARK 927      BINDING AFFINITY PREDICTED BY RF-SCORE:    0.00 PKD
ROOT
HETATM    1  C   UNL     1      -8.056  18.275  69.460  1.00  0.00     0.557 C  
HETATM    2  C   UNL     1      -9.405  18.969  69.335  1.00  0.00     0.061 C  
ENDROOT
BRANCH   2   3
HETATM    3  C   UNL     1     -10.613  17.999  69.267  1.00  0.00     0.352 C  
HETATM    4  O   UNL     1     -10.665  17.022  68.163  1.00  0.00    -0.358 OA 
HETATM    5  C   UNL     1      -9.569  16.456  67.610  1.00  0.00    -0.227 C  
HETATM    6  C   UNL     1      -9.910  15.432  66.510  1.00  0.00    -0.288 C  
HETATM    7  O   UNL     1      -8.430  16.766  67.909  1.00  0.00    -0.194 OA 
HETATM    8  C   UNL     1     -11.417  15.142  66.462  1.00  0.00    -0.171 C  
HETATM    9  C   UNL     1      -9.037  14.086  66.469  1.00  0.00    -0.150 C  
HETATM   10  C   UNL     1      -8.741  15.005  73.912  1.00  0.00    11.406 C  
HETATM   11  C   UNL     1      -7.559  14.248  67.050  1.00  0.00     0.175 C  
HETATM   12  C   UNL     1     -10.471  14.044  70.692  1.00  0.00     1.781 C  
HETATM   13  C   UNL     1      -6.711  12.894  67.331  1.00  0.00    -0.124 C  
HETATM   14  C   UNL     1      -6.914  15.268  66.083  1.00  0.00     3.184 C  
HETATM   15  C   UNL     1     -10.057  14.991  71.824  1.00  0.00     2.384 C  
HETATM   16  C   UNL     1      -9.837  16.476  71.325  1.00  0.00     3.721 C  
HETATM   17  C   UNL     1      -6.628  12.048  68.747  1.00  0.00    -0.082 C  
HETATM   18  C   UNL     1      -7.624  12.366  69.902  1.00  0.00     1.484 C  
HETATM   19  C   UNL     1     -10.999  17.247  70.597  1.00  0.00     1.081 C  
HETATM   20  C   UNL     1      -5.256  11.705  69.341  1.00  0.00    -0.052 C  
HETATM   21  H   UNL     1     -12.333  15.918  71.087  1.00  0.00     0.000 HD 
HETATM   22  O   UNL     1      -7.039  10.692  68.309  1.00  0.00    -0.078 OA 
HETATM   23  C   UNL     1      -7.145  13.167  71.158  1.00  0.00     3.721 C  
HETATM   24  H   UNL     1      -8.497  17.444  70.280  1.00  0.00     0.000 HD 
HETATM   25  N   UNL     1      -8.815  14.562  72.521  1.00  0.00     6.472 NA 
HETATM   26  C   UNL     1      -6.503  14.517  70.867  1.00  0.00     0.156 C  
HETATM   27  H   UNL     1      -6.991  10.206  69.124  1.00  0.00     0.000 HD 
HETATM   28  C   UNL     1     -11.617  18.246  71.595  1.00  0.00     5.081 C  
HETATM   29  C   UNL     1      -8.207  13.247  72.306  1.00  0.00    14.045 C  
HETATM   30  O   UNL     1     -12.100  16.371  70.285  1.00  0.00     0.070 OA 
HETATM   31  O   UNL     1      -8.629  16.552  70.579  1.00  0.00     2.269 OA 
BRANCH   9  32
HETATM   32  O   UNL     1      -9.039  13.763  65.044  1.00  0.00     0.972 OA 
BRANCH  32  33
HETATM   33  C   UNL     1     -10.254  13.370  64.412  1.00  0.00    -0.237 C  
HETATM   34  O   UNL     1     -10.639   9.286  65.497  1.00  0.00     0.217 OA 
HETATM   35  C   UNL     1     -10.828  10.572  64.904  1.00  0.00     0.305 C  
HETATM   36  H   UNL     1     -11.327   9.062  66.112  1.00  0.00     0.000 HD 
HETATM   37  C   UNL     1      -9.704  10.938  63.898  1.00  0.00    -0.303 C  
HETATM   38  O   UNL     1     -11.235  12.947  65.368  1.00  0.00    -0.277 OA 
HETATM   39  C   UNL     1     -12.151  11.385  66.899  1.00  0.00     0.903 C  
HETATM   40  C   UNL     1     -10.976  11.682  65.967  1.00  0.00    -0.286 C  
HETATM   41  C   UNL     1     -10.079  12.317  63.318  1.00  0.00    -0.180 C  
HETATM   42  C   UNL     1      -9.609   9.952  62.727  1.00  0.00     0.020 C  
BRANCH  37  43
HETATM   43  O   UNL     1      -8.418  11.103  64.524  1.00  0.00     0.100 OA 
HETATM   44  C   UNL     1      -8.279  10.765  65.891  1.00  0.00    -0.155 C  
ENDBRANCH  37  43
ENDBRANCH  32  33
ENDBRANCH   9  32
BRANCH  13  45
HETATM   45  O   UNL     1      -5.549  12.640  66.494  1.00  0.00     0.106 OA 
BRANCH  45  46
HETATM   46  C   UNL     1      -5.370  11.369  65.850  1.00  0.00     0.092 C  
HETATM   47  C   UNL     1      -5.872  10.437  62.362  1.00  0.00    -0.127 C  
HETATM   48  C   UNL     1      -6.041   8.834  65.913  1.00  0.00    -0.052 C  
HETATM   49  C   UNL     1      -5.936  10.190  66.640  1.00  0.00    -0.060 C  
HETATM   50  C   UNL     1      -6.404   9.077  64.434  1.00  0.00    -0.071 C  
HETATM   51  H   UNL     1      -5.522   9.329  68.331  1.00  0.00     0.000 HD 
HETATM   52  O   UNL     1      -5.171  10.062  67.840  1.00  0.00    -0.038 OA 
HETATM   53  O   UNL     1      -5.914  11.419  64.533  1.00  0.00     0.652 OA 
HETATM   54  C   UNL     1      -5.581  10.216  63.833  1.00  0.00    -0.129 C  
BRANCH  48  55
HETATM   55  N   UNL     1      -7.055   7.946  66.582  1.00  0.00    -0.075 NA 
HETATM   56  C   UNL     1      -7.850   7.164  65.638  1.00  0.00    -0.112 C  
HETATM   57  C   UNL     1      -6.544   7.083  67.641  1.00  0.00    -0.055 C  
ENDBRANCH  48  55
ENDBRANCH  45  46
ENDBRANCH  13  45
ENDBRANCH   2   3
TORSDOF 7
ENDMDL
MODEL      116
REMARK 921   NORMALIZED FREE ENERGY PREDICTED BY IDOCK:   56.89 KCAL/MOL
REMARK 922        TOTAL FREE ENERGY PREDICTED BY IDOCK:   77.59 KCAL/MOL
REMARK 923 INTER-LIGAND FREE ENERGY PREDICTED BY IDOCK:   67.59 KCAL/MOL
REMARK 924 INTRA-LIGAND FREE ENERGY PREDICTED BY IDOCK:    9.99 KCAL/MOL
REMARK 927      BINDING AFFINITY PREDICTED BY RF-SCORE:    0.00 PKD
ROOT
HETATM    1  C   UNL     1      -9.596  17.133  62.821  1.00  0.00    19.981 C  
HETATM    2  C   UNL     1     -10.808  17.440  63.689  1.00  0.00     6.493 C  
ENDROOT
BRANCH   2   3
HETATM    3  C   UNL     1     -10.469  18.155  65.023  1.00  0.00     1.214 C  
HETATM    4  O   UNL     1     -11.231  17.783  66.230  1.00  0.00     0.386 OA 
HETATM    5  C   UNL     1     -11.705  16.539  66.464  1.00  0.00     1.292 C  
HETATM    6  C   UNL     1     -12.421  16.413  67.823  1.00  0.00     2.077 C  
HETATM    7  O   UNL     1     -11.627  15.628  65.660  1.00  0.00     0.011 OA 
HETATM    8  C   UNL     1     -12.228  17.675  68.677  1.00  0.00     3.782 C  
HETATM    9  C   UNL     1     -12.159  15.072  68.665  1.00  0.00    -0.163 C  
HETATM   10  C   UNL     1      -5.372  15.349  65.473  1.00  0.00     8.042 C  
HETATM   11  C   UNL     1     -11.804  13.799  67.771  1.00  0.00    -0.404 C  
HETATM   12  C   UNL     1      -7.982  16.469  67.968  1.00  0.00    -0.161 C  
HETATM   13  C   UNL     1     -11.231  12.485  68.531  1.00  0.00    -0.283 C  
HETATM   14  C   UNL     1     -13.086  13.594  66.930  1.00  0.00     1.700 C  
HETATM   15  C   UNL     1      -7.221  16.498  66.637  1.00  0.00    -0.210 C  
HETATM   16  C   UNL     1      -8.148  16.882  65.414  1.00  0.00     1.769 C  
HETATM   17  C   UNL     1      -9.647  12.103  68.800  1.00  0.00     0.039 C  
HETATM   18  C   UNL     1      -8.538  13.170  68.558  1.00  0.00    -0.056 C  
HETATM   19  C   UNL     1      -8.946  18.238  65.420  1.00  0.00     1.511 C  
HETATM   20  C   UNL     1      -9.123  10.723  68.383  1.00  0.00    -0.164 C  
HETATM   21  H   UNL     1      -7.958  18.936  66.943  1.00  0.00     0.000 HD 
HETATM   22  O   UNL     1      -9.630  11.923  70.272  1.00  0.00     2.124 OA 
HETATM   23  C   UNL     1      -7.624  13.083  67.291  1.00  0.00    -0.097 C  
HETATM   24  H   UNL     1      -9.560  16.019  64.371  1.00  0.00     0.000 HD 
HETATM   25  N   UNL     1      -6.560  15.206  66.312  1.00  0.00     2.204 NA 
HETATM   26  C   UNL     1      -8.357  13.032  65.958  1.00  0.00     1.171 C  
HETATM   27  H   UNL     1      -8.718  11.704  70.427  1.00  0.00     0.000 HD 
HETATM   28  C   UNL     1      -8.222  19.229  64.487  1.00  0.00     4.174 C  
HETATM   29  C   UNL     1      -6.446  14.116  67.284  1.00  0.00     0.360 C  
HETATM   30  O   UNL     1      -8.876  18.886  66.705  1.00  0.00    -0.295 OA 
HETATM   31  O   UNL     1      -9.003  15.788  65.106  1.00  0.00     0.423 OA 
BRANCH   9  32
HETATM   32  O   UNL     1     -13.422  14.911  69.383  1.00  0.00     1.232 OA 
BRANCH  32  33
HETATM   33  C   UNL     1     -13.461  14.128  70.572  1.00  0.00     0.298 C  
HETATM   34  O   UNL     1     -11.449  16.561  73.407  1.00  0.00     0.084 OA 
HETATM   35  C   UNL     1     -12.114  15.478  72.755  1.00  0.00    -0.444 C  
HETATM   36  H   UNL     1     -11.974  16.951  74.097  1.00  0.00     0.000 HD 
HETATM   37  C   UNL     1     -11.257  14.842  71.629  1.00  0.00     0.173 C  
HETATM   38  O   UNL     1     -14.179  14.791  71.620  1.00  0.00    -0.440 OA 
HETATM   39  C   UNL     1     -14.387  16.424  73.327  1.00  0.00     1.199 C  
HETATM   40  C   UNL     1     -13.495  15.895  72.204  1.00  0.00    -0.268 C  
HETATM   41  C   UNL     1     -12.088  13.670  71.066  1.00  0.00    -0.273 C  
HETATM   42  C   UNL     1      -9.932  14.265  72.144  1.00  0.00     5.907 C  
BRANCH  37  43
HETATM   43  O   UNL     1     -11.023  15.734  70.524  1.00  0.00    -0.317 OA 
HETATM   44  C   UNL     1     -10.048  16.749  70.665  1.00  0.00     1.680 C  
ENDBRANCH  37  43
ENDBRANCH  32  33
ENDBRANCH   9  32
BRANCH  13  45
HETATM   45  O   UNL     1     -12.073  11.299  68.556  1.00  0.00    -0.573 OA 
BRANCH  45  46
HETATM   46  C   UNL     1     -11.974  10.349  69.628  1.00  0.00    -0.136 C  
HETATM   47  C   UNL     1     -12.999  10.659  73.112  1.00  0.00     3.766 C  
HETATM   48  C   UNL     1     -10.326   8.803  70.962  1.00  0.00    -0.233 C  
HETATM   49  C   UNL     1     -10.628   9.628  69.694  1.00  0.00    -0.233 C  
HETATM   50  C   UNL     1     -10.934   9.515  72.188  1.00  0.00     0.511 C  
HETATM   51  H   UNL     1      -9.674   8.369  68.564  1.00  0.00     0.000 HD 
HETATM   52  O   UNL     1     -10.511   8.817  68.523  1.00  0.00    -0.206 OA 
HETATM   53  O   UNL     1     -12.280  10.990  70.864  1.00  0.00    -0.339 OA 
HETATM   54  C   UNL     1     -12.353  10.010  71.905  1.00  0.00    -0.261 C  
BRANCH  48  55
HETATM   55  N   UNL     1      -8.845   8.604  71.130  1.00  0.00    -0.180 NA 
HETATM   56  C   UNL     1      -8.482   8.032  72.425  1.00  0.00    -0.156 C  
HETATM   57  C   UNL     1      -8.176   7.877  70.056  1.00  0.00    -0.119 C  
ENDBRANCH  48  55
ENDBRANCH  45  46
ENDBRANCH  13  45
ENDBRANCH   2   3
TORSDOF 7
ENDMDL
MODEL      117
REMARK 921   NORMALIZED FREE ENERGY PREDICTED BY IDOCK:   56.94 KCAL/MOL
REMARK 922        TOTAL FREE ENERGY PREDICTED BY IDOCK:   77.67 KCAL/MOL
REMARK 923 INTER-LIGAND FREE ENERGY PREDICTED BY IDOCK:   36.22 KCAL/MOL
REMARK 924 INTRA-LIGAND FREE ENERGY PREDICTED BY IDOCK:   41.45 KCAL/MOL
REMARK 927      BINDING AFFINITY PREDICTED BY RF-SCORE:    0.00 PKD
ROOT
HETATM    1  C   UNL     1     -11.710  15.805  67.959  1.00  0.00    -0.116 C  
HETATM    2  C   UNL     1     -10.933  16.639  68.967  1.00  0.00    -0.279 C  
ENDROOT
BRANCH   2   3
HETATM    3  C   UNL     1     -10.848  16.010  70.382  1.00  0.00    -0.286 C  
HETATM    4  O   UNL     1     -11.565  14.745  70.628  1.00  0.00    -0.273 OA 
HETATM    5  C   UNL     1     -11.740  13.787  69.692  1.00  0.00    -0.318 C  
HETATM    6  C   UNL     1     -12.479  12.546  70.230  1.00  0.00    -0.157 C  
HETATM    7  O   UNL     1     -11.402  13.915  68.529  1.00  0.00    -0.248 OA 
HETATM    8  C   UNL     1     -12.642  12.608  71.755  1.00  0.00    -0.121 C  
HETATM    9  C   UNL     1     -11.952  11.112  69.739  1.00  0.00    -0.357 C  
HETATM   10  C   UNL     1      -5.262  14.510  69.611  1.00  0.00    -0.091 C  
HETATM   11  C   UNL     1     -11.254  11.129  68.304  1.00  0.00    -0.343 C  
HETATM   12  C   UNL     1      -8.197  12.893  71.358  1.00  0.00    11.704 C  
HETATM   13  C   UNL     1     -10.427   9.807  67.857  1.00  0.00    -0.239 C  
HETATM   14  C   UNL     1     -12.401  11.565  67.363  1.00  0.00     1.211 C  
HETATM   15  C   UNL     1      -7.393  14.059  70.771  1.00  0.00     1.831 C  
HETATM   16  C   UNL     1      -8.316  15.180  70.144  1.00  0.00     0.581 C  
HETATM   17  C   UNL     1      -8.815   9.521  68.074  1.00  0.00    -0.123 C  
HETATM   18  C   UNL     1      -7.981  10.444  69.012  1.00  0.00    -0.131 C  
HETATM   19  C   UNL     1      -9.413  15.885  71.022  1.00  0.00     2.590 C  
HETATM   20  C   UNL     1      -7.953   9.107  66.874  1.00  0.00    -0.105 C  
HETATM   21  H   UNL     1      -8.707  15.157  72.681  1.00  0.00     0.000 HD 
HETATM   22  O   UNL     1      -8.836   8.229  68.802  1.00  0.00    -0.136 OA 
HETATM   23  C   UNL     1      -7.004  11.507  68.408  1.00  0.00    -0.077 C  
HETATM   24  H   UNL     1      -9.421  15.384  68.542  1.00  0.00     0.000 HD 
HETATM   25  N   UNL     1      -6.425  13.634  69.724  1.00  0.00    -0.097 NA 
HETATM   26  C   UNL     1      -7.629  12.482  67.420  1.00  0.00    -0.156 C  
HETATM   27  H   UNL     1      -7.909   8.065  68.927  1.00  0.00     0.000 HD 
HETATM   28  C   UNL     1      -8.897  17.285  71.409  1.00  0.00     9.065 C  
HETATM   29  C   UNL     1      -6.109  12.227  69.472  1.00  0.00    -0.118 C  
HETATM   30  O   UNL     1      -9.572  15.231  72.296  1.00  0.00     3.357 OA 
HETATM   31  O   UNL     1      -8.867  14.710  68.919  1.00  0.00    -0.179 OA 
BRANCH   9  32
HETATM   32  O   UNL     1     -13.177  10.315  69.750  1.00  0.00     0.108 OA 
BRANCH  32  33
HETATM   33  C   UNL     1     -13.182   9.038  70.380  1.00  0.00     0.938 C  
HETATM   34  O   UNL     1      -9.400   8.885  72.299  1.00  0.00    -0.360 OA 
HETATM   35  C   UNL     1     -10.688   8.555  71.777  1.00  0.00    -0.303 C  
HETATM   36  H   UNL     1      -9.391   8.934  73.248  1.00  0.00     0.000 HD 
HETATM   37  C   UNL     1     -10.703   8.475  70.227  1.00  0.00    -0.230 C  
HETATM   38  O   UNL     1     -13.069   9.149  71.805  1.00  0.00    -0.342 OA 
HETATM   39  C   UNL     1     -11.846   9.535  73.799  1.00  0.00     7.458 C  
HETATM   40  C   UNL     1     -11.779   9.529  72.272  1.00  0.00     0.290 C  
HETATM   41  C   UNL     1     -12.137   8.066  69.831  1.00  0.00     0.864 C  
HETATM   42  C   UNL     1      -9.748   7.409  69.678  1.00  0.00    -0.163 C  
BRANCH  37  43
HETATM   43  O   UNL     1     -10.460   9.745  69.594  1.00  0.00    -0.210 OA 
HETATM   44  C   UNL     1     -10.438  10.911  70.395  1.00  0.00     0.763 C  
ENDBRANCH  37  43
ENDBRANCH  32  33
ENDBRANCH   9  32
BRANCH  13  45
HETATM   45  O   UNL     1     -10.961   9.016  66.759  1.00  0.00    -0.012 OA 
BRANCH  45  46
HETATM   46  C   UNL     1     -10.487   7.683  66.514  1.00  0.00     0.052 C  
HETATM   47  C   UNL     1     -10.117   4.886  68.823  1.00  0.00    -0.169 C  
HETATM   48  C   UNL     1      -8.494   6.270  65.558  1.00  0.00    -0.144 C  
HETATM   49  C   UNL     1      -9.231   7.622  65.645  1.00  0.00     0.175 C  
HETATM   50  C   UNL     1      -8.579   5.556  66.923  1.00  0.00    -0.110 C  
HETATM   51  H   UNL     1      -8.802   8.053  63.801  1.00  0.00     0.000 HD 
HETATM   52  O   UNL     1      -9.582   8.091  64.342  1.00  0.00     1.700 OA 
HETATM   53  O   UNL     1     -10.291   7.010  67.756  1.00  0.00    -0.172 OA 
HETATM   54  C   UNL     1      -9.988   5.633  67.511  1.00  0.00    -0.154 C  
BRANCH  48  55
HETATM   55  N   UNL     1      -7.063   6.468  65.139  1.00  0.00    -0.058 NA 
HETATM   56  C   UNL     1      -6.212   5.315  65.424  1.00  0.00    -0.034 C  
HETATM   57  C   UNL     1      -6.860   6.913  63.764  1.00  0.00    -0.054 C  
ENDBRANCH  48  55
ENDBRANCH  45  46
ENDBRANCH  13  45
ENDBRANCH   2   3
TORSDOF 7
ENDMDL
MODEL      118
REMARK 921   NORMALIZED FREE ENERGY PREDICTED BY IDOCK:   61.04 KCAL/MOL
REMARK 922        TOTAL FREE ENERGY PREDICTED BY IDOCK:   83.44 KCAL/MOL
REMARK 923 INTER-LIGAND FREE ENERGY PREDICTED BY IDOCK:   51.25 KCAL/MOL
REMARK 924 INTRA-LIGAND FREE ENERGY PREDICTED BY IDOCK:   32.18 KCAL/MOL
REMARK 927      BINDING AFFINITY PREDICTED BY RF-SCORE:    0.00 PKD
ROOT
HETATM    1  C   UNL     1      -5.865  17.643  64.070  1.00  0.00     2.991 C  
HETATM    2  C   UNL     1      -5.789  18.488  65.333  1.00  0.00    -0.267 C  
ENDROOT
BRANCH   2   3
HETATM    3  C   UNL     1      -7.158  19.043  65.808  1.00  0.00    -0.253 C  
HETATM    4  O   UNL     1      -8.368  18.245  65.539  1.00  0.00    -0.173 OA 
HETATM    5  C   UNL     1      -8.386  16.895  65.514  1.00  0.00     1.074 C  
HETATM    6  C   UNL     1      -9.791  16.315  65.260  1.00  0.00     0.178 C  
HETATM    7  O   UNL     1      -7.386  16.208  65.623  1.00  0.00     1.246 OA 
HETATM    8  C   UNL     1     -10.867  17.409  65.316  1.00  0.00     0.052 C  
HETATM    9  C   UNL     1     -10.210  15.017  66.105  1.00  0.00    -0.297 C  
HETATM   10  C   UNL     1      -5.852  18.051  71.409  1.00  0.00     0.816 C  
HETATM   11  C   UNL     1      -8.980  14.100  66.546  1.00  0.00    -0.140 C  
HETATM   12  C   UNL     1      -9.027  17.814  69.371  1.00  0.00     0.447 C  
HETATM   13  C   UNL     1      -9.264  12.943  67.647  1.00  0.00    -0.193 C  
HETATM   14  C   UNL     1      -8.398  13.624  65.194  1.00  0.00     4.372 C  
HETATM   15  C   UNL     1      -7.615  18.314  69.701  1.00  0.00     0.535 C  
HETATM   16  C   UNL     1      -6.740  18.566  68.408  1.00  0.00    -0.241 C  
HETATM   17  C   UNL     1      -9.099  13.068  69.286  1.00  0.00     0.956 C  
HETATM   18  C   UNL     1      -8.900  14.467  69.943  1.00  0.00     0.762 C  
HETATM   19  C   UNL     1      -7.239  19.559  67.295  1.00  0.00    -0.213 C  
HETATM   20  C   UNL     1      -8.261  12.030  70.042  1.00  0.00     2.670 C  
HETATM   21  H   UNL     1      -8.649  20.283  68.423  1.00  0.00     0.000 HD 
HETATM   22  O   UNL     1     -10.448  12.664  69.753  1.00  0.00    -0.019 OA 
HETATM   23  C   UNL     1      -7.490  14.900  70.464  1.00  0.00     0.777 C  
HETATM   24  H   UNL     1      -5.834  17.469  67.065  1.00  0.00     0.000 HD 
HETATM   25  N   UNL     1      -6.857  17.386  70.583  1.00  0.00     1.791 NA 
HETATM   26  C   UNL     1      -6.365  14.830  69.441  1.00  0.00    -0.124 C  
HETATM   27  H   UNL     1     -10.353  12.736  70.695  1.00  0.00     0.000 HD 
HETATM   28  C   UNL     1      -6.446  20.874  67.430  1.00  0.00    -0.396 C  
HETATM   29  C   UNL     1      -7.491  16.250  71.257  1.00  0.00     4.786 C  
HETATM   30  O   UNL     1      -8.600  19.972  67.527  1.00  0.00    -0.322 OA 
HETATM   31  O   UNL     1      -6.359  17.317  67.842  1.00  0.00    -0.143 OA 
BRANCH   9  32
HETATM   32  O   UNL     1     -11.111  14.329  65.183  1.00  0.00    -0.318 OA 
BRANCH  32  33
HETATM   33  C   UNL     1     -12.397  14.879  64.914  1.00  0.00    -0.172 C  
HETATM   34  O   UNL     1     -12.245  18.680  66.793  1.00  0.00     3.044 OA 
HETATM   35  C   UNL     1     -12.680  17.505  66.107  1.00  0.00     7.911 C  
HETATM   36  H   UNL     1     -12.216  19.444  66.228  1.00  0.00     0.000 HD 
HETATM   37  C   UNL     1     -12.727  16.258  67.029  1.00  0.00     3.522 C  
HETATM   38  O   UNL     1     -12.308  16.083  64.142  1.00  0.00    -0.632 OA 
HETATM   39  C   UNL     1     -11.857  18.398  63.890  1.00  0.00     9.130 C  
HETATM   40  C   UNL     1     -11.821  17.214  64.857  1.00  0.00     2.042 C  
HETATM   41  C   UNL     1     -13.257  15.100  66.159  1.00  0.00     2.119 C  
HETATM   42  C   UNL     1     -13.688  16.428  68.212  1.00  0.00     6.573 C  
BRANCH  37  43
HETATM   43  O   UNL     1     -11.426  15.849  67.491  1.00  0.00    -0.173 OA 
HETATM   44  C   UNL     1     -11.172  15.837  68.883  1.00  0.00    -0.332 C  
ENDBRANCH  37  43
ENDBRANCH  32  33
ENDBRANCH   9  32
BRANCH  13  45
HETATM   45  O   UNL     1      -9.173  11.558  67.211  1.00  0.00    -0.164 OA 
BRANCH  45  46
HETATM   46  C   UNL     1      -9.540  10.485  68.091  1.00  0.00    -0.154 C  
HETATM   47  C   UNL     1     -11.813  10.488  70.941  1.00  0.00    -0.455 C  
HETATM   48  C   UNL     1      -8.611   8.637  69.704  1.00  0.00    -0.131 C  
HETATM   49  C   UNL     1      -8.360   9.630  68.551  1.00  0.00    -0.117 C  
HETATM   50  C   UNL     1      -9.610   9.258  70.703  1.00  0.00    -0.334 C  
HETATM   51  H   UNL     1      -7.106   8.422  67.692  1.00  0.00     0.000 HD 
HETATM   52  O   UNL     1      -7.840   8.953  67.406  1.00  0.00    -0.096 OA 
HETATM   53  O   UNL     1     -10.268  11.005  69.201  1.00  0.00    -0.210 OA 
HETATM   54  C   UNL     1     -10.784   9.923  69.983  1.00  0.00    -0.292 C  
BRANCH  48  55
HETATM   55  N   UNL     1      -7.321   8.271  70.385  1.00  0.00    -0.054 NA 
HETATM   56  C   UNL     1      -6.551   7.261  69.662  1.00  0.00    -0.040 C  
HETATM   57  C   UNL     1      -6.459   9.389  70.754  1.00  0.00    -0.086 C  
ENDBRANCH  48  55
ENDBRANCH  45  46
ENDBRANCH  13  45
ENDBRANCH   2   3
TORSDOF 7
ENDMDL
MODEL      119
REMARK 921   NORMALIZED FREE ENERGY PREDICTED BY IDOCK:   61.12 KCAL/MOL
REMARK 922        TOTAL FREE ENERGY PREDICTED BY IDOCK:   83.55 KCAL/MOL
REMARK 923 INTER-LIGAND FREE ENERGY PREDICTED BY IDOCK:   55.62 KCAL/MOL
REMARK 924 INTRA-LIGAND FREE ENERGY PREDICTED BY IDOCK:   27.93 KCAL/MOL
REMARK 927      BINDING AFFINITY PREDICTED BY RF-SCORE:    0.00 PKD
ROOT
HETATM    1  C   UNL     1      -6.928   8.863  70.585  1.00  0.00    -0.064 C  
HETATM    2  C   UNL     1      -7.364   9.212  69.169  1.00  0.00    -0.071 C  
ENDROOT
BRANCH   2   3
HETATM    3  C   UNL     1      -8.814   8.780  68.827  1.00  0.00    -0.134 C  
HETATM    4  O   UNL     1      -9.896   9.768  68.994  1.00  0.00    -0.167 OA 
HETATM    5  C   UNL     1      -9.737  11.095  68.797  1.00  0.00    -0.185 C  
HETATM    6  C   UNL     1     -11.041  11.894  68.989  1.00  0.00    -0.300 C  
HETATM    7  O   UNL     1      -8.663  11.614  68.552  1.00  0.00    -0.161 OA 
HETATM    8  C   UNL     1     -12.251  10.961  69.141  1.00  0.00    -0.181 C  
HETATM    9  C   UNL     1     -11.327  13.087  67.955  1.00  0.00    -0.288 C  
HETATM   10  C   UNL     1      -7.659   8.685  63.108  1.00  0.00    -0.112 C  
HETATM   11  C   UNL     1     -10.010  13.746  67.338  1.00  0.00    -0.237 C  
HETATM   12  C   UNL     1     -10.675   9.672  65.161  1.00  0.00     1.622 C  
HETATM   13  C   UNL     1     -10.193  14.741  66.070  1.00  0.00    -0.304 C  
HETATM   14  C   UNL     1      -9.308  14.346  68.578  1.00  0.00    -0.204 C  
HETATM   15  C   UNL     1      -9.358   8.939  64.880  1.00  0.00     0.229 C  
HETATM   16  C   UNL     1      -8.463   8.779  66.174  1.00  0.00    -0.131 C  
HETATM   17  C   UNL     1     -10.125  14.336  64.470  1.00  0.00     0.298 C  
HETATM   18  C   UNL     1     -10.141  12.837  64.046  1.00  0.00    -0.226 C  
HETATM   19  C   UNL     1      -9.033   8.051  67.447  1.00  0.00    -0.134 C  
HETATM   20  C   UNL     1      -9.195  15.118  63.534  1.00  0.00    11.831 C  
HETATM   21  H   UNL     1     -10.577   7.356  66.489  1.00  0.00     0.000 HD 
HETATM   22  O   UNL     1     -11.430  14.842  63.979  1.00  0.00    -0.612 OA 
HETATM   23  C   UNL     1      -8.825  12.139  63.566  1.00  0.00     1.179 C  
HETATM   24  H   UNL     1      -7.358   9.940  67.295  1.00  0.00     0.000 HD 
HETATM   25  N   UNL     1      -8.528   9.603  63.839  1.00  0.00    -0.172 NA 
HETATM   26  C   UNL     1      -7.654  12.217  64.535  1.00  0.00     4.776 C  
HETATM   27  H   UNL     1     -11.390  14.608  63.059  1.00  0.00     0.000 HD 
HETATM   28  C   UNL     1      -8.426   6.636  67.508  1.00  0.00    -0.121 C  
HETATM   29  C   UNL     1      -9.040  10.693  63.005  1.00  0.00    -0.280 C  
HETATM   30  O   UNL     1     -10.446   7.796  67.321  1.00  0.00    -0.272 OA 
HETATM   31  O   UNL     1      -7.896  10.037  66.518  1.00  0.00    -0.109 OA 
BRANCH   9  32
HETATM   32  O   UNL     1     -12.086  14.028  68.775  1.00  0.00    -0.349 OA 
BRANCH  32  33
HETATM   33  C   UNL     1     -12.210  13.801  70.176  1.00  0.00    -0.356 C  
HETATM   34  O   UNL     1     -10.075  17.048  71.880  1.00  0.00     4.305 OA 
HETATM   35  C   UNL     1     -10.808  15.837  71.690  1.00  0.00     0.347 C  
HETATM   36  H   UNL     1     -10.582  17.717  72.325  1.00  0.00     0.000 HD 
HETATM   37  C   UNL     1      -9.979  14.746  70.962  1.00  0.00     1.722 C  
HETATM   38  O   UNL     1     -12.895  14.877  70.829  1.00  0.00    -0.342 OA 
HETATM   39  C   UNL     1     -13.012  17.073  71.716  1.00  0.00     4.638 C  
HETATM   40  C   UNL     1     -12.141  16.079  70.949  1.00  0.00    -0.295 C  
HETATM   41  C   UNL     1     -10.886  13.500  70.880  1.00  0.00     2.481 C  
HETATM   42  C   UNL     1      -8.713  14.348  71.731  1.00  0.00     6.452 C  
BRANCH  37  43
HETATM   43  O   UNL     1      -9.655  15.094  69.603  1.00  0.00    -0.205 OA 
HETATM   44  C   UNL     1      -8.302  15.044  69.193  1.00  0.00    -0.187 C  
ENDBRANCH  37  43
ENDBRANCH  32  33
ENDBRANCH   9  32
BRANCH  13  45
HETATM   45  O   UNL     1      -9.902  16.152  66.272  1.00  0.00    -0.267 OA 
BRANCH  45  46
HETATM   46  C   UNL     1     -10.788  16.984  67.036  1.00  0.00    -0.048 C  
HETATM   47  C   UNL     1     -12.875  19.769  65.954  1.00  0.00     8.259 C  
HETATM   48  C   UNL     1     -10.963  18.556  69.129  1.00  0.00     1.399 C  
HETATM   49  C   UNL     1     -10.206  17.446  68.371  1.00  0.00    -0.362 C  
HETATM   50  C   UNL     1     -11.562  19.548  68.111  1.00  0.00     1.635 C  
HETATM   51  H   UNL     1      -9.681  16.579  70.028  1.00  0.00     0.000 HD 
HETATM   52  O   UNL     1     -10.043  16.292  69.197  1.00  0.00    -0.236 OA 
HETATM   53  O   UNL     1     -11.208  18.091  66.242  1.00  0.00     0.393 OA 
HETATM   54  C   UNL     1     -12.223  18.821  66.939  1.00  0.00     3.975 C  
BRANCH  48  55
HETATM   55  N   UNL     1     -10.051  19.259  70.098  1.00  0.00     0.613 NA 
HETATM   56  C   UNL     1     -10.528  20.586  70.481  1.00  0.00     1.756 C  
HETATM   57  C   UNL     1      -9.679  18.497  71.285  1.00  0.00     4.820 C  
ENDBRANCH  48  55
ENDBRANCH  45  46
ENDBRANCH  13  45
ENDBRANCH   2   3
TORSDOF 7
ENDMDL
MODEL      120
REMARK 921   NORMALIZED FREE ENERGY PREDICTED BY IDOCK:   62.40 KCAL/MOL
REMARK 922        TOTAL FREE ENERGY PREDICTED BY IDOCK:   85.35 KCAL/MOL
REMARK 923 INTER-LIGAND FREE ENERGY PREDICTED BY IDOCK:   57.84 KCAL/MOL
REMARK 924 INTRA-LIGAND FREE ENERGY PREDICTED BY IDOCK:   27.51 KCAL/MOL
REMARK 927      BINDING AFFINITY PREDICTED BY RF-SCORE:    0.00 PKD
ROOT
HETATM    1  C   UNL     1      -6.047   8.214  71.451  1.00  0.00    -0.036 C  
HETATM    2  C   UNL     1      -7.183   8.754  70.594  1.00  0.00    -0.066 C  
ENDROOT
BRANCH   2   3
HETATM    3  C   UNL     1      -8.348   9.379  71.405  1.00  0.00     0.389 C  
HETATM    4  O   UNL     1      -8.291  10.819  71.715  1.00  0.00     5.317 OA 
HETATM    5  C   UNL     1      -7.732  11.741  70.900  1.00  0.00     5.513 C  
HETATM    6  C   UNL     1      -7.854  13.178  71.442  1.00  0.00     8.528 C  
HETATM    7  O   UNL     1      -7.141  11.458  69.874  1.00  0.00    -0.002 OA 
HETATM    8  C   UNL     1      -8.775  13.238  72.669  1.00  0.00    16.942 C  
HETATM    9  C   UNL     1      -8.192  14.333  70.380  1.00  0.00     1.999 C  
HETATM   10  C   UNL     1     -12.022   8.899  66.897  1.00  0.00     5.539 C  
HETATM   11  C   UNL     1      -7.688  14.024  68.897  1.00  0.00    -0.069 C  
HETATM   12  C   UNL     1     -11.529  11.474  69.620  1.00  0.00    -0.373 C  
HETATM   13  C   UNL     1      -8.240  14.975  67.705  1.00  0.00    -0.168 C  
HETATM   14  C   UNL     1      -6.152  13.956  69.058  1.00  0.00    -0.089 C  
HETATM   15  C   UNL     1     -11.435  10.083  68.982  1.00  0.00    -0.012 C  
HETATM   16  C   UNL     1     -10.122   9.307  69.404  1.00  0.00    -0.197 C  
HETATM   17  C   UNL     1      -9.570  14.717  66.761  1.00  0.00    -0.254 C  
HETATM   18  C   UNL     1     -10.596  13.609  67.148  1.00  0.00    -0.272 C  
HETATM   19  C   UNL     1      -9.811   9.045  70.923  1.00  0.00    -0.264 C  
HETATM   20  C   UNL     1      -9.434  14.770  65.234  1.00  0.00     0.267 C  
HETATM   21  H   UNL     1     -11.597   9.566  71.490  1.00  0.00     0.000 HD 
HETATM   22  O   UNL     1     -10.333  15.972  66.970  1.00  0.00    -0.281 OA 
HETATM   23  C   UNL     1     -10.631  12.258  66.360  1.00  0.00    -0.272 C  
HETATM   24  H   UNL     1      -8.211   9.416  68.999  1.00  0.00     0.000 HD 
HETATM   25  N   UNL     1     -11.480  10.117  67.495  1.00  0.00    -0.127 NA 
HETATM   26  C   UNL     1      -9.310  11.505  66.293  1.00  0.00    -0.227 C  
HETATM   27  H   UNL     1     -11.098  15.823  66.428  1.00  0.00     0.000 HD 
HETATM   28  C   UNL     1     -10.134   7.571  71.236  1.00  0.00    -0.197 C  
HETATM   29  C   UNL     1     -11.829  11.326  66.748  1.00  0.00     0.595 C  
HETATM   30  O   UNL     1     -10.716   9.768  71.781  1.00  0.00    -0.005 OA 
HETATM   31  O   UNL     1      -9.000   9.882  68.745  1.00  0.00    -0.130 OA 
BRANCH   9  32
HETATM   32  O   UNL     1      -7.519  15.492  70.964  1.00  0.00     1.522 OA 
BRANCH  32  33
HETATM   33  C   UNL     1      -6.098  15.573  70.928  1.00  0.00     0.319 C  
HETATM   34  O   UNL     1      -5.375  19.690  70.199  1.00  0.00    -0.199 OA 
HETATM   35  C   UNL     1      -5.221  18.283  70.394  1.00  0.00    -0.252 C  
HETATM   36  H   UNL     1      -5.010  20.201  70.911  1.00  0.00     0.000 HD 
HETATM   37  C   UNL     1      -5.818  17.449  69.229  1.00  0.00    -0.210 C  
HETATM   38  O   UNL     1      -5.589  16.429  71.958  1.00  0.00     0.504 OA 
HETATM   39  C   UNL     1      -5.152  18.559  72.905  1.00  0.00     4.215 C  
HETATM   40  C   UNL     1      -5.812  17.819  71.742  1.00  0.00     1.271 C  
HETATM   41  C   UNL     1      -5.528  15.971  69.566  1.00  0.00    -0.122 C  
HETATM   42  C   UNL     1      -5.158  17.755  67.879  1.00  0.00    -0.137 C  
BRANCH  37  43
HETATM   43  O   UNL     1      -7.249  17.564  69.129  1.00  0.00    -0.238 OA 
HETATM   44  C   UNL     1      -8.038  17.226  70.253  1.00  0.00     2.870 C  
ENDBRANCH  37  43
ENDBRANCH  32  33
ENDBRANCH   9  32
BRANCH  13  45
HETATM   45  O   UNL     1      -7.285  15.852  67.044  1.00  0.00    -0.213 OA 
BRANCH  45  46
HETATM   46  C   UNL     1      -7.459  17.277  67.066  1.00  0.00    -0.190 C  
HETATM   47  C   UNL     1      -8.589  19.441  69.773  1.00  0.00     0.634 C  
HETATM   48  C   UNL     1      -8.627  19.302  65.875  1.00  0.00     0.018 C  
HETATM   49  C   UNL     1      -8.151  17.836  65.823  1.00  0.00     0.170 C  
HETATM   50  C   UNL     1      -9.120  19.626  67.301  1.00  0.00    -0.396 C  
HETATM   51  H   UNL     1      -7.709  17.975  63.937  1.00  0.00     0.000 HD 
HETATM   52  O   UNL     1      -7.280  17.627  64.710  1.00  0.00     1.576 OA 
HETATM   53  O   UNL     1      -8.145  17.657  68.256  1.00  0.00    -0.258 OA 
HETATM   54  C   UNL     1      -8.163  19.084  68.363  1.00  0.00    -0.347 C  
BRANCH  48  55
HETATM   55  N   UNL     1      -9.708  19.549  64.859  1.00  0.00     1.494 NA 
HETATM   56  C   UNL     1     -10.886  18.705  65.051  1.00  0.00     1.303 C  
HETATM   57  C   UNL     1     -10.112  20.940  64.686  1.00  0.00     2.457 C  
ENDBRANCH  48  55
ENDBRANCH  45  46
ENDBRANCH  13  45
ENDBRANCH   2   3
TORSDOF 7
ENDMDL
MODEL      121
REMARK 921   NORMALIZED FREE ENERGY PREDICTED BY IDOCK:   62.73 KCAL/MOL
REMARK 922        TOTAL FREE ENERGY PREDICTED BY IDOCK:   85.82 KCAL/MOL
REMARK 923 INTER-LIGAND FREE ENERGY PREDICTED BY IDOCK:   73.10 KCAL/MOL
REMARK 924 INTRA-LIGAND FREE ENERGY PREDICTED BY IDOCK:   12.72 KCAL/MOL
REMARK 927      BINDING AFFINITY PREDICTED BY RF-SCORE:    0.00 PKD
ROOT
HETATM    1  C   UNL     1      -6.110  14.150  72.794  1.00  0.00     0.614 C  
HETATM    2  C   UNL     1      -5.366  12.928  72.273  1.00  0.00     0.222 C  
ENDROOT
BRANCH   2   3
HETATM    3  C   UNL     1      -5.495  12.712  70.742  1.00  0.00    -0.175 C  
HETATM    4  O   UNL     1      -6.002  11.414  70.260  1.00  0.00    -0.138 OA 
HETATM    5  C   UNL     1      -6.916  10.672  70.923  1.00  0.00     1.041 C  
HETATM    6  C   UNL     1      -7.308   9.385  70.171  1.00  0.00    -0.110 C  
HETATM    7  O   UNL     1      -7.341  10.959  72.027  1.00  0.00     4.156 OA 
HETATM    8  C   UNL     1      -6.730   9.370  68.748  1.00  0.00    -0.052 C  
HETATM    9  C   UNL     1      -8.857   8.968  70.194  1.00  0.00    -0.182 C  
HETATM   10  C   UNL     1     -10.020  16.380  70.393  1.00  0.00     0.945 C  
HETATM   11  C   UNL     1      -9.649   9.472  71.485  1.00  0.00     0.312 C  
HETATM   12  C   UNL     1      -9.122  13.146  68.656  1.00  0.00     0.038 C  
HETATM   13  C   UNL     1     -11.268   9.367  71.460  1.00  0.00    -0.386 C  
HETATM   14  C   UNL     1      -8.937   8.734  72.642  1.00  0.00     0.069 C  
HETATM   15  C   UNL     1      -8.839  14.440  69.427  1.00  0.00     0.314 C  
HETATM   16  C   UNL     1      -7.631  14.295  70.438  1.00  0.00     1.170 C  
HETATM   17  C   UNL     1     -12.333  10.533  70.978  1.00  0.00    -0.399 C  
HETATM   18  C   UNL     1     -11.816  11.794  70.223  1.00  0.00    -0.382 C  
HETATM   19  C   UNL     1      -6.214  13.849  69.920  1.00  0.00    -0.136 C  
HETATM   20  C   UNL     1     -13.483  10.936  71.910  1.00  0.00    -0.306 C  
HETATM   21  H   UNL     1      -6.700  14.097  68.053  1.00  0.00     0.000 HD 
HETATM   22  O   UNL     1     -13.114   9.814  69.942  1.00  0.00    -0.061 OA 
HETATM   23  C   UNL     1     -11.716  13.169  70.962  1.00  0.00     0.611 C  
HETATM   24  H   UNL     1      -7.312  13.422  72.159  1.00  0.00     0.000 HD 
HETATM   25  N   UNL     1     -10.013  14.932  70.196  1.00  0.00     0.136 NA 
HETATM   26  C   UNL     1     -10.892  13.165  72.242  1.00  0.00     7.945 C  
HETATM   27  H   UNL     1     -13.726  10.485  69.665  1.00  0.00     0.000 HD 
HETATM   28  C   UNL     1      -5.308  15.094  69.858  1.00  0.00    -0.105 C  
HETATM   29  C   UNL     1     -11.355  14.371  70.025  1.00  0.00    -0.198 C  
HETATM   30  O   UNL     1      -6.266  13.412  68.548  1.00  0.00    -0.074 OA 
HETATM   31  O   UNL     1      -8.037  13.510  71.552  1.00  0.00     6.361 OA 
BRANCH   9  32
HETATM   32  O   UNL     1      -8.783   7.510  70.124  1.00  0.00    -0.140 OA 
BRANCH  32  33
HETATM   33  C   UNL     1      -7.511   6.873  70.049  1.00  0.00    -0.093 C  
HETATM   34  O   UNL     1      -8.490   2.855  69.095  1.00  0.00    -0.058 OA 
HETATM   35  C   UNL     1      -7.793   4.051  69.449  1.00  0.00    -0.052 C  
HETATM   36  H   UNL     1      -8.275   2.550  68.222  1.00  0.00     0.000 HD 
HETATM   37  C   UNL     1      -8.146   4.549  70.875  1.00  0.00    -0.077 C  
HETATM   38  O   UNL     1      -7.262   6.340  68.742  1.00  0.00    -0.079 OA 
HETATM   39  C   UNL     1      -7.572   4.733  67.025  1.00  0.00    -0.087 C  
HETATM   40  C   UNL     1      -8.018   5.178  68.418  1.00  0.00    -0.087 C  
HETATM   41  C   UNL     1      -7.282   5.804  71.118  1.00  0.00    -0.074 C  
HETATM   42  C   UNL     1      -7.798   3.528  71.965  1.00  0.00    -0.059 C  
BRANCH  37  43
HETATM   43  O   UNL     1      -9.515   4.975  71.002  1.00  0.00    -0.148 OA 
HETATM   44  C   UNL     1     -10.413   4.701  69.943  1.00  0.00     0.261 C  
ENDBRANCH  37  43
ENDBRANCH  32  33
ENDBRANCH   9  32
BRANCH  13  45
HETATM   45  O   UNL     1     -11.897   8.418  72.367  1.00  0.00    -0.372 OA 
BRANCH  45  46
HETATM   46  C   UNL     1     -12.830   7.442  71.878  1.00  0.00    -0.272 C  
HETATM   47  C   UNL     1     -14.303   4.576  73.582  1.00  0.00     7.932 C  
HETATM   48  C   UNL     1     -13.283   5.685  69.984  1.00  0.00     8.003 C  
HETATM   49  C   UNL     1     -12.507   6.923  70.478  1.00  0.00    -0.033 C  
HETATM   50  C   UNL     1     -13.528   4.732  71.173  1.00  0.00     9.207 C  
HETATM   51  H   UNL     1     -12.460   7.689  68.694  1.00  0.00     0.000 HD 
HETATM   52  O   UNL     1     -12.661   8.012  69.565  1.00  0.00     2.054 OA 
HETATM   53  O   UNL     1     -12.938   6.373  72.815  1.00  0.00     0.513 OA 
HETATM   54  C   UNL     1     -13.993   5.492  72.415  1.00  0.00     1.717 C  
BRANCH  48  55
HETATM   55  N   UNL     1     -12.534   4.990  68.880  1.00  0.00     9.845 NA 
HETATM   56  C   UNL     1     -11.595   5.865  68.179  1.00  0.00     1.280 C  
HETATM   57  C   UNL     1     -11.876   3.741  69.246  1.00  0.00    12.691 C  
ENDBRANCH  48  55
ENDBRANCH  45  46
ENDBRANCH  13  45
ENDBRANCH   2   3
TORSDOF 7
ENDMDL
MODEL      122
REMARK 921   NORMALIZED FREE ENERGY PREDICTED BY IDOCK:   62.88 KCAL/MOL
REMARK 922        TOTAL FREE ENERGY PREDICTED BY IDOCK:   86.03 KCAL/MOL
REMARK 923 INTER-LIGAND FREE ENERGY PREDICTED BY IDOCK:   56.77 KCAL/MOL
REMARK 924 INTRA-LIGAND FREE ENERGY PREDICTED BY IDOCK:   29.26 KCAL/MOL
REMARK 927      BINDING AFFINITY PREDICTED BY RF-SCORE:    0.00 PKD
ROOT
HETATM    1  C   UNL     1     -10.906   8.214  62.505  1.00  0.00    10.180 C  
HETATM    2  C   UNL     1     -10.036   8.476  63.726  1.00  0.00     4.925 C  
ENDROOT
BRANCH   2   3
HETATM    3  C   UNL     1      -8.612   8.991  63.391  1.00  0.00    -0.135 C  
HETATM    4  O   UNL     1      -8.240  10.351  63.824  1.00  0.00    -0.161 OA 
HETATM    5  C   UNL     1      -8.702  10.931  64.954  1.00  0.00    -0.067 C  
HETATM    6  C   UNL     1      -8.115  12.335  65.194  1.00  0.00     2.352 C  
HETATM    7  O   UNL     1      -9.541  10.422  65.675  1.00  0.00    -0.196 OA 
HETATM    8  C   UNL     1      -6.979  12.643  64.207  1.00  0.00     9.769 C  
HETATM    9  C   UNL     1      -7.720  12.714  66.702  1.00  0.00     0.389 C  
HETATM   10  C   UNL     1      -6.170   5.394  67.283  1.00  0.00    -0.031 C  
HETATM   11  C   UNL     1      -8.575  11.950  67.813  1.00  0.00    -0.154 C  
HETATM   12  C   UNL     1      -5.436   8.924  66.149  1.00  0.00    -0.037 C  
HETATM   13  C   UNL     1      -8.055  12.032  69.347  1.00  0.00     0.732 C  
HETATM   14  C   UNL     1     -10.013  12.454  67.553  1.00  0.00    -0.196 C  
HETATM   15  C   UNL     1      -6.005   7.506  66.017  1.00  0.00    -0.038 C  
HETATM   16  C   UNL     1      -7.356   7.466  65.197  1.00  0.00    -0.077 C  
HETATM   17  C   UNL     1      -7.053  10.968  70.116  1.00  0.00     0.298 C  
HETATM   18  C   UNL     1      -6.283   9.892  69.293  1.00  0.00    -0.040 C  
HETATM   19  C   UNL     1      -7.409   8.030  63.729  1.00  0.00    -0.102 C  
HETATM   20  C   UNL     1      -7.478  10.369  71.463  1.00  0.00     2.841 C  
HETATM   21  H   UNL     1      -5.472   8.151  63.592  1.00  0.00     0.000 HD 
HETATM   22  O   UNL     1      -5.973  11.867  70.592  1.00  0.00    -0.338 OA 
HETATM   23  C   UNL     1      -6.749   8.398  69.319  1.00  0.00    -0.046 C  
HETATM   24  H   UNL     1      -9.220   7.983  65.495  1.00  0.00     0.000 HD 
HETATM   25  N   UNL     1      -6.255   6.851  67.329  1.00  0.00    -0.035 NA 
HETATM   26  C   UNL     1      -8.203   8.161  68.934  1.00  0.00    -0.124 C  
HETATM   27  H   UNL     1      -5.396  11.255  71.034  1.00  0.00     0.000 HD 
HETATM   28  C   UNL     1      -7.411   6.837  62.753  1.00  0.00    -0.068 C  
HETATM   29  C   UNL     1      -5.772   7.414  68.592  1.00  0.00    -0.023 C  
HETATM   30  O   UNL     1      -6.197   8.731  63.388  1.00  0.00    -0.084 OA 
HETATM   31  O   UNL     1      -8.407   8.007  65.988  1.00  0.00    -0.112 OA 
BRANCH   9  32
HETATM   32  O   UNL     1      -7.946  14.158  66.725  1.00  0.00     0.063 OA 
BRANCH  32  33
HETATM   33  C   UNL     1      -8.047  14.836  67.973  1.00  0.00    -0.139 C  
HETATM   34  O   UNL     1     -12.118  16.025  68.110  1.00  0.00    -0.216 OA 
HETATM   35  C   UNL     1     -10.730  15.848  68.397  1.00  0.00    -0.281 C  
HETATM   36  H   UNL     1     -12.681  15.582  68.734  1.00  0.00     0.000 HD 
HETATM   37  C   UNL     1      -9.811  16.573  67.377  1.00  0.00    -0.253 C  
HETATM   38  O   UNL     1      -8.978  14.191  68.853  1.00  0.00    -0.111 OA 
HETATM   39  C   UNL     1     -11.172  13.656  69.575  1.00  0.00    -0.205 C  
HETATM   40  C   UNL     1     -10.346  14.356  68.495  1.00  0.00    -0.248 C  
HETATM   41  C   UNL     1      -8.364  16.327  67.852  1.00  0.00    -0.170 C  
HETATM   42  C   UNL     1     -10.038  18.089  67.346  1.00  0.00    -0.354 C  
BRANCH  37  43
HETATM   43  O   UNL     1      -9.896  16.023  66.050  1.00  0.00    -0.292 OA 
HETATM   44  C   UNL     1     -11.175  15.775  65.497  1.00  0.00    -0.093 C  
ENDBRANCH  37  43
ENDBRANCH  32  33
ENDBRANCH   9  32
BRANCH  13  45
HETATM   45  O   UNL     1      -8.872  12.771  70.298  1.00  0.00     3.761 OA 
BRANCH  45  46
HETATM   46  C   UNL     1     -10.197  12.328  70.628  1.00  0.00     4.734 C  
HETATM   47  C   UNL     1     -12.925  11.316  68.432  1.00  0.00     3.088 C  
HETATM   48  C   UNL     1     -12.386  12.941  71.937  1.00  0.00     0.462 C  
HETATM   49  C   UNL     1     -10.876  13.162  71.713  1.00  0.00     6.262 C  
HETATM   50  C   UNL     1     -13.064  12.654  70.581  1.00  0.00     0.275 C  
HETATM   51  H   UNL     1     -10.574  13.487  73.604  1.00  0.00     0.000 HD 
HETATM   52  O   UNL     1     -10.152  12.968  72.929  1.00  0.00    12.702 OA 
HETATM   53  O   UNL     1     -10.990  12.271  69.445  1.00  0.00    -0.158 OA 
HETATM   54  C   UNL     1     -12.252  11.665  69.745  1.00  0.00    -0.219 C  
BRANCH  48  55
HETATM   55  N   UNL     1     -13.007  14.134  72.611  1.00  0.00    -0.425 NA 
HETATM   56  C   UNL     1     -12.193  15.343  72.512  1.00  0.00    -0.404 C  
HETATM   57  C   UNL     1     -14.387  14.427  72.239  1.00  0.00    -0.436 C  
ENDBRANCH  48  55
ENDBRANCH  45  46
ENDBRANCH  13  45
ENDBRANCH   2   3
TORSDOF 7
ENDMDL
MODEL      123
REMARK 921   NORMALIZED FREE ENERGY PREDICTED BY IDOCK:   65.57 KCAL/MOL
REMARK 922        TOTAL FREE ENERGY PREDICTED BY IDOCK:   89.82 KCAL/MOL
REMARK 923 INTER-LIGAND FREE ENERGY PREDICTED BY IDOCK:   28.37 KCAL/MOL
REMARK 924 INTRA-LIGAND FREE ENERGY PREDICTED BY IDOCK:   61.45 KCAL/MOL
REMARK 927      BINDING AFFINITY PREDICTED BY RF-SCORE:    0.00 PKD
ROOT
HETATM    1  C   UNL     1     -10.604  17.774  69.489  1.00  0.00     0.411 C  
HETATM    2  C   UNL     1      -9.318  17.089  69.929  1.00  0.00     1.094 C  
ENDROOT
BRANCH   2   3
HETATM    3  C   UNL     1      -8.158  17.198  68.904  1.00  0.00    -0.203 C  
HETATM    4  O   UNL     1      -7.345  15.998  68.638  1.00  0.00    -0.143 OA 
HETATM    5  C   UNL     1      -7.833  14.738  68.670  1.00  0.00    -0.140 C  
HETATM    6  C   UNL     1      -6.780  13.674  68.303  1.00  0.00    -0.108 C  
HETATM    7  O   UNL     1      -8.970  14.468  69.011  1.00  0.00    -0.147 OA 
HETATM    8  C   UNL     1      -5.491  14.320  67.775  1.00  0.00    -0.025 C  
HETATM    9  C   UNL     1      -7.264  12.456  67.377  1.00  0.00    -0.148 C  
HETATM   10  C   UNL     1     -11.876  17.588  64.423  1.00  0.00     3.590 C  
HETATM   11  C   UNL     1      -8.815  12.103  67.521  1.00  0.00    -0.175 C  
HETATM   12  C   UNL     1      -8.502  15.953  64.901  1.00  0.00     4.844 C  
HETATM   13  C   UNL     1      -9.461  11.103  66.419  1.00  0.00    -0.193 C  
HETATM   14  C   UNL     1      -8.937  11.661  68.997  1.00  0.00     0.195 C  
HETATM   15  C   UNL     1      -9.620  16.957  65.203  1.00  0.00     1.282 C  
HETATM   16  C   UNL     1      -9.733  17.297  66.743  1.00  0.00    -0.281 C  
HETATM   17  C   UNL     1     -10.210  11.525  65.009  1.00  0.00    -0.280 C  
HETATM   18  C   UNL     1     -10.108  12.988  64.483  1.00  0.00    -0.254 C  
HETATM   19  C   UNL     1      -8.493  17.874  67.520  1.00  0.00    -0.232 C  
HETATM   20  C   UNL     1     -11.607  10.971  64.701  1.00  0.00     0.565 C  
HETATM   21  H   UNL     1      -7.497  18.224  65.886  1.00  0.00     0.000 HD 
HETATM   22  O   UNL     1      -9.428  10.752  64.014  1.00  0.00    -0.227 OA 
HETATM   23  C   UNL     1     -11.329  13.959  64.613  1.00  0.00    -0.380 C  
HETATM   24  H   UNL     1     -10.365  16.395  68.360  1.00  0.00     0.000 HD 
HETATM   25  N   UNL     1     -10.959  16.497  64.745  1.00  0.00    -0.696 NA 
HETATM   26  C   UNL     1     -11.881  14.130  66.022  1.00  0.00    -0.409 C  
HETATM   27  H   UNL     1      -9.858  10.996  63.203  1.00  0.00     0.000 HD 
HETATM   28  C   UNL     1      -8.708  19.387  67.721  1.00  0.00    -0.352 C  
HETATM   29  C   UNL     1     -11.134  15.328  63.879  1.00  0.00     0.936 C  
HETATM   30  O   UNL     1      -7.295  17.817  66.720  1.00  0.00    -0.181 OA 
HETATM   31  O   UNL     1     -10.297  16.190  67.434  1.00  0.00    -0.281 OA 
BRANCH   9  32
HETATM   32  O   UNL     1      -6.404  11.366  67.831  1.00  0.00    -0.053 OA 
BRANCH  32  33
HETATM   33  C   UNL     1      -5.569  11.555  68.970  1.00  0.00    -0.050 C  
HETATM   34  O   UNL     1      -8.262  12.967  71.930  1.00  0.00    10.659 OA 
HETATM   35  C   UNL     1      -7.086  12.578  71.218  1.00  0.00     5.064 C  
HETATM   36  H   UNL     1      -8.467  12.380  72.647  1.00  0.00     0.000 HD 
HETATM   37  C   UNL     1      -6.752  13.537  70.045  1.00  0.00     0.214 C  
HETATM   38  O   UNL     1      -5.969  10.722  70.065  1.00  0.00    -0.067 OA 
HETATM   39  C   UNL     1      -7.396  10.156  71.873  1.00  0.00     2.567 C  
HETATM   40  C   UNL     1      -7.174  11.122  70.709  1.00  0.00     2.158 C  
HETATM   41  C   UNL     1      -5.443  13.011  69.419  1.00  0.00    -0.080 C  
HETATM   42  C   UNL     1      -6.498  14.977  70.509  1.00  0.00     0.034 C  
BRANCH  37  43
HETATM   43  O   UNL     1      -7.736  13.511  68.996  1.00  0.00    -0.027 OA 
HETATM   44  C   UNL     1      -9.100  13.378  69.347  1.00  0.00     1.067 C  
ENDBRANCH  37  43
ENDBRANCH  32  33
ENDBRANCH   9  32
BRANCH  13  45
HETATM   45  O   UNL     1      -9.887   9.787  66.871  1.00  0.00    -0.181 OA 
BRANCH  45  46
HETATM   46  C   UNL     1      -8.933   8.833  67.363  1.00  0.00    -0.133 C  
HETATM   47  C   UNL     1      -5.304   9.086  67.599  1.00  0.00    -0.034 C  
HETATM   48  C   UNL     1      -8.063   6.370  67.127  1.00  0.00    -0.113 C  
HETATM   49  C   UNL     1      -9.180   7.405  66.882  1.00  0.00    -0.152 C  
HETATM   50  C   UNL     1      -6.690   7.059  66.973  1.00  0.00    -0.059 C  
HETATM   51  H   UNL     1     -10.567   6.072  67.154  1.00  0.00     0.000 HD 
HETATM   52  O   UNL     1     -10.413   6.961  67.453  1.00  0.00    -0.204 OA 
HETATM   53  O   UNL     1      -7.614   9.268  67.040  1.00  0.00    -0.090 OA 
HETATM   54  C   UNL     1      -6.660   8.414  67.680  1.00  0.00    -0.058 C  
BRANCH  48  55
HETATM   55  N   UNL     1      -8.194   5.208  66.181  1.00  0.00    -0.108 NA 
HETATM   56  C   UNL     1      -8.398   3.930  66.860  1.00  0.00    -0.100 C  
HETATM   57  C   UNL     1      -9.172   5.367  65.111  1.00  0.00     0.051 C  
ENDBRANCH  48  55
ENDBRANCH  45  46
ENDBRANCH  13  45
ENDBRANCH   2   3
TORSDOF 7
ENDMDL
MODEL      124
REMARK 921   NORMALIZED FREE ENERGY PREDICTED BY IDOCK:   66.57 KCAL/MOL
REMARK 922        TOTAL FREE ENERGY PREDICTED BY IDOCK:   91.23 KCAL/MOL
REMARK 923 INTER-LIGAND FREE ENERGY PREDICTED BY IDOCK:   79.53 KCAL/MOL
REMARK 924 INTRA-LIGAND FREE ENERGY PREDICTED BY IDOCK:   11.70 KCAL/MOL
REMARK 927      BINDING AFFINITY PREDICTED BY RF-SCORE:    0.00 PKD
ROOT
HETATM    1  C   UNL     1      -9.591  17.134  62.814  1.00  0.00    19.981 C  
HETATM    2  C   UNL     1     -10.744  17.480  63.745  1.00  0.00     6.479 C  
ENDROOT
BRANCH   2   3
HETATM    3  C   UNL     1     -10.318  18.245  65.026  1.00  0.00     1.483 C  
HETATM    4  O   UNL     1     -10.982  17.904  66.297  1.00  0.00    -0.036 OA 
HETATM    5  C   UNL     1     -11.417  16.663  66.608  1.00  0.00     0.827 C  
HETATM    6  C   UNL     1     -12.028  16.573  68.019  1.00  0.00     0.758 C  
HETATM    7  O   UNL     1     -11.384  15.726  65.830  1.00  0.00    -0.087 OA 
HETATM    8  C   UNL     1     -11.793  17.866  68.814  1.00  0.00     3.013 C  
HETATM    9  C   UNL     1     -11.683  15.266  68.884  1.00  0.00    -0.342 C  
HETATM   10  C   UNL     1      -5.157  15.526  65.185  1.00  0.00     9.273 C  
HETATM   11  C   UNL     1     -11.374  13.967  68.008  1.00  0.00    -0.320 C  
HETATM   12  C   UNL     1      -7.592  16.695  67.829  1.00  0.00    -0.172 C  
HETATM   13  C   UNL     1     -10.725  12.689  68.766  1.00  0.00    -0.207 C  
HETATM   14  C   UNL     1     -12.711  13.716  67.273  1.00  0.00     0.563 C  
HETATM   15  C   UNL     1      -6.933  16.689  66.445  1.00  0.00    -0.030 C  
HETATM   16  C   UNL     1      -7.954  17.018  65.283  1.00  0.00     2.332 C  
HETATM   17  C   UNL     1      -9.119  12.337  68.928  1.00  0.00     0.279 C  
HETATM   18  C   UNL     1      -8.049  13.411  68.569  1.00  0.00    -0.105 C  
HETATM   19  C   UNL     1      -8.771  18.362  65.304  1.00  0.00     1.981 C  
HETATM   20  C   UNL     1      -8.605  10.951  68.518  1.00  0.00    -0.152 C  
HETATM   21  H   UNL     1      -7.684  19.126  66.725  1.00  0.00     0.000 HD 
HETATM   22  O   UNL     1      -8.990  12.209  70.400  1.00  0.00     3.332 OA 
HETATM   23  C   UNL     1      -7.230  13.294  67.240  1.00  0.00    -0.033 C  
HETATM   24  H   UNL     1      -9.426  16.101  64.378  1.00  0.00     0.000 HD 
HETATM   25  N   UNL     1      -6.277  15.396  66.115  1.00  0.00     2.749 NA 
HETATM   26  C   UNL     1      -8.060  13.186  65.969  1.00  0.00     1.702 C  
HETATM   27  H   UNL     1      -8.066  12.007  70.493  1.00  0.00     0.000 HD 
HETATM   28  C   UNL     1      -8.135  19.331  64.287  1.00  0.00     5.208 C  
HETATM   29  C   UNL     1      -6.074  14.341  67.111  1.00  0.00     0.822 C  
HETATM   30  O   UNL     1      -8.617  19.056  66.558  1.00  0.00    -0.292 OA 
HETATM   31  O   UNL     1      -8.812  15.903  65.076  1.00  0.00     0.990 OA 
BRANCH   9  32
HETATM   32  O   UNL     1     -12.886  15.111  69.699  1.00  0.00    -0.018 OA 
BRANCH  32  33
HETATM   33  C   UNL     1     -12.827  14.358  70.906  1.00  0.00    -0.351 C  
HETATM   34  O   UNL     1     -10.588  16.856  73.505  1.00  0.00     3.913 OA 
HETATM   35  C   UNL     1     -11.304  15.759  72.936  1.00  0.00     0.193 C  
HETATM   36  H   UNL     1     -11.055  17.264  74.225  1.00  0.00     0.000 HD 
HETATM   37  C   UNL     1     -10.543  15.093  71.760  1.00  0.00     0.861 C  
HETATM   38  O   UNL     1     -13.456  15.048  71.993  1.00  0.00    -0.338 OA 
HETATM   39  C   UNL     1     -13.523  16.723  73.671  1.00  0.00     0.899 C  
HETATM   40  C   UNL     1     -12.726  16.165  72.491  1.00  0.00    -0.357 C  
HETATM   41  C   UNL     1     -11.418  13.910  71.296  1.00  0.00     0.798 C  
HETATM   42  C   UNL     1      -9.180  14.527  72.178  1.00  0.00     6.740 C  
BRANCH  37  43
HETATM   43  O   UNL     1     -10.401  15.958  70.618  1.00  0.00    -0.023 OA 
HETATM   44  C   UNL     1      -9.975  17.291  70.823  1.00  0.00     2.806 C  
ENDBRANCH  37  43
ENDBRANCH  32  33
ENDBRANCH   9  32
BRANCH  13  45
HETATM   45  O   UNL     1     -11.544  11.492  68.893  1.00  0.00    -0.262 OA 
BRANCH  45  46
HETATM   46  C   UNL     1     -11.178  10.277  68.221  1.00  0.00    -0.232 C  
HETATM   47  C   UNL     1      -8.428   7.983  68.898  1.00  0.00    -0.131 C  
HETATM   48  C   UNL     1     -10.584   9.222  65.894  1.00  0.00     0.691 C  
HETATM   49  C   UNL     1     -11.220  10.375  66.697  1.00  0.00     0.288 C  
HETATM   50  C   UNL     1      -9.340   8.705  66.646  1.00  0.00    -0.246 C  
HETATM   51  H   UNL     1     -12.609  10.629  65.363  1.00  0.00     0.000 HD 
HETATM   52  O   UNL     1     -12.583  10.568  66.311  1.00  0.00     4.257 OA 
HETATM   53  O   UNL     1      -9.898   9.845  68.677  1.00  0.00    -0.151 OA 
HETATM   54  C   UNL     1      -9.613   8.549  68.142  1.00  0.00    -0.143 C  
BRANCH  48  55
HETATM   55  N   UNL     1     -10.228   9.672  64.503  1.00  0.00     0.657 NA 
HETATM   56  C   UNL     1     -10.250  11.124  64.342  1.00  0.00    -0.330 C  
HETATM   57  C   UNL     1      -8.992   9.126  63.956  1.00  0.00     0.017 C  
ENDBRANCH  48  55
ENDBRANCH  45  46
ENDBRANCH  13  45
ENDBRANCH   2   3
TORSDOF 7
ENDMDL
MODEL      125
REMARK 921   NORMALIZED FREE ENERGY PREDICTED BY IDOCK:   67.71 KCAL/MOL
REMARK 922        TOTAL FREE ENERGY PREDICTED BY IDOCK:   92.84 KCAL/MOL
REMARK 923 INTER-LIGAND FREE ENERGY PREDICTED BY IDOCK:   67.77 KCAL/MOL
REMARK 924 INTRA-LIGAND FREE ENERGY PREDICTED BY IDOCK:   25.07 KCAL/MOL
REMARK 927      BINDING AFFINITY PREDICTED BY RF-SCORE:    0.00 PKD
ROOT
HETATM    1  C   UNL     1      -6.090   9.524  65.209  1.00  0.00    -0.067 C  
HETATM    2  C   UNL     1      -5.999   8.500  66.331  1.00  0.00    -0.048 C  
ENDROOT
BRANCH   2   3
HETATM    3  C   UNL     1      -7.137   8.605  67.380  1.00  0.00    -0.080 C  
HETATM    4  O   UNL     1      -7.336   9.894  68.068  1.00  0.00    -0.083 OA 
HETATM    5  C   UNL     1      -7.107  11.095  67.494  1.00  0.00    -0.093 C  
HETATM    6  C   UNL     1      -7.445  12.280  68.418  1.00  0.00    -0.122 C  
HETATM    7  O   UNL     1      -6.628  11.227  66.382  1.00  0.00    -0.128 OA 
HETATM    8  C   UNL     1      -8.168  11.811  69.689  1.00  0.00     1.160 C  
HETATM    9  C   UNL     1      -8.168  13.547  67.749  1.00  0.00    -0.176 C  
HETATM   10  C   UNL     1     -11.252   8.395  63.247  1.00  0.00    15.280 C  
HETATM   11  C   UNL     1      -7.834  13.747  66.201  1.00  0.00     2.232 C  
HETATM   12  C   UNL     1     -10.911  10.253  66.521  1.00  0.00     0.026 C  
HETATM   13  C   UNL     1      -8.740  14.803  65.368  1.00  0.00     2.104 C  
HETATM   14  C   UNL     1      -6.310  14.011  66.204  1.00  0.00     5.521 C  
HETATM   15  C   UNL     1     -10.624   9.129  65.519  1.00  0.00     1.641 C  
HETATM   16  C   UNL     1      -9.132   8.611  65.596  1.00  0.00    -0.164 C  
HETATM   17  C   UNL     1     -10.111  14.477  64.508  1.00  0.00     0.431 C  
HETATM   18  C   UNL     1     -10.815  13.095  64.662  1.00  0.00    -0.383 C  
HETATM   19  C   UNL     1      -8.553   8.061  66.952  1.00  0.00    -0.128 C  
HETATM   20  C   UNL     1     -10.214  14.938  63.048  1.00  0.00     8.992 C  
HETATM   21  H   UNL     1     -10.306   7.982  67.791  1.00  0.00     0.000 HD 
HETATM   22  O   UNL     1     -11.079  15.420  65.119  1.00  0.00    -0.375 OA 
HETATM   23  C   UNL     1     -10.684  12.014  63.538  1.00  0.00    -0.513 C  
HETATM   24  H   UNL     1      -7.366   9.271  65.074  1.00  0.00     0.000 HD 
HETATM   25  N   UNL     1     -10.892   9.519  64.108  1.00  0.00     3.937 NA 
HETATM   26  C   UNL     1      -9.259  11.641  63.153  1.00  0.00    -0.105 C  
HETATM   27  H   UNL     1     -11.868  15.231  64.624  1.00  0.00     0.000 HD 
HETATM   28  C   UNL     1      -8.514   6.523  66.873  1.00  0.00    -0.114 C  
HETATM   29  C   UNL     1     -11.592  10.757  63.756  1.00  0.00     1.549 C  
HETATM   30  O   UNL     1      -9.453   8.310  68.050  1.00  0.00    -0.139 OA 
HETATM   31  O   UNL     1      -8.262   9.582  65.027  1.00  0.00    -0.124 OA 
BRANCH   9  32
HETATM   32  O   UNL     1      -7.672  14.651  68.569  1.00  0.00    -0.113 OA 
BRANCH  32  33
HETATM   33  C   UNL     1      -8.553  15.303  69.479  1.00  0.00    -0.184 C  
HETATM   34  O   UNL     1     -12.369  13.804  68.385  1.00  0.00    -0.436 OA 
HETATM   35  C   UNL     1     -11.307  14.542  68.991  1.00  0.00    -0.272 C  
HETATM   36  H   UNL     1     -12.792  13.206  68.991  1.00  0.00     0.000 HD 
HETATM   37  C   UNL     1     -10.616  15.517  68.001  1.00  0.00    -0.270 C  
HETATM   38  O   UNL     1      -9.246  14.363  70.311  1.00  0.00     1.102 OA 
HETATM   39  C   UNL     1     -10.915  12.725  70.704  1.00  0.00     2.142 C  
HETATM   40  C   UNL     1     -10.261  13.616  69.648  1.00  0.00     0.712 C  
HETATM   41  C   UNL     1      -9.539  16.265  68.816  1.00  0.00    -0.242 C  
HETATM   42  C   UNL     1     -11.578  16.567  67.431  1.00  0.00     0.517 C  
BRANCH  37  43
HETATM   43  O   UNL     1      -9.918  14.842  66.939  1.00  0.00    -0.236 OA 
HETATM   44  C   UNL     1      -9.858  13.429  66.955  1.00  0.00    -0.250 C  
ENDBRANCH  37  43
ENDBRANCH  32  33
ENDBRANCH   9  32
BRANCH  13  45
HETATM   45  O   UNL     1      -8.096  16.019  64.895  1.00  0.00     3.517 OA 
BRANCH  45  46
HETATM   46  C   UNL     1      -8.557  17.310  65.323  1.00  0.00     1.997 C  
HETATM   47  C   UNL     1     -10.797  19.650  63.651  1.00  0.00    10.061 C  
HETATM   48  C   UNL     1      -7.796  19.683  66.142  1.00  0.00    -0.331 C  
HETATM   49  C   UNL     1      -7.460  18.195  65.914  1.00  0.00    -0.170 C  
HETATM   50  C   UNL     1      -8.723  20.174  65.011  1.00  0.00     1.483 C  
HETATM   51  H   UNL     1      -6.335  18.135  67.495  1.00  0.00     0.000 HD 
HETATM   52  O   UNL     1      -7.016  17.585  67.127  1.00  0.00    -0.158 OA 
HETATM   53  O   UNL     1      -9.223  17.961  64.244  1.00  0.00     5.890 OA 
HETATM   54  C   UNL     1      -9.834  19.166  64.716  1.00  0.00     3.514 C  
BRANCH  48  55
HETATM   55  N   UNL     1      -6.541  20.509  66.212  1.00  0.00    -0.232 NA 
HETATM   56  C   UNL     1      -5.416  19.802  66.821  1.00  0.00    -0.166 C  
HETATM   57  C   UNL     1      -6.122  21.134  64.962  1.00  0.00    -0.140 C  
ENDBRANCH  48  55
ENDBRANCH  45  46
ENDBRANCH  13  45
ENDBRANCH   2   3
TORSDOF 7
ENDMDL
MODEL      126
REMARK 921   NORMALIZED FREE ENERGY PREDICTED BY IDOCK:   67.84 KCAL/MOL
REMARK 922        TOTAL FREE ENERGY PREDICTED BY IDOCK:   93.02 KCAL/MOL
REMARK 923 INTER-LIGAND FREE ENERGY PREDICTED BY IDOCK:   38.15 KCAL/MOL
REMARK 924 INTRA-LIGAND FREE ENERGY PREDICTED BY IDOCK:   54.87 KCAL/MOL
REMARK 927      BINDING AFFINITY PREDICTED BY RF-SCORE:    0.00 PKD
ROOT
HETATM    1  C   UNL     1     -10.738  15.971  66.030  1.00  0.00    -0.271 C  
HETATM    2  C   UNL     1     -10.672  14.642  66.767  1.00  0.00    -0.301 C  
ENDROOT
BRANCH   2   3
HETATM    3  C   UNL     1     -11.116  14.717  68.252  1.00  0.00    -0.274 C  
HETATM    4  O   UNL     1     -11.490  13.465  68.934  1.00  0.00    -0.262 OA 
HETATM    5  C   UNL     1     -10.925  12.267  68.668  1.00  0.00    -0.239 C  
HETATM    6  C   UNL     1     -11.465  11.133  69.561  1.00  0.00    -0.374 C  
HETATM    7  O   UNL     1     -10.116  12.090  67.775  1.00  0.00    -0.187 OA 
HETATM    8  C   UNL     1     -12.354  11.682  70.686  1.00  0.00    -0.437 C  
HETATM    9  C   UNL     1     -10.401  10.061  70.105  1.00  0.00    -0.266 C  
HETATM   10  C   UNL     1      -5.687  15.900  70.033  1.00  0.00    -0.160 C  
HETATM   11  C   UNL     1      -9.130   9.865  69.159  1.00  0.00    -0.175 C  
HETATM   12  C   UNL     1      -8.538  13.877  71.468  1.00  0.00     8.287 C  
HETATM   13  C   UNL     1      -7.869   9.042  69.759  1.00  0.00    -0.086 C  
HETATM   14  C   UNL     1      -9.748   9.308  67.855  1.00  0.00    -0.180 C  
HETATM   15  C   UNL     1      -7.900  14.964  70.596  1.00  0.00     1.409 C  
HETATM   16  C   UNL     1      -8.668  15.177  69.229  1.00  0.00    -0.207 C  
HETATM   17  C   UNL     1      -6.554   9.666  70.540  1.00  0.00    -0.107 C  
HETATM   18  C   UNL     1      -6.563  11.151  71.012  1.00  0.00     1.259 C  
HETATM   19  C   UNL     1     -10.197  15.545  69.229  1.00  0.00    -0.252 C  
HETATM   20  C   UNL     1      -5.145   9.295  70.061  1.00  0.00    -0.029 C  
HETATM   21  H   UNL     1     -10.214  15.931  71.136  1.00  0.00     0.000 HD 
HETATM   22  O   UNL     1      -6.575   8.905  71.813  1.00  0.00    -0.086 OA 
HETATM   23  C   UNL     1      -5.744  12.231  70.231  1.00  0.00    -0.167 C  
HETATM   24  H   UNL     1      -8.870  14.206  67.543  1.00  0.00     0.000 HD 
HETATM   25  N   UNL     1      -6.474  14.693  70.273  1.00  0.00    -0.178 NA 
HETATM   26  C   UNL     1      -6.051  12.334  68.743  1.00  0.00    -0.068 C  
HETATM   27  H   UNL     1      -5.819   9.265  72.263  1.00  0.00     0.000 HD 
HETATM   28  C   UNL     1     -10.333  17.048  68.917  1.00  0.00    -0.337 C  
HETATM   29  C   UNL     1      -5.708  13.632  70.930  1.00  0.00    -0.197 C  
HETATM   30  O   UNL     1     -10.769  15.432  70.547  1.00  0.00    -0.311 OA 
HETATM   31  O   UNL     1      -8.408  14.078  68.364  1.00  0.00    -0.154 OA 
BRANCH   9  32
HETATM   32  O   UNL     1     -11.212   8.849  70.202  1.00  0.00    -0.238 OA 
BRANCH  32  33
HETATM   33  C   UNL     1     -10.948   7.753  69.331  1.00  0.00    -0.035 C  
HETATM   34  O   UNL     1     -10.113   9.637  65.622  1.00  0.00    -0.296 OA 
HETATM   35  C   UNL     1     -10.372   8.673  66.643  1.00  0.00    -0.232 C  
HETATM   36  H   UNL     1      -9.215   9.611  65.312  1.00  0.00     0.000 HD 
HETATM   37  C   UNL     1     -11.839   8.716  67.148  1.00  0.00     4.144 C  
HETATM   38  O   UNL     1      -9.614   7.801  68.808  1.00  0.00    -0.152 OA 
HETATM   39  C   UNL     1      -7.947   8.661  67.358  1.00  0.00    -0.102 C  
HETATM   40  C   UNL     1      -9.394   8.811  67.830  1.00  0.00    -0.141 C  
HETATM   41  C   UNL     1     -11.965   7.594  68.200  1.00  0.00     2.616 C  
HETATM   42  C   UNL     1     -12.859   8.429  66.039  1.00  0.00    16.756 C  
BRANCH  37  43
HETATM   43  O   UNL     1     -12.165   9.942  67.829  1.00  0.00     1.678 OA 
HETATM   44  C   UNL     1     -13.277  10.693  67.381  1.00  0.00    10.015 C  
ENDBRANCH  37  43
ENDBRANCH  32  33
ENDBRANCH   9  32
BRANCH  13  45
HETATM   45  O   UNL     1      -7.569   7.744  69.173  1.00  0.00    -0.095 OA 
BRANCH  45  46
HETATM   46  C   UNL     1      -8.462   6.634  69.350  1.00  0.00    -0.131 C  
HETATM   47  C   UNL     1     -11.110   6.147  71.807  1.00  0.00    -0.327 C  
HETATM   48  C   UNL     1      -8.593   4.038  69.703  1.00  0.00    -0.068 C  
HETATM   49  C   UNL     1      -7.780   5.270  69.256  1.00  0.00    -0.084 C  
HETATM   50  C   UNL     1      -9.485   4.425  70.901  1.00  0.00    -0.241 C  
HETATM   51  H   UNL     1      -6.890   4.259  67.856  1.00  0.00     0.000 HD 
HETATM   52  O   UNL     1      -7.314   5.108  67.915  1.00  0.00    -0.073 OA 
HETATM   53  O   UNL     1      -9.166   6.778  70.581  1.00  0.00    -0.155 OA 
HETATM   54  C   UNL     1     -10.177   5.770  70.674  1.00  0.00    -0.218 C  
BRANCH  48  55
HETATM   55  N   UNL     1      -7.681   2.894  70.055  1.00  0.00    -0.043 NA 
HETATM   56  C   UNL     1      -8.327   1.588  69.954  1.00  0.00    -0.045 C  
HETATM   57  C   UNL     1      -6.395   2.872  69.366  1.00  0.00    -0.029 C  
ENDBRANCH  48  55
ENDBRANCH  45  46
ENDBRANCH  13  45
ENDBRANCH   2   3
TORSDOF 7
ENDMDL
MODEL      127
REMARK 921   NORMALIZED FREE ENERGY PREDICTED BY IDOCK:   68.28 KCAL/MOL
REMARK 922        TOTAL FREE ENERGY PREDICTED BY IDOCK:   93.64 KCAL/MOL
REMARK 923 INTER-LIGAND FREE ENERGY PREDICTED BY IDOCK:   78.79 KCAL/MOL
REMARK 924 INTRA-LIGAND FREE ENERGY PREDICTED BY IDOCK:   14.85 KCAL/MOL
REMARK 927      BINDING AFFINITY PREDICTED BY RF-SCORE:    0.00 PKD
ROOT
HETATM    1  C   UNL     1      -6.706   5.657  68.478  1.00  0.00    -0.057 C  
HETATM    2  C   UNL     1      -7.297   7.057  68.558  1.00  0.00    -0.100 C  
ENDROOT
BRANCH   2   3
HETATM    3  C   UNL     1      -7.901   7.413  69.942  1.00  0.00    -0.115 C  
HETATM    4  O   UNL     1      -7.755   8.795  70.434  1.00  0.00    -0.074 OA 
HETATM    5  C   UNL     1      -7.739   9.880  69.629  1.00  0.00    -0.149 C  
HETATM    6  C   UNL     1      -7.626  11.206  70.407  1.00  0.00     1.712 C  
HETATM    7  O   UNL     1      -7.753   9.815  68.414  1.00  0.00    -0.080 OA 
HETATM    8  C   UNL     1      -7.782  10.984  71.918  1.00  0.00     7.932 C  
HETATM    9  C   UNL     1      -8.515  12.437  69.886  1.00  0.00     2.747 C  
HETATM   10  C   UNL     1     -13.352   7.056  67.891  1.00  0.00    14.384 C  
HETATM   11  C   UNL     1      -8.838  12.393  68.323  1.00  0.00    -0.174 C  
HETATM   12  C   UNL     1     -11.635   9.293  70.408  1.00  0.00    -0.215 C  
HETATM   13  C   UNL     1      -9.968  13.413  67.763  1.00  0.00    -0.233 C  
HETATM   14  C   UNL     1      -7.439  12.505  67.675  1.00  0.00    -0.139 C  
HETATM   15  C   UNL     1     -11.824   8.022  69.571  1.00  0.00     1.016 C  
HETATM   16  C   UNL     1     -10.450   7.375  69.128  1.00  0.00    -0.213 C  
HETATM   17  C   UNL     1     -11.582  13.111  67.587  1.00  0.00    -0.349 C  
HETATM   18  C   UNL     1     -12.209  11.838  68.231  1.00  0.00     0.174 C  
HETATM   19  C   UNL     1      -9.386   6.958  70.210  1.00  0.00    -0.162 C  
HETATM   20  C   UNL     1     -12.258  13.380  66.236  1.00  0.00    -0.456 C  
HETATM   21  H   UNL     1     -10.643   7.164  71.680  1.00  0.00     0.000 HD 
HETATM   22  O   UNL     1     -12.180  14.218  68.372  1.00  0.00    -0.562 OA 
HETATM   23  C   UNL     1     -12.588  10.609  67.340  1.00  0.00     4.597 C  
HETATM   24  H   UNL     1      -9.031   7.783  67.845  1.00  0.00     0.000 HD 
HETATM   25  N   UNL     1     -12.632   8.245  68.342  1.00  0.00     5.549 NA 
HETATM   26  C   UNL     1     -11.460  10.049  66.484  1.00  0.00     1.298 C  
HETATM   27  H   UNL     1     -13.109  14.043  68.271  1.00  0.00     0.000 HD 
HETATM   28  C   UNL     1      -9.436   5.426  70.372  1.00  0.00    -0.215 C  
HETATM   29  C   UNL     1     -13.370   9.487  68.102  1.00  0.00    11.285 C  
HETATM   30  O   UNL     1      -9.747   7.438  71.519  1.00  0.00    -0.160 OA 
HETATM   31  O   UNL     1      -9.856   8.172  68.111  1.00  0.00    -0.158 OA 
BRANCH   9  32
HETATM   32  O   UNL     1      -7.689  13.586  70.249  1.00  0.00     1.535 OA 
BRANCH  32  33
HETATM   33  C   UNL     1      -7.907  14.245  71.493  1.00  0.00     4.663 C  
HETATM   34  O   UNL     1      -9.602  17.961  70.343  1.00  0.00     1.893 OA 
HETATM   35  C   UNL     1      -9.036  16.884  71.091  1.00  0.00     6.538 C  
HETATM   36  H   UNL     1     -10.522  18.099  70.539  1.00  0.00     0.000 HD 
HETATM   37  C   UNL     1      -7.534  16.659  70.771  1.00  0.00     3.498 C  
HETATM   38  O   UNL     1      -9.296  14.524  71.709  1.00  0.00     3.957 OA 
HETATM   39  C   UNL     1     -11.285  15.754  71.320  1.00  0.00    -0.376 C  
HETATM   40  C   UNL     1      -9.826  15.571  70.903  1.00  0.00     1.214 C  
HETATM   41  C   UNL     1      -7.067  15.508  71.688  1.00  0.00     3.114 C  
HETATM   42  C   UNL     1      -6.668  17.884  71.087  1.00  0.00     3.053 C  
BRANCH  37  43
HETATM   43  O   UNL     1      -7.305  16.214  69.422  1.00  0.00    -0.227 OA 
HETATM   44  C   UNL     1      -8.228  16.589  68.417  1.00  0.00    -0.194 C  
ENDBRANCH  37  43
ENDBRANCH  32  33
ENDBRANCH   9  32
BRANCH  13  45
HETATM   45  O   UNL     1      -9.532  14.486  66.882  1.00  0.00    -0.231 OA 
BRANCH  45  46
HETATM   46  C   UNL     1      -8.137  14.699  66.617  1.00  0.00     0.293 C  
HETATM   47  C   UNL     1      -5.222  13.702  68.567  1.00  0.00    -0.089 C  
HETATM   48  C   UNL     1      -6.318  16.516  66.098  1.00  0.00     0.998 C  
HETATM   49  C   UNL     1      -7.806  16.112  66.140  1.00  0.00     0.199 C  
HETATM   50  C   UNL     1      -5.579  15.858  67.282  1.00  0.00     0.019 C  
HETATM   51  H   UNL     1      -8.209  17.171  64.563  1.00  0.00     0.000 HD 
HETATM   52  O   UNL     1      -8.415  16.292  64.860  1.00  0.00     2.329 OA 
HETATM   53  O   UNL     1      -7.373  14.348  67.769  1.00  0.00    -0.138 OA 
HETATM   54  C   UNL     1      -5.979  14.392  67.449  1.00  0.00     0.288 C  
BRANCH  48  55
HETATM   55  N   UNL     1      -6.169  18.012  66.130  1.00  0.00    -0.203 NA 
HETATM   56  C   UNL     1      -5.157  18.513  65.202  1.00  0.00    -0.170 C  
HETATM   57  C   UNL     1      -7.403  18.776  65.986  1.00  0.00    -0.251 C  
ENDBRANCH  48  55
ENDBRANCH  45  46
ENDBRANCH  13  45
ENDBRANCH   2   3
TORSDOF 7
ENDMDL
MODEL      128
REMARK 921   NORMALIZED FREE ENERGY PREDICTED BY IDOCK:   68.32 KCAL/MOL
REMARK 922        TOTAL FREE ENERGY PREDICTED BY IDOCK:   93.71 KCAL/MOL
REMARK 923 INTER-LIGAND FREE ENERGY PREDICTED BY IDOCK:   69.15 KCAL/MOL
REMARK 924 INTRA-LIGAND FREE ENERGY PREDICTED BY IDOCK:   24.55 KCAL/MOL
REMARK 927      BINDING AFFINITY PREDICTED BY RF-SCORE:    0.00 PKD
ROOT
HETATM    1  C   UNL     1      -8.337   7.057  72.939  1.00  0.00    -0.121 C  
HETATM    2  C   UNL     1      -9.574   6.614  73.707  1.00  0.00    -0.226 C  
ENDROOT
BRANCH   2   3
HETATM    3  C   UNL     1     -10.719   6.075  72.810  1.00  0.00    -0.237 C  
HETATM    4  O   UNL     1     -11.532   7.047  72.055  1.00  0.00    -0.255 OA 
HETATM    5  C   UNL     1     -11.048   8.207  71.561  1.00  0.00    -0.252 C  
HETATM    6  C   UNL     1     -12.098   9.010  70.769  1.00  0.00    -0.169 C  
HETATM    7  O   UNL     1      -9.916   8.605  71.770  1.00  0.00    -0.243 OA 
HETATM    8  C   UNL     1     -13.378   8.192  70.547  1.00  0.00     0.922 C  
HETATM    9  C   UNL     1     -11.604   9.731  69.423  1.00  0.00     0.125 C  
HETATM   10  C   UNL     1      -6.940   3.871  68.949  1.00  0.00    -0.047 C  
HETATM   11  C   UNL     1     -10.057  10.124  69.422  1.00  0.00    -0.250 C  
HETATM   12  C   UNL     1     -10.324   5.528  68.658  1.00  0.00    -0.255 C  
HETATM   13  C   UNL     1      -9.399  10.576  68.010  1.00  0.00    -0.145 C  
HETATM   14  C   UNL     1      -9.957  11.147  70.578  1.00  0.00     2.354 C  
HETATM   15  C   UNL     1      -9.207   4.753  69.366  1.00  0.00    -0.114 C  
HETATM   16  C   UNL     1      -9.114   5.091  70.908  1.00  0.00    -0.143 C  
HETATM   17  C   UNL     1      -8.630   9.606  66.917  1.00  0.00    -0.128 C  
HETATM   18  C   UNL     1      -8.720   8.057  67.052  1.00  0.00    -0.132 C  
HETATM   19  C   UNL     1     -10.364   4.884  71.841  1.00  0.00    -0.190 C  
HETATM   20  C   UNL     1      -7.230   9.991  66.420  1.00  0.00    -0.103 C  
HETATM   21  H   UNL     1     -11.336   3.872  70.493  1.00  0.00     0.000 HD 
HETATM   22  O   UNL     1      -9.400   9.884  65.680  1.00  0.00    -0.179 OA 
HETATM   23  C   UNL     1      -7.499   7.240  67.592  1.00  0.00    -0.101 C  
HETATM   24  H   UNL     1      -8.507   6.595  72.003  1.00  0.00     0.000 HD 
HETATM   25  N   UNL     1      -7.863   4.989  68.772  1.00  0.00    -0.078 NA 
HETATM   26  C   UNL     1      -6.966   7.681  68.948  1.00  0.00    -0.070 C  
HETATM   27  H   UNL     1      -8.957   9.325  65.051  1.00  0.00     0.000 HD 
HETATM   28  C   UNL     1     -10.147   3.597  72.661  1.00  0.00    -0.231 C  
HETATM   29  C   UNL     1      -7.680   5.688  67.498  1.00  0.00    -0.097 C  
HETATM   30  O   UNL     1     -11.550   4.590  71.077  1.00  0.00     2.059 OA 
HETATM   31  O   UNL     1      -8.563   6.391  71.076  1.00  0.00    -0.129 OA 
BRANCH   9  32
HETATM   32  O   UNL     1     -12.474  10.904  69.368  1.00  0.00    -0.352 OA 
BRANCH  32  33
HETATM   33  C   UNL     1     -13.450  11.009  68.336  1.00  0.00     6.666 C  
HETATM   34  O   UNL     1     -11.606  13.578  65.506  1.00  0.00    -0.310 OA 
HETATM   35  C   UNL     1     -12.540  12.758  66.211  1.00  0.00     0.431 C  
HETATM   36  H   UNL     1     -11.327  13.192  64.685  1.00  0.00     0.000 HD 
HETATM   37  C   UNL     1     -12.995  13.390  67.554  1.00  0.00     2.077 C  
HETATM   38  O   UNL     1     -12.959  10.505  67.088  1.00  0.00     5.766 OA 
HETATM   39  C   UNL     1     -11.643  10.662  65.121  1.00  0.00     1.456 C  
HETATM   40  C   UNL     1     -11.994  11.334  66.449  1.00  0.00     1.123 C  
HETATM   41  C   UNL     1     -14.027  12.415  68.159  1.00  0.00    11.542 C  
HETATM   42  C   UNL     1     -13.690  14.744  67.369  1.00  0.00     6.770 C  
BRANCH  37  43
HETATM   43  O   UNL     1     -11.931  13.496  68.517  1.00  0.00    -0.351 OA 
HETATM   44  C   UNL     1     -10.622  13.129  68.127  1.00  0.00    -0.245 C  
ENDBRANCH  37  43
ENDBRANCH  32  33
ENDBRANCH   9  32
BRANCH  13  45
HETATM   45  O   UNL     1      -8.982  11.963  67.872  1.00  0.00    -0.165 OA 
BRANCH  45  46
HETATM   46  C   UNL     1      -8.911  12.584  66.580  1.00  0.00    -0.087 C  
HETATM   47  C   UNL     1     -11.035  12.115  63.655  1.00  0.00    -0.527 C  
HETATM   48  C   UNL     1      -7.352  13.058  64.524  1.00  0.00    11.020 C  
HETATM   49  C   UNL     1      -7.496  12.665  66.009  1.00  0.00     2.131 C  
HETATM   50  C   UNL     1      -8.524  12.454  63.723  1.00  0.00     2.903 C  
HETATM   51  H   UNL     1      -5.862  13.599  66.486  1.00  0.00     0.000 HD 
HETATM   52  O   UNL     1      -6.742  13.549  66.841  1.00  0.00     0.134 OA 
HETATM   53  O   UNL     1      -9.796  11.919  65.681  1.00  0.00    -0.235 OA 
HETATM   54  C   UNL     1      -9.857  12.643  64.448  1.00  0.00    -0.047 C  
BRANCH  48  55
HETATM   55  N   UNL     1      -6.028  12.599  63.977  1.00  0.00     8.239 NA 
HETATM   56  C   UNL     1      -5.979  11.163  63.708  1.00  0.00     0.879 C  
HETATM   57  C   UNL     1      -5.526  13.341  62.825  1.00  0.00     8.770 C  
ENDBRANCH  48  55
ENDBRANCH  45  46
ENDBRANCH  13  45
ENDBRANCH   2   3
TORSDOF 7
ENDMDL
MODEL      129
REMARK 921   NORMALIZED FREE ENERGY PREDICTED BY IDOCK:   69.74 KCAL/MOL
REMARK 922        TOTAL FREE ENERGY PREDICTED BY IDOCK:   95.70 KCAL/MOL
REMARK 923 INTER-LIGAND FREE ENERGY PREDICTED BY IDOCK:   26.14 KCAL/MOL
REMARK 924 INTRA-LIGAND FREE ENERGY PREDICTED BY IDOCK:   69.56 KCAL/MOL
REMARK 927      BINDING AFFINITY PREDICTED BY RF-SCORE:    0.00 PKD
ROOT
HETATM    1  C   UNL     1     -10.738  15.971  66.030  1.00  0.00    -0.271 C  
HETATM    2  C   UNL     1     -10.672  14.642  66.767  1.00  0.00    -0.301 C  
ENDROOT
BRANCH   2   3
HETATM    3  C   UNL     1     -11.116  14.717  68.252  1.00  0.00    -0.274 C  
HETATM    4  O   UNL     1     -11.490  13.465  68.934  1.00  0.00    -0.262 OA 
HETATM    5  C   UNL     1     -10.925  12.267  68.668  1.00  0.00    -0.239 C  
HETATM    6  C   UNL     1     -11.465  11.133  69.561  1.00  0.00    -0.374 C  
HETATM    7  O   UNL     1     -10.116  12.090  67.775  1.00  0.00    -0.187 OA 
HETATM    8  C   UNL     1     -12.354  11.682  70.686  1.00  0.00    -0.437 C  
HETATM    9  C   UNL     1     -10.401  10.061  70.105  1.00  0.00    -0.266 C  
HETATM   10  C   UNL     1      -5.687  15.900  70.033  1.00  0.00    -0.160 C  
HETATM   11  C   UNL     1      -9.130   9.865  69.159  1.00  0.00    -0.175 C  
HETATM   12  C   UNL     1      -8.538  13.877  71.468  1.00  0.00     8.287 C  
HETATM   13  C   UNL     1      -7.869   9.042  69.759  1.00  0.00    -0.086 C  
HETATM   14  C   UNL     1      -9.748   9.308  67.855  1.00  0.00    -0.180 C  
HETATM   15  C   UNL     1      -7.900  14.964  70.596  1.00  0.00     1.409 C  
HETATM   16  C   UNL     1      -8.668  15.177  69.229  1.00  0.00    -0.207 C  
HETATM   17  C   UNL     1      -6.554   9.666  70.540  1.00  0.00    -0.107 C  
HETATM   18  C   UNL     1      -6.563  11.151  71.012  1.00  0.00     1.259 C  
HETATM   19  C   UNL     1     -10.197  15.545  69.229  1.00  0.00    -0.252 C  
HETATM   20  C   UNL     1      -5.145   9.295  70.061  1.00  0.00    -0.029 C  
HETATM   21  H   UNL     1     -10.214  15.931  71.136  1.00  0.00     0.000 HD 
HETATM   22  O   UNL     1      -6.575   8.905  71.813  1.00  0.00    -0.086 OA 
HETATM   23  C   UNL     1      -5.744  12.231  70.231  1.00  0.00    -0.167 C  
HETATM   24  H   UNL     1      -8.870  14.206  67.543  1.00  0.00     0.000 HD 
HETATM   25  N   UNL     1      -6.474  14.693  70.273  1.00  0.00    -0.178 NA 
HETATM   26  C   UNL     1      -6.051  12.334  68.743  1.00  0.00    -0.068 C  
HETATM   27  H   UNL     1      -5.819   9.265  72.263  1.00  0.00     0.000 HD 
HETATM   28  C   UNL     1     -10.333  17.048  68.917  1.00  0.00    -0.337 C  
HETATM   29  C   UNL     1      -5.708  13.632  70.930  1.00  0.00    -0.197 C  
HETATM   30  O   UNL     1     -10.769  15.432  70.547  1.00  0.00    -0.311 OA 
HETATM   31  O   UNL     1      -8.408  14.078  68.364  1.00  0.00    -0.154 OA 
BRANCH   9  32
HETATM   32  O   UNL     1     -11.212   8.849  70.202  1.00  0.00    -0.238 OA 
BRANCH  32  33
HETATM   33  C   UNL     1     -10.787   7.662  69.539  1.00  0.00    -0.165 C  
HETATM   34  O   UNL     1      -9.282   9.099  65.840  1.00  0.00    -0.193 OA 
HETATM   35  C   UNL     1      -9.724   8.261  66.909  1.00  0.00    -0.225 C  
HETATM   36  H   UNL     1      -8.343   9.059  65.708  1.00  0.00     0.000 HD 
HETATM   37  C   UNL     1     -11.259   8.327  67.126  1.00  0.00     0.859 C  
HETATM   38  O   UNL     1      -9.379   7.681  69.269  1.00  0.00    -0.149 OA 
HETATM   39  C   UNL     1      -7.474   8.402  68.054  1.00  0.00    -0.097 C  
HETATM   40  C   UNL     1      -8.984   8.569  68.229  1.00  0.00    -0.139 C  
HETATM   41  C   UNL     1     -11.575   7.339  68.269  1.00  0.00     0.869 C  
HETATM   42  C   UNL     1     -12.054   7.880  65.893  1.00  0.00     9.547 C  
BRANCH  37  43
HETATM   43  O   UNL     1     -11.711   9.617  67.576  1.00  0.00     0.642 OA 
HETATM   44  C   UNL     1     -13.101   9.838  67.723  1.00  0.00    10.424 C  
ENDBRANCH  37  43
ENDBRANCH  32  33
ENDBRANCH   9  32
BRANCH  13  45
HETATM   45  O   UNL     1      -7.569   7.744  69.173  1.00  0.00    -0.095 OA 
BRANCH  45  46
HETATM   46  C   UNL     1      -6.624   7.623  68.099  1.00  0.00    -0.054 C  
HETATM   47  C   UNL     1      -5.329  10.177  65.843  1.00  0.00    -0.049 C  
HETATM   48  C   UNL     1      -6.078   6.350  65.872  1.00  0.00    -0.033 C  
HETATM   49  C   UNL     1      -6.860   6.411  67.200  1.00  0.00    -0.066 C  
HETATM   50  C   UNL     1      -5.933   7.776  65.301  1.00  0.00    -0.038 C  
HETATM   51  H   UNL     1      -6.769   4.484  67.421  1.00  0.00     0.000 HD 
HETATM   52  O   UNL     1      -6.623   5.238  67.980  1.00  0.00    -0.046 OA 
HETATM   53  O   UNL     1      -6.602   8.833  67.344  1.00  0.00    -0.057 OA 
HETATM   54  C   UNL     1      -5.540   8.778  66.386  1.00  0.00    -0.042 C  
BRANCH  48  55
HETATM   55  N   UNL     1      -6.763   5.440  64.889  1.00  0.00    -0.046 NA 
HETATM   56  C   UNL     1      -5.859   4.475  64.267  1.00  0.00    -0.017 C  
HETATM   57  C   UNL     1      -7.959   4.762  65.379  1.00  0.00    -0.099 C  
ENDBRANCH  48  55
ENDBRANCH  45  46
ENDBRANCH  13  45
ENDBRANCH   2   3
TORSDOF 7
ENDMDL
MODEL      130
REMARK 921   NORMALIZED FREE ENERGY PREDICTED BY IDOCK:   70.98 KCAL/MOL
REMARK 922        TOTAL FREE ENERGY PREDICTED BY IDOCK:   97.44 KCAL/MOL
REMARK 923 INTER-LIGAND FREE ENERGY PREDICTED BY IDOCK:   29.75 KCAL/MOL
REMARK 924 INTRA-LIGAND FREE ENERGY PREDICTED BY IDOCK:   67.69 KCAL/MOL
REMARK 927      BINDING AFFINITY PREDICTED BY RF-SCORE:    0.00 PKD
ROOT
HETATM    1  C   UNL     1      -5.979  14.306  68.691  1.00  0.00    -0.085 C  
HETATM    2  C   UNL     1      -5.442  15.605  68.107  1.00  0.00    -0.122 C  
ENDROOT
BRANCH   2   3
HETATM    3  C   UNL     1      -6.051  15.982  66.731  1.00  0.00     0.478 C  
HETATM    4  O   UNL     1      -7.046  15.072  66.134  1.00  0.00     1.612 OA 
HETATM    5  C   UNL     1      -7.922  14.340  66.856  1.00  0.00     0.165 C  
HETATM    6  C   UNL     1      -8.885  13.515  65.981  1.00  0.00     0.540 C  
HETATM    7  O   UNL     1      -7.914  14.292  68.073  1.00  0.00    -0.120 OA 
HETATM    8  C   UNL     1      -8.758  13.895  64.498  1.00  0.00     5.227 C  
HETATM    9  C   UNL     1     -10.417  13.436  66.452  1.00  0.00    -0.286 C  
HETATM   10  C   UNL     1      -9.133  20.356  69.057  1.00  0.00     0.689 C  
HETATM   11  C   UNL     1     -10.623  13.591  68.028  1.00  0.00    -0.247 C  
HETATM   12  C   UNL     1      -9.796  17.850  66.307  1.00  0.00    -0.307 C  
HETATM   13  C   UNL     1     -12.135  13.828  68.565  1.00  0.00    -0.292 C  
HETATM   14  C   UNL     1      -9.882  12.361  68.600  1.00  0.00    -0.086 C  
HETATM   15  C   UNL     1      -8.925  18.698  67.241  1.00  0.00    -0.274 C  
HETATM   16  C   UNL     1      -7.590  17.961  67.664  1.00  0.00    -0.212 C  
HETATM   17  C   UNL     1     -12.879  15.277  68.839  1.00  0.00     0.857 C  
HETATM   18  C   UNL     1     -12.229  16.594  68.318  1.00  0.00     1.310 C  
HETATM   19  C   UNL     1      -6.582  17.456  66.567  1.00  0.00    -0.247 C  
HETATM   20  C   UNL     1     -13.542  15.541  70.196  1.00  0.00     0.720 C  
HETATM   21  H   UNL     1      -7.466  18.449  65.146  1.00  0.00     0.000 HD 
HETATM   22  O   UNL     1     -14.098  15.148  68.004  1.00  0.00     6.631 OA 
HETATM   23  C   UNL     1     -11.508  17.564  69.313  1.00  0.00     1.592 C  
HETATM   24  H   UNL     1      -7.091  16.485  68.846  1.00  0.00     0.000 HD 
HETATM   25  N   UNL     1      -9.628  19.105  68.488  1.00  0.00    -0.371 NA 
HETATM   26  C   UNL     1     -10.405  16.936  70.153  1.00  0.00     0.384 C  
HETATM   27  H   UNL     1     -14.525  15.982  68.161  1.00  0.00     0.000 HD 
HETATM   28  C   UNL     1      -5.391  18.433  66.518  1.00  0.00    -0.168 C  
HETATM   29  C   UNL     1     -11.069  18.923  68.671  1.00  0.00     1.158 C  
HETATM   30  O   UNL     1      -7.145  17.560  65.244  1.00  0.00     0.014 OA 
HETATM   31  O   UNL     1      -7.893  16.927  68.593  1.00  0.00    -0.222 OA 
BRANCH   9  32
HETATM   32  O   UNL     1     -10.818  12.117  65.968  1.00  0.00    -0.263 OA 
BRANCH  32  33
HETATM   33  C   UNL     1      -9.952  11.002  66.160  1.00  0.00    -0.231 C  
HETATM   34  O   UNL     1     -11.094   9.526  69.971  1.00  0.00    -0.236 OA 
HETATM   35  C   UNL     1     -10.422   9.747  68.730  1.00  0.00    -0.218 C  
HETATM   36  H   UNL     1     -11.553   8.694  69.996  1.00  0.00     0.000 HD 
HETATM   37  C   UNL     1      -9.674  11.106  68.690  1.00  0.00    -0.198 C  
HETATM   38  O   UNL     1     -10.685   9.777  66.291  1.00  0.00    -0.055 OA 
HETATM   39  C   UNL     1     -12.041   8.250  67.495  1.00  0.00     4.999 C  
HETATM   40  C   UNL     1     -11.379   9.627  67.525  1.00  0.00     0.528 C  
HETATM   41  C   UNL     1      -8.968  11.167  67.319  1.00  0.00    -0.147 C  
HETATM   42  C   UNL     1      -8.594  11.223  69.773  1.00  0.00     1.069 C  
BRANCH  37  43
HETATM   43  O   UNL     1     -10.559  12.239  68.735  1.00  0.00    -0.230 OA 
HETATM   44  C   UNL     1     -10.362  13.293  67.811  1.00  0.00    -0.233 C  
ENDBRANCH  37  43
ENDBRANCH  32  33
ENDBRANCH   9  32
BRANCH  13  45
HETATM   45  O   UNL     1     -12.749  12.763  69.345  1.00  0.00     0.348 OA 
BRANCH  45  46
HETATM   46  C   UNL     1     -12.588  12.711  70.771  1.00  0.00    -0.217 C  
HETATM   47  C   UNL     1     -14.107  10.457  73.200  1.00  0.00     2.326 C  
HETATM   48  C   UNL     1     -12.743  14.104  72.988  1.00  0.00    -0.209 C  
HETATM   49  C   UNL     1     -12.628  14.079  71.450  1.00  0.00    -0.372 C  
HETATM   50  C   UNL     1     -13.637  12.935  73.451  1.00  0.00     3.284 C  
HETATM   51  H   UNL     1     -11.507  15.664  71.439  1.00  0.00     0.000 HD 
HETATM   52  O   UNL     1     -11.482  14.813  71.017  1.00  0.00    -0.286 OA 
HETATM   53  O   UNL     1     -13.557  11.826  71.329  1.00  0.00     0.249 OA 
HETATM   54  C   UNL     1     -13.287  11.638  72.721  1.00  0.00     1.576 C  
BRANCH  48  55
HETATM   55  N   UNL     1     -13.289  15.424  73.461  1.00  0.00    -0.408 NA 
HETATM   56  C   UNL     1     -12.498  16.025  74.533  1.00  0.00    -0.541 C  
HETATM   57  C   UNL     1     -13.555  16.411  72.421  1.00  0.00     0.874 C  
ENDBRANCH  48  55
ENDBRANCH  45  46
ENDBRANCH  13  45
ENDBRANCH   2   3
TORSDOF 7
ENDMDL
MODEL      131
REMARK 921   NORMALIZED FREE ENERGY PREDICTED BY IDOCK:   71.84 KCAL/MOL
REMARK 922        TOTAL FREE ENERGY PREDICTED BY IDOCK:   98.66 KCAL/MOL
REMARK 923 INTER-LIGAND FREE ENERGY PREDICTED BY IDOCK:   69.65 KCAL/MOL
REMARK 924 INTRA-LIGAND FREE ENERGY PREDICTED BY IDOCK:   29.01 KCAL/MOL
REMARK 927      BINDING AFFINITY PREDICTED BY RF-SCORE:    0.00 PKD
ROOT
HETATM    1  C   UNL     1      -9.144   6.554  69.327  1.00  0.00    -0.137 C  
HETATM    2  C   UNL     1     -10.021   5.427  68.802  1.00  0.00    -0.235 C  
ENDROOT
BRANCH   2   3
HETATM    3  C   UNL     1     -11.181   5.899  67.886  1.00  0.00     0.244 C  
HETATM    4  O   UNL     1     -11.718   7.258  68.082  1.00  0.00     0.766 OA 
HETATM    5  C   UNL     1     -10.970   8.310  68.481  1.00  0.00     0.217 C  
HETATM    6  C   UNL     1     -11.769   9.625  68.556  1.00  0.00     0.699 C  
HETATM    7  O   UNL     1      -9.800   8.217  68.806  1.00  0.00    -0.167 OA 
HETATM    8  C   UNL     1     -13.169   9.465  67.947  1.00  0.00    12.283 C  
HETATM    9  C   UNL     1     -11.038  10.956  68.039  1.00  0.00    -0.293 C  
HETATM   10  C   UNL     1      -7.652   6.269  63.254  1.00  0.00    -0.086 C  
HETATM   11  C   UNL     1      -9.447  10.921  68.172  1.00  0.00    -0.167 C  
HETATM   12  C   UNL     1     -10.592   8.301  64.483  1.00  0.00     7.316 C  
HETATM   13  C   UNL     1      -8.605  12.076  67.406  1.00  0.00    -0.171 C  
HETATM   14  C   UNL     1      -9.227  10.816  69.699  1.00  0.00     0.239 C  
HETATM   15  C   UNL     1      -9.715   7.049  64.361  1.00  0.00     3.342 C  
HETATM   16  C   UNL     1      -9.673   6.203  65.697  1.00  0.00     0.420 C  
HETATM   17  C   UNL     1      -7.970  12.002  65.883  1.00  0.00     0.795 C  
HETATM   18  C   UNL     1      -8.386  10.847  64.923  1.00  0.00     0.069 C  
HETATM   19  C   UNL     1     -11.006   5.666  66.337  1.00  0.00    -0.006 C  
HETATM   20  C   UNL     1      -6.488  12.331  65.667  1.00  0.00     3.304 C  
HETATM   21  H   UNL     1     -12.059   6.085  64.756  1.00  0.00     0.000 HD 
HETATM   22  O   UNL     1      -8.571  13.201  65.251  1.00  0.00     1.066 OA 
HETATM   23  C   UNL     1      -7.403   9.662  64.643  1.00  0.00    -0.123 C  
HETATM   24  H   UNL     1      -8.855   6.374  67.466  1.00  0.00     0.000 HD 
HETATM   25  N   UNL     1      -8.310   7.354  63.977  1.00  0.00     0.067 NA 
HETATM   26  C   UNL     1      -6.896   8.928  65.875  1.00  0.00    -0.072 C  
HETATM   27  H   UNL     1      -8.206  13.158  64.375  1.00  0.00     0.000 HD 
HETATM   28  C   UNL     1     -11.121   4.162  66.024  1.00  0.00     1.514 C  
HETATM   29  C   UNL     1      -7.891   8.682  63.523  1.00  0.00    -0.148 C  
HETATM   30  O   UNL     1     -12.165   6.225  65.690  1.00  0.00     3.755 OA 
HETATM   31  O   UNL     1      -8.881   6.882  66.664  1.00  0.00    -0.124 OA 
BRANCH   9  32
HETATM   32  O   UNL     1     -11.641  11.985  68.882  1.00  0.00    -0.270 OA 
BRANCH  32  33
HETATM   33  C   UNL     1     -12.696  12.791  68.365  1.00  0.00     1.380 C  
HETATM   34  O   UNL     1     -11.790  16.658  69.857  1.00  0.00    -0.124 OA 
HETATM   35  C   UNL     1     -12.429  15.544  69.234  1.00  0.00     0.060 C  
HETATM   36  H   UNL     1     -11.493  17.308  69.231  1.00  0.00     0.000 HD 
HETATM   37  C   UNL     1     -12.912  14.482  70.257  1.00  0.00    -0.100 C  
HETATM   38  O   UNL     1     -12.201  13.821  67.500  1.00  0.00    -0.355 OA 
HETATM   39  C   UNL     1     -11.134  15.899  67.092  1.00  0.00    -0.148 C  
HETATM   40  C   UNL     1     -11.528  14.885  68.166  1.00  0.00    -0.330 C  
HETATM   41  C   UNL     1     -13.615  13.381  69.435  1.00  0.00     3.693 C  
HETATM   42  C   UNL     1     -13.934  15.040  71.255  1.00  0.00    -0.525 C  
BRANCH  37  43
HETATM   43  O   UNL     1     -11.831  13.834  70.952  1.00  0.00    -0.254 OA 
HETATM   44  C   UNL     1     -12.095  13.222  72.200  1.00  0.00     1.117 C  
ENDBRANCH  37  43
ENDBRANCH  32  33
ENDBRANCH   9  32
BRANCH  13  45
HETATM   45  O   UNL     1      -7.903  13.054  68.224  1.00  0.00    -0.129 OA 
BRANCH  45  46
HETATM   46  C   UNL     1      -7.913  12.957  69.657  1.00  0.00     1.393 C  
HETATM   47  C   UNL     1      -5.151  13.204  72.023  1.00  0.00    -0.098 C  
HETATM   48  C   UNL     1      -8.622  11.456  71.688  1.00  0.00    11.901 C  
HETATM   49  C   UNL     1      -8.768  11.810  70.194  1.00  0.00     3.351 C  
HETATM   50  C   UNL     1      -7.152  11.649  72.114  1.00  0.00     7.970 C  
HETATM   51  H   UNL     1     -10.663  11.384  70.208  1.00  0.00     0.000 HD 
HETATM   52  O   UNL     1     -10.131  12.097  69.874  1.00  0.00     1.137 OA 
HETATM   53  O   UNL     1      -6.574  12.876  70.139  1.00  0.00     0.077 OA 
HETATM   54  C   UNL     1      -6.575  12.956  71.568  1.00  0.00     3.025 C  
BRANCH  48  55
HETATM   55  N   UNL     1      -9.081  10.048  71.950  1.00  0.00     2.472 NA 
HETATM   56  C   UNL     1     -10.280   9.681  71.200  1.00  0.00    -0.109 C  
HETATM   57  C   UNL     1      -8.065   9.011  71.808  1.00  0.00     0.150 C  
ENDBRANCH  48  55
ENDBRANCH  45  46
ENDBRANCH  13  45
ENDBRANCH   2   3
TORSDOF 7
ENDMDL
MODEL      132
REMARK 921   NORMALIZED FREE ENERGY PREDICTED BY IDOCK:   75.07 KCAL/MOL
REMARK 922        TOTAL FREE ENERGY PREDICTED BY IDOCK:  103.21 KCAL/MOL
REMARK 923 INTER-LIGAND FREE ENERGY PREDICTED BY IDOCK:   69.23 KCAL/MOL
REMARK 924 INTRA-LIGAND FREE ENERGY PREDICTED BY IDOCK:   33.98 KCAL/MOL
REMARK 927      BINDING AFFINITY PREDICTED BY RF-SCORE:    0.00 PKD
ROOT
HETATM    1  C   UNL     1     -14.186   8.155  69.658  1.00  0.00     5.825 C  
HETATM    2  C   UNL     1     -14.100   7.365  68.359  1.00  0.00    18.135 C  
ENDROOT
BRANCH   2   3
HETATM    3  C   UNL     1     -12.816   6.506  68.223  1.00  0.00     8.451 C  
HETATM    4  O   UNL     1     -11.731   7.001  67.355  1.00  0.00     0.426 OA 
HETATM    5  C   UNL     1     -11.447   8.310  67.183  1.00  0.00     1.848 C  
HETATM    6  C   UNL     1     -10.233   8.548  66.264  1.00  0.00    -0.065 C  
HETATM    7  O   UNL     1     -12.116   9.211  67.656  1.00  0.00     2.707 OA 
HETATM    8  C   UNL     1      -9.507   7.233  65.944  1.00  0.00     0.126 C  
HETATM    9  C   UNL     1      -9.211   9.711  66.687  1.00  0.00    -0.151 C  
HETATM   10  C   UNL     1     -11.145   7.760  73.671  1.00  0.00     0.700 C  
HETATM   11  C   UNL     1      -9.878  10.888  67.535  1.00  0.00    -0.192 C  
HETATM   12  C   UNL     1      -9.302   7.257  70.410  1.00  0.00    -0.158 C  
HETATM   13  C   UNL     1      -8.884  11.943  68.262  1.00  0.00    -0.174 C  
HETATM   14  C   UNL     1     -10.906  11.489  66.549  1.00  0.00    -0.335 C  
HETATM   15  C   UNL     1     -10.469   7.099  71.392  1.00  0.00    -0.204 C  
HETATM   16  C   UNL     1     -11.874   7.061  70.665  1.00  0.00    -0.330 C  
HETATM   17  C   UNL     1      -8.294  11.856  69.803  1.00  0.00     1.770 C  
HETATM   18  C   UNL     1      -8.452  10.540  70.622  1.00  0.00     1.841 C  
HETATM   19  C   UNL     1     -12.165   5.981  69.559  1.00  0.00     2.280 C  
HETATM   20  C   UNL     1      -8.452  13.059  70.741  1.00  0.00     7.600 C  
HETATM   21  H   UNL     1     -10.578   4.946  70.001  1.00  0.00     0.000 HD 
HETATM   22  O   UNL     1      -6.832  11.934  69.567  1.00  0.00    -0.257 OA 
HETATM   23  C   UNL     1      -9.517  10.446  71.765  1.00  0.00     5.304 C  
HETATM   24  H   UNL     1     -13.049   8.342  69.767  1.00  0.00     0.000 HD 
HETATM   25  N   UNL     1     -10.522   8.175  72.417  1.00  0.00    -0.293 NA 
HETATM   26  C   UNL     1     -10.945  10.779  71.357  1.00  0.00     1.769 C  
HETATM   27  H   UNL     1      -6.493  11.883  70.453  1.00  0.00     0.000 HD 
HETATM   28  C   UNL     1     -13.058   4.886  70.174  1.00  0.00    13.309 C  
HETATM   29  C   UNL     1      -9.429   9.130  72.610  1.00  0.00     1.104 C  
HETATM   30  O   UNL     1     -10.970   5.262  69.195  1.00  0.00    -0.027 OA 
HETATM   31  O   UNL     1     -12.205   8.365  70.204  1.00  0.00     0.379 OA 
BRANCH   9  32
HETATM   32  O   UNL     1      -8.718  10.172  65.391  1.00  0.00    -0.147 OA 
BRANCH  32  33
HETATM   33  C   UNL     1      -7.550   9.580  64.831  1.00  0.00    -0.111 C  
HETATM   34  O   UNL     1      -8.460   5.436  64.835  1.00  0.00    -0.145 OA 
HETATM   35  C   UNL     1      -7.795   6.694  64.717  1.00  0.00    -0.115 C  
HETATM   36  H   UNL     1      -8.615   5.023  63.994  1.00  0.00     0.000 HD 
HETATM   37  C   UNL     1      -7.542   7.368  66.092  1.00  0.00    -0.088 C  
HETATM   38  O   UNL     1      -7.841   8.885  63.612  1.00  0.00    -0.126 OA 
HETATM   39  C   UNL     1      -8.708   7.049  62.387  1.00  0.00     0.302 C  
HETATM   40  C   UNL     1      -8.549   7.661  63.779  1.00  0.00     0.441 C  
HETATM   41  C   UNL     1      -6.781   8.677  65.796  1.00  0.00    -0.064 C  
HETATM   42  C   UNL     1      -6.662   6.519  67.018  1.00  0.00    -0.060 C  
BRANCH  37  43
HETATM   43  O   UNL     1      -8.755   7.753  66.764  1.00  0.00    -0.126 OA 
HETATM   44  C   UNL     1      -8.664   8.548  67.931  1.00  0.00    -0.138 C  
ENDBRANCH  37  43
ENDBRANCH  32  33
ENDBRANCH   9  32
BRANCH  13  45
HETATM   45  O   UNL     1      -8.877  13.313  67.771  1.00  0.00    -0.174 OA 
BRANCH  45  46
HETATM   46  C   UNL     1      -8.809  14.421  68.681  1.00  0.00    -0.167 C  
HETATM   47  C   UNL     1     -11.286  15.623  71.070  1.00  0.00    -0.426 C  
HETATM   48  C   UNL     1      -8.373  17.000  68.873  1.00  0.00    -0.196 C  
HETATM   49  C   UNL     1      -8.231  15.694  68.066  1.00  0.00    -0.144 C  
HETATM   50  C   UNL     1      -9.724  16.993  69.617  1.00  0.00     0.296 C  
HETATM   51  H   UNL     1      -6.500  16.233  67.369  1.00  0.00     0.000 HD 
HETATM   52  O   UNL     1      -6.860  15.441  67.752  1.00  0.00    -0.135 OA 
HETATM   53  O   UNL     1     -10.097  14.656  69.244  1.00  0.00    -0.200 OA 
HETATM   54  C   UNL     1      -9.994  15.641  70.278  1.00  0.00     0.097 C  
BRANCH  48  55
HETATM   55  N   UNL     1      -8.257  18.200  67.973  1.00  0.00    -0.253 NA 
HETATM   56  C   UNL     1      -6.893  18.712  67.864  1.00  0.00    -0.212 C  
HETATM   57  C   UNL     1      -8.846  18.058  66.646  1.00  0.00    -0.266 C  
ENDBRANCH  48  55
ENDBRANCH  45  46
ENDBRANCH  13  45
ENDBRANCH   2   3
TORSDOF 7
ENDMDL
MODEL      133
REMARK 921   NORMALIZED FREE ENERGY PREDICTED BY IDOCK:   80.63 KCAL/MOL
REMARK 922        TOTAL FREE ENERGY PREDICTED BY IDOCK:  111.05 KCAL/MOL
REMARK 923 INTER-LIGAND FREE ENERGY PREDICTED BY IDOCK:   91.59 KCAL/MOL
REMARK 924 INTRA-LIGAND FREE ENERGY PREDICTED BY IDOCK:   19.46 KCAL/MOL
REMARK 927      BINDING AFFINITY PREDICTED BY RF-SCORE:    0.00 PKD
ROOT
HETATM    1  C   UNL     1      -7.152  18.053  69.150  1.00  0.00    -0.189 C  
HETATM    2  C   UNL     1      -8.215  19.095  69.468  1.00  0.00     0.250 C  
ENDROOT
BRANCH   2   3
HETATM    3  C   UNL     1      -9.664  18.540  69.482  1.00  0.00     0.282 C  
HETATM    4  O   UNL     1     -10.028  17.510  68.492  1.00  0.00    -0.304 OA 
HETATM    5  C   UNL     1      -9.167  16.578  68.028  1.00  0.00    -0.214 C  
HETATM    6  C   UNL     1      -9.821  15.592  67.040  1.00  0.00    -0.236 C  
HETATM    7  O   UNL     1      -7.984  16.555  68.314  1.00  0.00    -0.165 OA 
HETATM    8  C   UNL     1     -11.345  15.773  66.994  1.00  0.00     0.016 C  
HETATM    9  C   UNL     1      -9.403  14.047  67.165  1.00  0.00    -0.242 C  
HETATM   10  C   UNL     1      -8.732  15.652  74.466  1.00  0.00    17.511 C  
HETATM   11  C   UNL     1      -7.939  13.813  67.755  1.00  0.00    -0.170 C  
HETATM   12  C   UNL     1     -10.720  14.915  71.337  1.00  0.00     0.519 C  
HETATM   13  C   UNL     1      -7.543  12.304  68.201  1.00  0.00    -0.127 C  
HETATM   14  C   UNL     1      -7.026  14.471  66.695  1.00  0.00     1.765 C  
HETATM   15  C   UNL     1     -10.019  15.810  72.366  1.00  0.00     4.769 C  
HETATM   16  C   UNL     1      -9.362  17.091  71.712  1.00  0.00     9.151 C  
HETATM   17  C   UNL     1      -7.702  11.636  69.703  1.00  0.00     0.643 C  
HETATM   18  C   UNL     1      -8.536  12.370  70.796  1.00  0.00     8.126 C  
HETATM   19  C   UNL     1     -10.242  18.095  70.879  1.00  0.00     2.842 C  
HETATM   20  C   UNL     1      -6.493  10.957  70.359  1.00  0.00    -0.040 C  
HETATM   21  H   UNL     1     -11.911  17.301  71.486  1.00  0.00     0.000 HD 
HETATM   22  O   UNL     1      -8.515  10.431  69.408  1.00  0.00    -0.182 OA 
HETATM   23  C   UNL     1      -7.816  13.120  71.965  1.00  0.00    11.379 C  
HETATM   24  H   UNL     1      -7.805  17.480  70.593  1.00  0.00     0.000 HD 
HETATM   25  N   UNL     1      -8.958  15.102  73.132  1.00  0.00     8.268 NA 
HETATM   26  C   UNL     1      -6.796  14.167  71.540  1.00  0.00     1.778 C  
HETATM   27  H   UNL     1      -8.607  10.047  70.273  1.00  0.00     0.000 HD 
HETATM   28  C   UNL     1     -10.510  19.339  71.748  1.00  0.00     3.403 C  
HETATM   29  C   UNL     1      -8.786  13.649  73.075  1.00  0.00    13.624 C  
HETATM   30  O   UNL     1     -11.563  17.570  70.644  1.00  0.00     1.759 OA 
HETATM   31  O   UNL     1      -8.200  16.710  70.986  1.00  0.00     4.477 OA 
BRANCH   9  32
HETATM   32  O   UNL     1      -9.525  13.584  65.785  1.00  0.00    -0.117 OA 
BRANCH  32  33
HETATM   33  C   UNL     1     -10.272  14.354  64.847  1.00  0.00    -0.324 C  
HETATM   34  O   UNL     1     -14.015  12.360  64.713  1.00  0.00     0.495 OA 
HETATM   35  C   UNL     1     -12.920  13.240  64.457  1.00  0.00     0.090 C  
HETATM   36  H   UNL     1     -14.760  12.805  65.101  1.00  0.00     0.000 HD 
HETATM   37  C   UNL     1     -11.704  12.513  63.824  1.00  0.00    -0.485 C  
HETATM   38  O   UNL     1     -11.440  14.930  65.445  1.00  0.00    -0.346 OA 
HETATM   39  C   UNL     1     -13.650  14.812  66.298  1.00  0.00     3.154 C  
HETATM   40  C   UNL     1     -12.484  14.004  65.727  1.00  0.00    -0.494 C  
HETATM   41  C   UNL     1     -10.638  13.600  63.569  1.00  0.00     1.391 C  
HETATM   42  C   UNL     1     -12.036  11.862  62.476  1.00  0.00     1.398 C  
BRANCH  37  43
HETATM   43  O   UNL     1     -11.095  11.556  64.710  1.00  0.00    -0.296 OA 
HETATM   44  C   UNL     1      -9.805  11.829  65.224  1.00  0.00    -0.239 C  
ENDBRANCH  37  43
ENDBRANCH  32  33
ENDBRANCH   9  32
BRANCH  13  45
HETATM   45  O   UNL     1      -6.526  11.615  67.420  1.00  0.00    -0.079 OA 
BRANCH  45  46
HETATM   46  C   UNL     1      -6.835  10.399  66.722  1.00  0.00    -0.091 C  
HETATM   47  C   UNL     1      -7.423   9.844  63.168  1.00  0.00    -0.132 C  
HETATM   48  C   UNL     1      -8.481   8.360  66.615  1.00  0.00    -0.111 C  
HETATM   49  C   UNL     1      -7.886   9.535  67.417  1.00  0.00    -0.102 C  
HETATM   50  C   UNL     1      -8.608   8.768  65.133  1.00  0.00    -0.209 C  
HETATM   51  H   UNL     1      -7.980   8.538  69.081  1.00  0.00     0.000 HD 
HETATM   52  O   UNL     1      -7.326   9.075  68.648  1.00  0.00    -0.075 OA 
HETATM   53  O   UNL     1      -7.215  10.701  65.382  1.00  0.00    -0.110 OA 
HETATM   54  C   UNL     1      -7.352   9.485  64.638  1.00  0.00    -0.113 C  
BRANCH  48  55
HETATM   55  N   UNL     1      -9.814   7.948  67.180  1.00  0.00    -0.187 NA 
HETATM   56  C   UNL     1      -9.736   7.477  68.561  1.00  0.00    -0.156 C  
HETATM   57  C   UNL     1     -10.890   8.923  67.043  1.00  0.00     0.031 C  
ENDBRANCH  48  55
ENDBRANCH  45  46
ENDBRANCH  13  45
ENDBRANCH   2   3
TORSDOF 7
ENDMDL
MODEL      134
REMARK 921   NORMALIZED FREE ENERGY PREDICTED BY IDOCK:   82.53 KCAL/MOL
REMARK 922        TOTAL FREE ENERGY PREDICTED BY IDOCK:  113.72 KCAL/MOL
REMARK 923 INTER-LIGAND FREE ENERGY PREDICTED BY IDOCK:   76.80 KCAL/MOL
REMARK 924 INTRA-LIGAND FREE ENERGY PREDICTED BY IDOCK:   36.93 KCAL/MOL
REMARK 927      BINDING AFFINITY PREDICTED BY RF-SCORE:    0.00 PKD
ROOT
HETATM    1  C   UNL     1     -11.670  16.162  63.513  1.00  0.00     1.930 C  
HETATM    2  C   UNL     1     -11.983  15.891  64.978  1.00  0.00     0.447 C  
ENDROOT
BRANCH   2   3
HETATM    3  C   UNL     1     -11.120  16.710  65.973  1.00  0.00     0.249 C  
HETATM    4  O   UNL     1     -11.444  16.629  67.410  1.00  0.00     0.143 OA 
HETATM    5  C   UNL     1     -11.936  15.522  68.007  1.00  0.00     0.072 C  
HETATM    6  C   UNL     1     -12.136  15.694  69.525  1.00  0.00    -0.307 C  
HETATM    7  O   UNL     1     -12.245  14.512  67.400  1.00  0.00    -0.333 OA 
HETATM    8  C   UNL     1     -11.521  17.008  70.026  1.00  0.00     0.919 C  
HETATM    9  C   UNL     1     -11.741  14.451  70.460  1.00  0.00    -0.264 C  
HETATM   10  C   UNL     1      -6.526  13.194  65.211  1.00  0.00     9.552 C  
HETATM   11  C   UNL     1     -11.863  13.030  69.743  1.00  0.00    -0.381 C  
HETATM   12  C   UNL     1      -7.952  15.043  68.183  1.00  0.00    -0.131 C  
HETATM   13  C   UNL     1     -11.204  11.752  70.495  1.00  0.00     0.845 C  
HETATM   14  C   UNL     1     -13.373  12.928  69.424  1.00  0.00     2.703 C  
HETATM   15  C   UNL     1      -7.711  14.772  66.693  1.00  0.00     0.604 C  
HETATM   16  C   UNL     1      -8.962  15.138  65.798  1.00  0.00     0.283 C  
HETATM   17  C   UNL     1      -9.678  11.155  70.289  1.00  0.00     1.921 C  
HETATM   18  C   UNL     1      -8.617  11.986  69.507  1.00  0.00     1.282 C  
HETATM   19  C   UNL     1      -9.556  16.595  65.823  1.00  0.00    -0.116 C  
HETATM   20  C   UNL     1      -9.486   9.665  69.977  1.00  0.00    -0.277 C  
HETATM   21  H   UNL     1      -8.026  17.317  66.782  1.00  0.00     0.000 HD 
HETATM   22  O   UNL     1      -9.163  11.170  71.680  1.00  0.00     6.829 OA 
HETATM   23  C   UNL     1      -8.223  11.585  68.047  1.00  0.00    -0.143 C  
HETATM   24  H   UNL     1     -10.736  14.388  65.453  1.00  0.00     0.000 HD 
HETATM   25  N   UNL     1      -7.350  13.358  66.406  1.00  0.00     1.329 NA 
HETATM   26  C   UNL     1      -9.380  11.479  67.063  1.00  0.00    -0.185 C  
HETATM   27  H   UNL     1      -8.284  10.827  71.561  1.00  0.00     0.000 HD 
HETATM   28  C   UNL     1      -9.105  17.323  64.541  1.00  0.00     6.101 C  
HETATM   29  C   UNL     1      -7.020  12.402  67.465  1.00  0.00    -0.142 C  
HETATM   30  O   UNL     1      -8.969  17.387  66.873  1.00  0.00    -0.231 OA 
HETATM   31  O   UNL     1      -9.984  14.168  65.991  1.00  0.00    -0.301 OA 
BRANCH   9  32
HETATM   32  O   UNL     1     -12.680  14.593  71.571  1.00  0.00    -0.305 OA 
BRANCH  32  33
HETATM   33  C   UNL     1     -12.232  15.147  72.805  1.00  0.00    -0.382 C  
HETATM   34  O   UNL     1      -8.692  17.217  71.716  1.00  0.00     9.977 OA 
HETATM   35  C   UNL     1      -9.762  16.621  72.451  1.00  0.00     8.827 C  
HETATM   36  H   UNL     1      -8.720  18.167  71.734  1.00  0.00     0.000 HD 
HETATM   37  C   UNL     1      -9.716  15.070  72.422  1.00  0.00     5.113 C  
HETATM   38  O   UNL     1     -12.196  16.579  72.761  1.00  0.00    -0.464 OA 
HETATM   39  C   UNL     1     -11.236  18.644  72.101  1.00  0.00     4.174 C  
HETATM   40  C   UNL     1     -11.141  17.124  71.974  1.00  0.00     1.552 C  
HETATM   41  C   UNL     1     -10.895  14.589  73.293  1.00  0.00     2.803 C  
HETATM   42  C   UNL     1      -8.427  14.502  73.030  1.00  0.00     8.827 C  
BRANCH  37  43
HETATM   43  O   UNL     1      -9.938  14.523  71.110  1.00  0.00     1.691 OA 
HETATM   44  C   UNL     1      -8.939  13.699  70.539  1.00  0.00     4.670 C  
ENDBRANCH  37  43
ENDBRANCH  32  33
ENDBRANCH   9  32
BRANCH  13  45
HETATM   45  O   UNL     1     -12.106  10.732  71.009  1.00  0.00    -0.341 OA 
BRANCH  45  46
HETATM   46  C   UNL     1     -11.867   9.341  70.749  1.00  0.00    -0.243 C  
HETATM   47  C   UNL     1     -13.974   6.449  71.450  1.00  0.00     0.586 C  
HETATM   48  C   UNL     1     -10.194   7.357  71.129  1.00  0.00    -0.193 C  
HETATM   49  C   UNL     1     -10.458   8.876  71.111  1.00  0.00    -0.266 C  
HETATM   50  C   UNL     1     -11.453   6.629  71.646  1.00  0.00    -0.332 C  
HETATM   51  H   UNL     1      -8.667   9.248  70.459  1.00  0.00     0.000 HD 
HETATM   52  O   UNL     1      -9.543   9.537  70.234  1.00  0.00    -0.233 OA 
HETATM   53  O   UNL     1     -12.858   8.555  71.408  1.00  0.00    -0.310 OA 
HETATM   54  C   UNL     1     -12.726   7.187  71.008  1.00  0.00    -0.253 C  
BRANCH  48  55
HETATM   55  N   UNL     1      -8.995   7.032  71.978  1.00  0.00    -0.132 NA 
HETATM   56  C   UNL     1      -8.856   7.905  73.141  1.00  0.00    -0.233 C  
HETATM   57  C   UNL     1      -8.860   5.636  72.380  1.00  0.00    -0.135 C  
ENDBRANCH  48  55
ENDBRANCH  45  46
ENDBRANCH  13  45
ENDBRANCH   2   3
TORSDOF 7
ENDMDL
MODEL      135
REMARK 921   NORMALIZED FREE ENERGY PREDICTED BY IDOCK:   84.68 KCAL/MOL
REMARK 922        TOTAL FREE ENERGY PREDICTED BY IDOCK:  116.76 KCAL/MOL
REMARK 923 INTER-LIGAND FREE ENERGY PREDICTED BY IDOCK:   55.01 KCAL/MOL
REMARK 924 INTRA-LIGAND FREE ENERGY PREDICTED BY IDOCK:   61.75 KCAL/MOL
REMARK 927      BINDING AFFINITY PREDICTED BY RF-SCORE:    0.00 PKD
ROOT
HETATM    1  C   UNL     1      -6.122  11.489  64.936  1.00  0.00     1.879 C  
HETATM    2  C   UNL     1      -6.679  10.286  64.189  1.00  0.00    -0.062 C  
ENDROOT
BRANCH   2   3
HETATM    3  C   UNL     1      -7.577   9.362  65.052  1.00  0.00    -0.109 C  
HETATM    4  O   UNL     1      -7.397   9.380  66.516  1.00  0.00    -0.091 OA 
HETATM    5  C   UNL     1      -7.036  10.479  67.214  1.00  0.00    -0.088 C  
HETATM    6  C   UNL     1      -6.970  10.234  68.733  1.00  0.00    -0.067 C  
HETATM    7  O   UNL     1      -6.737  11.538  66.691  1.00  0.00    -0.133 OA 
HETATM    8  C   UNL     1      -7.544   8.859  69.104  1.00  0.00    -0.080 C  
HETATM    9  C   UNL     1      -7.531  11.396  69.687  1.00  0.00     0.257 C  
HETATM   10  C   UNL     1     -12.295  12.637  64.022  1.00  0.00    -0.443 C  
HETATM   11  C   UNL     1      -7.434  12.860  69.058  1.00  0.00     0.104 C  
HETATM   12  C   UNL     1     -11.041  10.711  67.022  1.00  0.00    -0.217 C  
HETATM   13  C   UNL     1      -8.241  14.052  69.805  1.00  0.00     1.005 C  
HETATM   14  C   UNL     1      -5.910  13.069  68.894  1.00  0.00    -0.076 C  
HETATM   15  C   UNL     1     -11.157  11.050  65.531  1.00  0.00     0.071 C  
HETATM   16  C   UNL     1      -9.806  10.811  64.745  1.00  0.00    -0.300 C  
HETATM   17  C   UNL     1      -9.776  14.569  69.481  1.00  0.00     0.211 C  
HETATM   18  C   UNL     1     -10.703  13.722  68.558  1.00  0.00    -0.274 C  
HETATM   19  C   UNL     1      -9.125   9.393  64.755  1.00  0.00    -0.193 C  
HETATM   20  C   UNL     1     -10.033  16.060  69.228  1.00  0.00    -0.252 C  
HETATM   21  H   UNL     1     -10.689   8.528  65.522  1.00  0.00     0.000 HD 
HETATM   22  O   UNL     1     -10.419  14.444  70.812  1.00  0.00     0.102 OA 
HETATM   23  C   UNL     1     -10.982  14.181  67.088  1.00  0.00    -0.304 C  
HETATM   24  H   UNL     1      -8.059  11.683  64.615  1.00  0.00     0.000 HD 
HETATM   25  N   UNL     1     -11.579  12.455  65.282  1.00  0.00    -0.359 NA 
HETATM   26  C   UNL     1      -9.746  14.411  66.229  1.00  0.00    -0.330 C  
HETATM   27  H   UNL     1     -11.302  14.741  70.625  1.00  0.00     0.000 HD 
HETATM   28  C   UNL     1      -9.404   8.713  63.400  1.00  0.00     1.385 C  
HETATM   29  C   UNL     1     -12.069  13.329  66.351  1.00  0.00    -0.394 C  
HETATM   30  O   UNL     1      -9.756   8.509  65.702  1.00  0.00    -0.040 OA 
HETATM   31  O   UNL     1      -8.871  11.827  65.087  1.00  0.00     0.155 OA 
BRANCH   9  32
HETATM   32  O   UNL     1      -6.695  11.247  70.876  1.00  0.00     0.178 OA 
BRANCH  32  33
HETATM   33  C   UNL     1      -7.251  10.690  72.063  1.00  0.00     4.612 C  
HETATM   34  O   UNL     1      -8.019   6.660  70.981  1.00  0.00    -0.104 OA 
HETATM   35  C   UNL     1      -7.955   7.905  71.678  1.00  0.00    -0.101 C  
HETATM   36  H   UNL     1      -7.471   5.991  71.375  1.00  0.00     0.000 HD 
HETATM   37  C   UNL     1      -8.851   8.997  71.034  1.00  0.00    -0.230 C  
HETATM   38  O   UNL     1      -6.446   9.620  72.574  1.00  0.00    -0.103 OA 
HETATM   39  C   UNL     1      -5.638   7.391  72.547  1.00  0.00    -0.037 C  
HETATM   40  C   UNL     1      -6.505   8.416  71.816  1.00  0.00    -0.064 C  
HETATM   41  C   UNL     1      -8.709  10.249  71.924  1.00  0.00     5.311 C  
HETATM   42  C   UNL     1     -10.335   8.611  71.010  1.00  0.00    -0.275 C  
BRANCH  37  43
HETATM   43  O   UNL     1      -8.409   9.387  69.721  1.00  0.00    -0.126 OA 
HETATM   44  C   UNL     1      -7.027   9.598  69.503  1.00  0.00    -0.059 C  
ENDBRANCH  37  43
ENDBRANCH  32  33
ENDBRANCH   9  32
BRANCH  13  45
HETATM   45  O   UNL     1      -7.460  15.093  70.456  1.00  0.00     0.343 OA 
BRANCH  45  46
HETATM   46  C   UNL     1      -7.842  16.473  70.353  1.00  0.00     2.417 C  
HETATM   47  C   UNL     1      -6.911  19.306  72.449  1.00  0.00     2.793 C  
HETATM   48  C   UNL     1      -9.883  18.116  70.221  1.00  0.00     1.778 C  
HETATM   49  C   UNL     1      -9.329  16.684  70.074  1.00  0.00     1.120 C  
HETATM   50  C   UNL     1      -9.162  18.821  71.389  1.00  0.00     6.083 C  
HETATM   51  H   UNL     1     -10.529  16.299  68.595  1.00  0.00     0.000 HD 
HETATM   52  O   UNL     1      -9.604  16.168  68.770  1.00  0.00    -0.215 OA 
HETATM   53  O   UNL     1      -7.431  17.171  71.526  1.00  0.00     6.095 OA 
HETATM   54  C   UNL     1      -7.654  18.574  71.350  1.00  0.00     5.908 C  
BRANCH  48  55
HETATM   55  N   UNL     1     -11.371  18.094  70.437  1.00  0.00     3.119 NA 
HETATM   56  C   UNL     1     -11.761  18.405  71.811  1.00  0.00     6.129 C  
HETATM   57  C   UNL     1     -12.160  18.887  69.501  1.00  0.00     9.083 C  
ENDBRANCH  48  55
ENDBRANCH  45  46
ENDBRANCH  13  45
ENDBRANCH   2   3
TORSDOF 7
ENDMDL
MODEL      136
REMARK 921   NORMALIZED FREE ENERGY PREDICTED BY IDOCK:   85.51 KCAL/MOL
REMARK 922        TOTAL FREE ENERGY PREDICTED BY IDOCK:  117.92 KCAL/MOL
REMARK 923 INTER-LIGAND FREE ENERGY PREDICTED BY IDOCK:   72.03 KCAL/MOL
REMARK 924 INTRA-LIGAND FREE ENERGY PREDICTED BY IDOCK:   45.89 KCAL/MOL
REMARK 927      BINDING AFFINITY PREDICTED BY RF-SCORE:    0.00 PKD
ROOT
HETATM    1  C   UNL     1     -12.533   5.130  66.149  1.00  0.00     6.018 C  
HETATM    2  C   UNL     1     -12.276   6.540  65.637  1.00  0.00     6.558 C  
ENDROOT
BRANCH   2   3
HETATM    3  C   UNL     1     -10.909   6.718  64.927  1.00  0.00     6.531 C  
HETATM    4  O   UNL     1     -10.346   8.078  64.825  1.00  0.00     3.659 OA 
HETATM    5  C   UNL     1     -10.525   9.036  65.761  1.00  0.00     0.932 C  
HETATM    6  C   UNL     1      -9.786  10.347  65.430  1.00  0.00    -0.325 C  
HETATM    7  O   UNL     1     -11.243   8.898  66.734  1.00  0.00     0.420 OA 
HETATM    8  C   UNL     1      -8.847  10.172  64.227  1.00  0.00    -0.244 C  
HETATM    9  C   UNL     1      -9.069  11.109  66.646  1.00  0.00    -0.170 C  
HETATM   10  C   UNL     1      -8.053   4.177  69.336  1.00  0.00    -0.059 C  
HETATM   11  C   UNL     1      -9.748  10.853  68.068  1.00  0.00    -0.176 C  
HETATM   12  C   UNL     1      -7.266   7.046  67.005  1.00  0.00    -0.081 C  
HETATM   13  C   UNL     1      -8.929  11.326  69.386  1.00  0.00     0.438 C  
HETATM   14  C   UNL     1     -11.162  11.454  67.893  1.00  0.00    -0.352 C  
HETATM   15  C   UNL     1      -7.966   5.753  67.438  1.00  0.00    -0.102 C  
HETATM   16  C   UNL     1      -9.452   5.658  66.906  1.00  0.00    -0.135 C  
HETATM   17  C   UNL     1      -7.886  10.417  70.289  1.00  0.00     0.395 C  
HETATM   18  C   UNL     1      -7.388   9.042  69.752  1.00  0.00    -0.058 C  
HETATM   19  C   UNL     1      -9.747   5.745  65.363  1.00  0.00     0.447 C  
HETATM   20  C   UNL     1      -8.085  10.327  71.807  1.00  0.00     4.137 C  
HETATM   21  H   UNL     1      -7.873   5.541  64.884  1.00  0.00     0.000 HD 
HETATM   22  O   UNL     1      -6.662  11.254  70.263  1.00  0.00    -0.446 OA 
HETATM   23  C   UNL     1      -7.964   7.711  70.340  1.00  0.00    -0.097 C  
HETATM   24  H   UNL     1     -11.169   6.502  67.314  1.00  0.00     0.000 HD 
HETATM   25  N   UNL     1      -8.005   5.575  68.915  1.00  0.00    -0.094 NA 
HETATM   26  C   UNL     1      -9.479   7.577  70.294  1.00  0.00    -0.165 C  
HETATM   27  H   UNL     1      -6.063  10.731  70.783  1.00  0.00     0.000 HD 
HETATM   28  C   UNL     1     -10.043   4.324  64.845  1.00  0.00    -0.184 C  
HETATM   29  C   UNL     1      -7.236   6.422  69.829  1.00  0.00    -0.074 C  
HETATM   30  O   UNL     1      -8.573   6.127  64.621  1.00  0.00    -0.036 OA 
HETATM   31  O   UNL     1     -10.276   6.559  67.634  1.00  0.00    -0.140 OA 
BRANCH   9  32
HETATM   32  O   UNL     1      -9.165  12.507  66.231  1.00  0.00    -0.215 OA 
BRANCH  32  33
HETATM   33  C   UNL     1     -10.443  13.075  65.960  1.00  0.00    -0.279 C  
HETATM   34  O   UNL     1     -12.556   9.891  64.116  1.00  0.00     6.947 OA 
HETATM   35  C   UNL     1     -12.174  11.167  64.634  1.00  0.00     1.396 C  
HETATM   36  H   UNL     1     -13.258   9.489  64.614  1.00  0.00     0.000 HD 
HETATM   37  C   UNL     1     -11.026  11.822  63.821  1.00  0.00    -0.429 C  
HETATM   38  O   UNL     1     -11.489  12.382  66.652  1.00  0.00    -0.327 OA 
HETATM   39  C   UNL     1     -12.963  10.549  66.955  1.00  0.00     9.345 C  
HETATM   40  C   UNL     1     -11.797  11.094  66.129  1.00  0.00     1.090 C  
HETATM   41  C   UNL     1     -10.771  13.198  64.472  1.00  0.00    -0.416 C  
HETATM   42  C   UNL     1     -11.400  12.065  62.354  1.00  0.00     2.043 C  
BRANCH  37  43
HETATM   43  O   UNL     1      -9.785  11.100  63.913  1.00  0.00    -0.240 OA 
HETATM   44  C   UNL     1      -8.768  11.601  64.760  1.00  0.00     0.588 C  
ENDBRANCH  37  43
ENDBRANCH  32  33
ENDBRANCH   9  32
BRANCH  13  45
HETATM   45  O   UNL     1      -9.476  12.429  70.161  1.00  0.00     2.907 OA 
BRANCH  45  46
HETATM   46  C   UNL     1      -9.006  13.771  69.963  1.00  0.00     2.396 C  
HETATM   47  C   UNL     1      -5.741  15.222  70.688  1.00  0.00    -0.080 C  
HETATM   48  C   UNL     1      -9.484  16.297  70.482  1.00  0.00     1.818 C  
HETATM   49  C   UNL     1     -10.000  14.847  70.397  1.00  0.00     0.507 C  
HETATM   50  C   UNL     1      -8.023  16.289  70.976  1.00  0.00     4.519 C  
HETATM   51  H   UNL     1     -11.754  15.433  69.801  1.00  0.00     0.000 HD 
HETATM   52  O   UNL     1     -11.135  14.764  69.532  1.00  0.00    -0.261 OA 
HETATM   53  O   UNL     1      -7.747  13.937  70.611  1.00  0.00     1.741 OA 
HETATM   54  C   UNL     1      -7.197  15.213  70.268  1.00  0.00     0.246 C  
BRANCH  48  55
HETATM   55  N   UNL     1     -10.357  17.123  71.388  1.00  0.00     2.673 NA 
HETATM   56  C   UNL     1     -11.711  16.591  71.528  1.00  0.00    -0.104 C  
HETATM   57  C   UNL     1      -9.800  17.427  72.701  1.00  0.00     9.564 C  
ENDBRANCH  48  55
ENDBRANCH  45  46
ENDBRANCH  13  45
ENDBRANCH   2   3
TORSDOF 7
ENDMDL
MODEL      137
REMARK 921   NORMALIZED FREE ENERGY PREDICTED BY IDOCK:   88.01 KCAL/MOL
REMARK 922        TOTAL FREE ENERGY PREDICTED BY IDOCK:  121.44 KCAL/MOL
REMARK 923 INTER-LIGAND FREE ENERGY PREDICTED BY IDOCK:   93.95 KCAL/MOL
REMARK 924 INTRA-LIGAND FREE ENERGY PREDICTED BY IDOCK:   27.49 KCAL/MOL
REMARK 927      BINDING AFFINITY PREDICTED BY RF-SCORE:    0.00 PKD
ROOT
HETATM    1  C   UNL     1     -12.276   3.548  74.548  1.00  0.00     3.613 C  
HETATM    2  C   UNL     1     -11.853   4.784  73.767  1.00  0.00     0.796 C  
ENDROOT
BRANCH   2   3
HETATM    3  C   UNL     1     -11.421   4.495  72.306  1.00  0.00     0.582 C  
HETATM    4  O   UNL     1     -11.788   5.470  71.262  1.00  0.00     0.369 OA 
HETATM    5  C   UNL     1     -11.877   6.801  71.476  1.00  0.00    -0.333 C  
HETATM    6  C   UNL     1     -12.227   7.594  70.203  1.00  0.00     0.484 C  
HETATM    7  O   UNL     1     -11.751   7.314  72.574  1.00  0.00    -0.270 OA 
HETATM    8  C   UNL     1     -12.174   6.703  68.955  1.00  0.00     1.991 C  
HETATM    9  C   UNL     1     -11.466   8.989  69.978  1.00  0.00     0.010 C  
HETATM   10  C   UNL     1      -5.816   5.557  73.530  1.00  0.00    -0.032 C  
HETATM   11  C   UNL     1     -11.008   9.708  71.328  1.00  0.00    -0.399 C  
HETATM   12  C   UNL     1      -8.018   6.215  70.530  1.00  0.00    -0.111 C  
HETATM   13  C   UNL     1      -9.978  10.954  71.202  1.00  0.00     4.130 C  
HETATM   14  C   UNL     1     -12.350  10.004  72.039  1.00  0.00    -0.222 C  
HETATM   15  C   UNL     1      -7.595   5.503  71.820  1.00  0.00    -0.095 C  
HETATM   16  C   UNL     1      -8.829   5.037  72.691  1.00  0.00    -0.122 C  
HETATM   17  C   UNL     1      -8.329  10.893  71.275  1.00  0.00     5.927 C  
HETATM   18  C   UNL     1      -7.598   9.518  71.204  1.00  0.00     0.161 C  
HETATM   19  C   UNL     1      -9.918   4.082  72.076  1.00  0.00    -0.176 C  
HETATM   20  C   UNL     1      -7.582  11.815  72.247  1.00  0.00    12.641 C  
HETATM   21  H   UNL     1      -8.829   3.670  70.518  1.00  0.00     0.000 HD 
HETATM   22  O   UNL     1      -7.950  11.545  69.998  1.00  0.00     0.311 OA 
HETATM   23  C   UNL     1      -6.987   8.883  72.497  1.00  0.00     0.146 C  
HETATM   24  H   UNL     1     -10.175   5.889  73.827  1.00  0.00     0.000 HD 
HETATM   25  N   UNL     1      -6.720   6.336  72.689  1.00  0.00    -0.068 NA 
HETATM   26  C   UNL     1      -7.955   8.706  73.658  1.00  0.00     0.061 C  
HETATM   27  H   UNL     1      -7.001  11.509  70.040  1.00  0.00     0.000 HD 
HETATM   28  C   UNL     1      -9.682   2.661  72.625  1.00  0.00    -0.190 C  
HETATM   29  C   UNL     1      -6.133   7.598  72.232  1.00  0.00    -0.040 C  
HETATM   30  O   UNL     1      -9.735   3.918  70.656  1.00  0.00    -0.178 OA 
HETATM   31  O   UNL     1      -9.433   6.170  73.304  1.00  0.00    -0.142 OA 
BRANCH   9  32
HETATM   32  O   UNL     1     -12.464   9.768  69.247  1.00  0.00     0.680 OA 
BRANCH  32  33
HETATM   33  C   UNL     1     -12.942   9.297  67.991  1.00  0.00    10.083 C  
HETATM   34  O   UNL     1      -9.697   6.998  66.511  1.00  0.00    -0.257 OA 
HETATM   35  C   UNL     1     -10.936   7.696  66.644  1.00  0.00     0.567 C  
HETATM   36  H   UNL     1      -9.809   6.055  66.482  1.00  0.00     0.000 HD 
HETATM   37  C   UNL     1     -10.753   9.236  66.692  1.00  0.00     0.004 C  
HETATM   38  O   UNL     1     -13.006   7.865  67.951  1.00  0.00     8.417 OA 
HETATM   39  C   UNL     1     -12.022   5.715  67.778  1.00  0.00     3.790 C  
HETATM   40  C   UNL     1     -11.742   7.215  67.870  1.00  0.00     1.244 C  
HETATM   41  C   UNL     1     -12.172   9.835  66.785  1.00  0.00     6.127 C  
HETATM   42  C   UNL     1     -10.095   9.797  65.425  1.00  0.00    -0.196 C  
BRANCH  37  43
HETATM   43  O   UNL     1     -10.051   9.684  67.866  1.00  0.00    -0.162 OA 
HETATM   44  C   UNL     1      -8.640   9.779  67.819  1.00  0.00    -0.125 C  
ENDBRANCH  37  43
ENDBRANCH  32  33
ENDBRANCH   9  32
BRANCH  13  45
HETATM   45  O   UNL     1     -10.474  12.278  71.547  1.00  0.00     6.360 OA 
BRANCH  45  46
HETATM   46  C   UNL     1      -9.787  13.459  71.104  1.00  0.00     7.769 C  
HETATM   47  C   UNL     1      -9.958  15.183  67.897  1.00  0.00    -0.221 C  
HETATM   48  C   UNL     1      -7.428  14.567  70.801  1.00  0.00     1.459 C  
HETATM   49  C   UNL     1      -8.303  13.484  71.467  1.00  0.00    10.061 C  
HETATM   50  C   UNL     1      -7.922  14.802  69.358  1.00  0.00    -0.065 C  
HETATM   51  H   UNL     1      -7.282  13.577  73.116  1.00  0.00     0.000 HD 
HETATM   52  O   UNL     1      -8.204  13.561  72.890  1.00  0.00     9.319 OA 
HETATM   53  O   UNL     1      -9.980  13.626  69.701  1.00  0.00     0.560 OA 
HETATM   54  C   UNL     1      -9.447  14.890  69.293  1.00  0.00    -0.114 C  
BRANCH  48  55
HETATM   55  N   UNL     1      -5.978  14.168  70.819  1.00  0.00    -0.203 NA 
HETATM   56  C   UNL     1      -5.593  13.444  72.029  1.00  0.00     0.098 C  
HETATM   57  C   UNL     1      -5.499  13.460  69.637  1.00  0.00    -0.093 C  
ENDBRANCH  48  55
ENDBRANCH  45  46
ENDBRANCH  13  45
ENDBRANCH   2   3
TORSDOF 7
ENDMDL
MODEL      138
REMARK 921   NORMALIZED FREE ENERGY PREDICTED BY IDOCK:   99.78 KCAL/MOL
REMARK 922        TOTAL FREE ENERGY PREDICTED BY IDOCK:  138.03 KCAL/MOL
REMARK 923 INTER-LIGAND FREE ENERGY PREDICTED BY IDOCK:   56.41 KCAL/MOL
REMARK 924 INTRA-LIGAND FREE ENERGY PREDICTED BY IDOCK:   81.62 KCAL/MOL
REMARK 927      BINDING AFFINITY PREDICTED BY RF-SCORE:    0.00 PKD
ROOT
HETATM    1  C   UNL     1     -10.259  14.244  70.977  1.00  0.00     2.533 C  
HETATM    2  C   UNL     1      -9.644  13.542  69.774  1.00  0.00     1.676 C  
ENDROOT
BRANCH   2   3
HETATM    3  C   UNL     1      -8.234  12.951  70.037  1.00  0.00     2.968 C  
HETATM    4  O   UNL     1      -8.074  11.485  70.005  1.00  0.00     1.023 OA 
HETATM    5  C   UNL     1      -8.789  10.670  69.199  1.00  0.00    -0.122 C  
HETATM    6  C   UNL     1      -8.385   9.188  69.329  1.00  0.00    -0.123 C  
HETATM    7  O   UNL     1      -9.698  11.057  68.488  1.00  0.00    -0.176 OA 
HETATM    8  C   UNL     1      -7.118   9.026  70.181  1.00  0.00    -0.052 C  
HETATM    9  C   UNL     1      -8.314   8.328  67.976  1.00  0.00    -0.129 C  
HETATM   10  C   UNL     1      -6.248  14.849  64.889  1.00  0.00    16.815 C  
HETATM   11  C   UNL     1      -9.289   8.844  66.823  1.00  0.00    -0.224 C  
HETATM   12  C   UNL     1      -5.636  11.745  66.957  1.00  0.00    -0.131 C  
HETATM   13  C   UNL     1      -9.074   8.239  65.333  1.00  0.00     0.064 C  
HETATM   14  C   UNL     1     -10.694   8.650  67.440  1.00  0.00    -0.212 C  
HETATM   15  C   UNL     1      -6.040  13.205  66.718  1.00  0.00     1.417 C  
HETATM   16  C   UNL     1      -7.206  13.678  67.676  1.00  0.00    -0.170 C  
HETATM   17  C   UNL     1      -8.141   8.874  64.127  1.00  0.00    -0.160 C  
HETATM   18  C   UNL     1      -7.138  10.023  64.443  1.00  0.00    -0.135 C  
HETATM   19  C   UNL     1      -7.034  13.587  69.237  1.00  0.00    -0.008 C  
HETATM   20  C   UNL     1      -8.755   9.103  62.740  1.00  0.00    -0.190 C  
HETATM   21  H   UNL     1      -5.125  13.236  69.114  1.00  0.00     0.000 HD 
HETATM   22  O   UNL     1      -7.254   7.730  63.803  1.00  0.00    -0.079 OA 
HETATM   23  C   UNL     1      -7.465  11.493  64.017  1.00  0.00     2.034 C  
HETATM   24  H   UNL     1      -9.131  13.368  67.839  1.00  0.00     0.000 HD 
HETATM   25  N   UNL     1      -6.471  13.471  65.319  1.00  0.00     9.714 NA 
HETATM   26  C   UNL     1      -8.794  12.039  64.520  1.00  0.00     0.929 C  
HETATM   27  H   UNL     1      -6.718   8.095  63.110  1.00  0.00     0.000 HD 
HETATM   28  C   UNL     1      -6.747  15.002  69.776  1.00  0.00    -0.180 C  
HETATM   29  C   UNL     1      -6.285  12.498  64.241  1.00  0.00     9.035 C  
HETATM   30  O   UNL     1      -5.848  12.852  69.597  1.00  0.00    -0.095 OA 
HETATM   31  O   UNL     1      -8.431  13.084  67.263  1.00  0.00    -0.188 OA 
BRANCH   9  32
HETATM   32  O   UNL     1      -8.670   6.990  68.445  1.00  0.00    -0.125 OA 
BRANCH  32  33
HETATM   33  C   UNL     1      -8.738   6.729  69.843  1.00  0.00    -0.141 C  
HETATM   34  O   UNL     1     -10.058  10.421  71.463  1.00  0.00     0.966 OA 
HETATM   35  C   UNL     1      -9.577   9.086  71.307  1.00  0.00    -0.291 C  
HETATM   36  H   UNL     1     -10.943  10.454  71.809  1.00  0.00     0.000 HD 
HETATM   37  C   UNL     1      -8.132   9.034  70.742  1.00  0.00    -0.166 C  
HETATM   38  O   UNL     1     -10.070   6.882  70.348  1.00  0.00    -0.186 OA 
HETATM   39  C   UNL     1     -11.924   8.185  71.045  1.00  0.00    -0.257 C  
HETATM   40  C   UNL     1     -10.522   8.229  70.437  1.00  0.00    -0.215 C  
HETATM   41  C   UNL     1      -7.748   7.540  70.681  1.00  0.00    -0.090 C  
HETATM   42  C   UNL     1      -7.114   9.738  71.646  1.00  0.00     0.807 C  
BRANCH  37  43
HETATM   43  O   UNL     1      -8.036   9.527  69.393  1.00  0.00    -0.085 OA 
HETATM   44  C   UNL     1      -9.184   9.479  68.567  1.00  0.00    -0.131 C  
ENDBRANCH  37  43
ENDBRANCH  32  33
ENDBRANCH   9  32
BRANCH  13  45
HETATM   45  O   UNL     1     -10.117   7.378  64.797  1.00  0.00     3.091 OA 
BRANCH  45  46
HETATM   46  C   UNL     1     -10.163   5.983  65.134  1.00  0.00     1.751 C  
HETATM   47  C   UNL     1     -11.414   4.357  68.147  1.00  0.00     5.786 C  
HETATM   48  C   UNL     1      -8.730   3.799  65.373  1.00  0.00    -0.117 C  
HETATM   49  C   UNL     1      -8.879   5.223  64.801  1.00  0.00    -0.063 C  
HETATM   50  C   UNL     1      -9.373   3.743  66.774  1.00  0.00    -0.209 C  
HETATM   51  H   UNL     1      -7.937   4.742  63.173  1.00  0.00     0.000 HD 
HETATM   52  O   UNL     1      -8.735   5.214  63.380  1.00  0.00    -0.124 OA 
HETATM   53  O   UNL     1     -10.512   5.834  66.508  1.00  0.00    -0.232 OA 
HETATM   54  C   UNL     1     -10.729   4.449  66.798  1.00  0.00     0.753 C  
BRANCH  48  55
HETATM   55  N   UNL     1      -7.282   3.393  65.426  1.00  0.00    -0.065 NA 
HETATM   56  C   UNL     1      -6.408   4.267  64.647  1.00  0.00    -0.034 C  
HETATM   57  C   UNL     1      -6.728   3.190  66.760  1.00  0.00    -0.045 C  
ENDBRANCH  48  55
ENDBRANCH  45  46
ENDBRANCH  13  45
ENDBRANCH   2   3
TORSDOF 7
ENDMDL
MODEL      139
REMARK 921   NORMALIZED FREE ENERGY PREDICTED BY IDOCK:  100.56 KCAL/MOL
REMARK 922        TOTAL FREE ENERGY PREDICTED BY IDOCK:  139.14 KCAL/MOL
REMARK 923 INTER-LIGAND FREE ENERGY PREDICTED BY IDOCK:  103.85 KCAL/MOL
REMARK 924 INTRA-LIGAND FREE ENERGY PREDICTED BY IDOCK:   35.29 KCAL/MOL
REMARK 927      BINDING AFFINITY PREDICTED BY RF-SCORE:    0.00 PKD
ROOT
HETATM    1  C   UNL     1     -14.227   8.178  69.673  1.00  0.00     5.825 C  
HETATM    2  C   UNL     1     -13.861   7.427  68.401  1.00  0.00    16.541 C  
ENDROOT
BRANCH   2   3
HETATM    3  C   UNL     1     -12.465   6.751  68.444  1.00  0.00     4.674 C  
HETATM    4  O   UNL     1     -11.328   7.453  67.820  1.00  0.00     0.171 OA 
HETATM    5  C   UNL     1     -11.204   8.798  67.788  1.00  0.00     0.611 C  
HETATM    6  C   UNL     1      -9.896   9.267  67.122  1.00  0.00    -0.251 C  
HETATM    7  O   UNL     1     -12.063   9.562  68.191  1.00  0.00     1.415 OA 
HETATM    8  C   UNL     1      -8.950   8.088  66.854  1.00  0.00    -0.160 C  
HETATM    9  C   UNL     1      -9.134  10.507  67.798  1.00  0.00    -0.138 C  
HETATM   10  C   UNL     1     -11.940   7.715  74.175  1.00  0.00     5.314 C  
HETATM   11  C   UNL     1     -10.093  11.511  68.587  1.00  0.00    -0.214 C  
HETATM   12  C   UNL     1      -9.515   7.740  71.275  1.00  0.00    -0.173 C  
HETATM   13  C   UNL     1      -9.394  12.614  69.549  1.00  0.00     1.580 C  
HETATM   14  C   UNL     1     -11.011  12.063  67.472  1.00  0.00    -0.303 C  
HETATM   15  C   UNL     1     -10.799   7.350  72.016  1.00  0.00    -0.227 C  
HETATM   16  C   UNL     1     -12.040   7.200  71.047  1.00  0.00    -0.350 C  
HETATM   17  C   UNL     1      -9.069  12.465  71.161  1.00  0.00    12.565 C  
HETATM   18  C   UNL     1      -9.180  11.072  71.851  1.00  0.00    11.045 C  
HETATM   19  C   UNL     1     -11.985   6.195  69.838  1.00  0.00     0.570 C  
HETATM   20  C   UNL     1      -9.551  13.550  72.132  1.00  0.00    12.796 C  
HETATM   21  H   UNL     1     -10.368   5.333  70.491  1.00  0.00     0.000 HD 
HETATM   22  O   UNL     1      -7.614  12.747  71.199  1.00  0.00     4.127 OA 
HETATM   23  C   UNL     1     -10.400  10.744  72.774  1.00  0.00    11.258 C  
HETATM   24  H   UNL     1     -13.212   8.398  70.037  1.00  0.00     0.000 HD 
HETATM   25  N   UNL     1     -11.176   8.315  73.084  1.00  0.00    -0.024 NA 
HETATM   26  C   UNL     1     -11.770  10.929  72.136  1.00  0.00     2.330 C  
HETATM   27  H   UNL     1      -7.427  12.660  72.127  1.00  0.00     0.000 HD 
HETATM   28  C   UNL     1     -12.809   4.947  70.209  1.00  0.00    11.117 C  
HETATM   29  C   UNL     1     -10.276   9.380  73.533  1.00  0.00     5.442 C  
HETATM   30  O   UNL     1     -10.657   5.667  69.650  1.00  0.00    -0.282 OA 
HETATM   31  O   UNL     1     -12.466   8.488  70.620  1.00  0.00     0.021 OA 
BRANCH   9  32
HETATM   32  O   UNL     1      -8.496  11.140  66.646  1.00  0.00    -0.153 OA 
BRANCH  32  33
HETATM   33  C   UNL     1      -7.208  10.702  66.225  1.00  0.00    -0.137 C  
HETATM   34  O   UNL     1      -7.758   6.547  65.564  1.00  0.00    -0.086 OA 
HETATM   35  C   UNL     1      -7.190   7.848  65.717  1.00  0.00    -0.071 C  
HETATM   36  H   UNL     1      -7.740   6.243  64.664  1.00  0.00     0.000 HD 
HETATM   37  C   UNL     1      -7.220   8.344  67.188  1.00  0.00    -0.084 C  
HETATM   38  O   UNL     1      -7.239  10.161  64.898  1.00  0.00    -0.133 OA 
HETATM   39  C   UNL     1      -7.741   8.457  63.327  1.00  0.00    -0.140 C  
HETATM   40  C   UNL     1      -7.860   8.885  64.790  1.00  0.00    -0.121 C  
HETATM   41  C   UNL     1      -6.533   9.726  67.189  1.00  0.00    -0.069 C  
HETATM   42  C   UNL     1      -6.434   7.434  68.139  1.00  0.00    -0.046 C  
BRANCH  37  43
HETATM   43  O   UNL     1      -8.554   8.560  67.683  1.00  0.00    -0.131 OA 
HETATM   44  C   UNL     1      -8.719   9.205  68.932  1.00  0.00    -0.132 C  
ENDBRANCH  37  43
ENDBRANCH  32  33
ENDBRANCH   9  32
BRANCH  13  45
HETATM   45  O   UNL     1      -9.494  14.012  69.157  1.00  0.00     0.035 OA 
BRANCH  45  46
HETATM   46  C   UNL     1      -8.848  14.490  67.967  1.00  0.00    -0.175 C  
HETATM   47  C   UNL     1      -5.294  14.810  67.221  1.00  0.00     0.570 C  
HETATM   48  C   UNL     1      -8.684  16.500  66.290  1.00  0.00    -0.333 C  
HETATM   49  C   UNL     1      -9.469  15.762  67.393  1.00  0.00    -0.212 C  
HETATM   50  C   UNL     1      -7.173  16.387  66.580  1.00  0.00    -0.208 C  
HETATM   51  H   UNL     1     -11.174  16.229  66.587  1.00  0.00     0.000 HD 
HETATM   52  O   UNL     1     -10.787  15.438  66.944  1.00  0.00    -0.313 OA 
HETATM   53  O   UNL     1      -7.454  14.660  68.216  1.00  0.00    -0.104 OA 
HETATM   54  C   UNL     1      -6.784  14.966  66.989  1.00  0.00     0.587 C  
BRANCH  48  55
HETATM   55  N   UNL     1      -9.112  17.939  66.200  1.00  0.00    -0.496 NA 
HETATM   56  C   UNL     1     -10.186  18.164  65.235  1.00  0.00     0.794 C  
HETATM   57  C   UNL     1      -9.434  18.586  67.468  1.00  0.00    -0.277 C  
ENDBRANCH  48  55
ENDBRANCH  45  46
ENDBRANCH  13  45
ENDBRANCH   2   3
TORSDOF 7
ENDMDL
MODEL      140
REMARK 921   NORMALIZED FREE ENERGY PREDICTED BY IDOCK:  104.59 KCAL/MOL
REMARK 922        TOTAL FREE ENERGY PREDICTED BY IDOCK:  144.81 KCAL/MOL
REMARK 923 INTER-LIGAND FREE ENERGY PREDICTED BY IDOCK:   82.11 KCAL/MOL
REMARK 924 INTRA-LIGAND FREE ENERGY PREDICTED BY IDOCK:   62.71 KCAL/MOL
REMARK 927      BINDING AFFINITY PREDICTED BY RF-SCORE:    0.00 PKD
ROOT
HETATM    1  C   UNL     1     -10.529  18.328  69.258  1.00  0.00     0.284 C  
HETATM    2  C   UNL     1      -9.456  17.562  70.020  1.00  0.00     1.541 C  
ENDROOT
BRANCH   2   3
HETATM    3  C   UNL     1      -8.148  17.335  69.218  1.00  0.00     0.126 C  
HETATM    4  O   UNL     1      -7.412  16.074  69.425  1.00  0.00    -0.226 OA 
HETATM    5  C   UNL     1      -8.007  14.895  69.707  1.00  0.00     0.084 C  
HETATM    6  C   UNL     1      -7.007  13.728  69.824  1.00  0.00     0.183 C  
HETATM    7  O   UNL     1      -9.202  14.777  69.908  1.00  0.00     0.189 OA 
HETATM    8  C   UNL     1      -5.601  14.147  69.372  1.00  0.00    -0.084 C  
HETATM    9  C   UNL     1      -7.448  12.322  69.188  1.00  0.00     0.145 C  
HETATM   10  C   UNL     1     -11.086  16.620  64.226  1.00  0.00     0.540 C  
HETATM   11  C   UNL     1      -9.027  12.088  69.152  1.00  0.00     0.525 C  
HETATM   12  C   UNL     1      -7.981  15.042  65.694  1.00  0.00     3.539 C  
HETATM   13  C   UNL     1      -9.581  10.849  68.264  1.00  0.00    -0.167 C  
HETATM   14  C   UNL     1      -9.412  12.078  70.650  1.00  0.00     6.499 C  
HETATM   15  C   UNL     1      -9.041  16.136  65.521  1.00  0.00     0.334 C  
HETATM   16  C   UNL     1      -9.358  16.896  66.872  1.00  0.00    -0.241 C  
HETATM   17  C   UNL     1     -10.065  10.894  66.686  1.00  0.00    -0.219 C  
HETATM   18  C   UNL     1      -9.757  12.148  65.814  1.00  0.00    -0.245 C  
HETATM   19  C   UNL     1      -8.206  17.612  67.667  1.00  0.00    -0.224 C  
HETATM   20  C   UNL     1     -11.442  10.336  66.302  1.00  0.00     1.201 C  
HETATM   21  H   UNL     1      -6.945  17.453  66.195  1.00  0.00     0.000 HD 
HETATM   22  O   UNL     1      -9.211   9.843  66.081  1.00  0.00    -0.154 OA 
HETATM   23  C   UNL     1     -10.894  13.167  65.469  1.00  0.00    -0.299 C  
HETATM   24  H   UNL     1     -10.307  16.504  68.537  1.00  0.00     0.000 HD 
HETATM   25  N   UNL     1     -10.328  15.624  64.980  1.00  0.00    -0.460 NA 
HETATM   26  C   UNL     1     -11.638  13.745  66.664  1.00  0.00    -0.392 C  
HETATM   27  H   UNL     1      -9.489   9.870  65.173  1.00  0.00     0.000 HD 
HETATM   28  C   UNL     1      -8.317  19.129  67.418  1.00  0.00    -0.307 C  
HETATM   29  C   UNL     1     -10.470  14.269  64.441  1.00  0.00     0.078 C  
HETATM   30  O   UNL     1      -6.910  17.286  67.129  1.00  0.00    -0.154 OA 
HETATM   31  O   UNL     1     -10.116  16.048  67.726  1.00  0.00    -0.236 OA 
BRANCH   9  32
HETATM   32  O   UNL     1      -6.766  11.365  70.057  1.00  0.00    -0.109 OA 
BRANCH  32  33
HETATM   33  C   UNL     1      -6.140  11.821  71.252  1.00  0.00     1.022 C  
HETATM   34  O   UNL     1      -9.176  14.115  73.129  1.00  0.00     6.422 OA 
HETATM   35  C   UNL     1      -7.935  13.491  72.799  1.00  0.00    11.321 C  
HETATM   36  H   UNL     1      -9.567  13.757  73.918  1.00  0.00     0.000 HD 
HETATM   37  C   UNL     1      -7.297  14.075  71.510  1.00  0.00     3.748 C  
HETATM   38  O   UNL     1      -6.815  11.341  72.421  1.00  0.00     4.214 OA 
HETATM   39  C   UNL     1      -8.598  11.360  73.984  1.00  0.00    17.420 C  
HETATM   40  C   UNL     1      -8.071  11.958  72.680  1.00  0.00    19.338 C  
HETATM   41  C   UNL     1      -5.954  13.338  71.322  1.00  0.00     0.267 C  
HETATM   42  C   UNL     1      -6.991  15.574  71.624  1.00  0.00     2.803 C  
BRANCH  37  43
HETATM   43  O   UNL     1      -8.070  13.807  70.326  1.00  0.00     1.765 OA 
HETATM   44  C   UNL     1      -9.482  13.835  70.415  1.00  0.00     3.473 C  
ENDBRANCH  37  43
ENDBRANCH  32  33
ENDBRANCH   9  32
BRANCH  13  45
HETATM   45  O   UNL     1     -10.185   9.729  68.970  1.00  0.00    -0.185 OA 
BRANCH  45  46
HETATM   46  C   UNL     1      -9.410   8.926  69.874  1.00  0.00    -0.166 C  
HETATM   47  C   UNL     1      -5.873   9.142  70.728  1.00  0.00    -0.042 C  
HETATM   48  C   UNL     1      -8.705   6.472  70.477  1.00  0.00    -0.144 C  
HETATM   49  C   UNL     1      -9.678   7.426  69.754  1.00  0.00    -0.170 C  
HETATM   50  C   UNL     1      -7.279   7.056  70.413  1.00  0.00    -0.075 C  
HETATM   51  H   UNL     1     -11.189   6.257  70.100  1.00  0.00     0.000 HD 
HETATM   52  O   UNL     1     -11.023   7.190  70.174  1.00  0.00    -0.253 OA 
HETATM   53  O   UNL     1      -8.025   9.220  69.707  1.00  0.00    -0.083 OA 
HETATM   54  C   UNL     1      -7.270   8.553  70.723  1.00  0.00    -0.060 C  
BRANCH  48  55
HETATM   55  N   UNL     1      -8.755   5.097  69.871  1.00  0.00    -0.102 NA 
HETATM   56  C   UNL     1      -8.104   5.017  68.565  1.00  0.00    -0.085 C  
HETATM   57  C   UNL     1      -8.297   4.008  70.727  1.00  0.00    -0.070 C  
ENDBRANCH  48  55
ENDBRANCH  45  46
ENDBRANCH  13  45
ENDBRANCH   2   3
TORSDOF 7
ENDMDL
MODEL      141
REMARK 921   NORMALIZED FREE ENERGY PREDICTED BY IDOCK:  104.73 KCAL/MOL
REMARK 922        TOTAL FREE ENERGY PREDICTED BY IDOCK:  145.01 KCAL/MOL
REMARK 923 INTER-LIGAND FREE ENERGY PREDICTED BY IDOCK:  115.27 KCAL/MOL
REMARK 924 INTRA-LIGAND FREE ENERGY PREDICTED BY IDOCK:   29.74 KCAL/MOL
REMARK 927      BINDING AFFINITY PREDICTED BY RF-SCORE:    0.00 PKD
ROOT
HETATM    1  C   UNL     1      -5.865  17.643  64.070  1.00  0.00     2.991 C  
HETATM    2  C   UNL     1      -5.789  18.488  65.333  1.00  0.00    -0.267 C  
ENDROOT
BRANCH   2   3
HETATM    3  C   UNL     1      -7.158  19.043  65.808  1.00  0.00    -0.253 C  
HETATM    4  O   UNL     1      -8.368  18.245  65.539  1.00  0.00    -0.173 OA 
HETATM    5  C   UNL     1      -8.386  16.895  65.514  1.00  0.00     1.074 C  
HETATM    6  C   UNL     1      -9.791  16.315  65.260  1.00  0.00     0.178 C  
HETATM    7  O   UNL     1      -7.386  16.208  65.623  1.00  0.00     1.246 OA 
HETATM    8  C   UNL     1     -10.867  17.409  65.316  1.00  0.00     0.052 C  
HETATM    9  C   UNL     1     -10.210  15.017  66.105  1.00  0.00    -0.297 C  
HETATM   10  C   UNL     1      -5.852  18.051  71.409  1.00  0.00     0.816 C  
HETATM   11  C   UNL     1      -8.980  14.100  66.546  1.00  0.00    -0.140 C  
HETATM   12  C   UNL     1      -9.027  17.814  69.371  1.00  0.00     0.447 C  
HETATM   13  C   UNL     1      -9.264  12.943  67.647  1.00  0.00    -0.193 C  
HETATM   14  C   UNL     1      -8.398  13.624  65.194  1.00  0.00     4.372 C  
HETATM   15  C   UNL     1      -7.615  18.314  69.701  1.00  0.00     0.535 C  
HETATM   16  C   UNL     1      -6.740  18.566  68.408  1.00  0.00    -0.241 C  
HETATM   17  C   UNL     1      -9.099  13.068  69.286  1.00  0.00     0.956 C  
HETATM   18  C   UNL     1      -8.900  14.467  69.943  1.00  0.00     0.762 C  
HETATM   19  C   UNL     1      -7.239  19.559  67.295  1.00  0.00    -0.213 C  
HETATM   20  C   UNL     1      -8.261  12.030  70.042  1.00  0.00     2.670 C  
HETATM   21  H   UNL     1      -8.649  20.283  68.423  1.00  0.00     0.000 HD 
HETATM   22  O   UNL     1     -10.448  12.664  69.753  1.00  0.00    -0.019 OA 
HETATM   23  C   UNL     1      -7.490  14.900  70.464  1.00  0.00     0.777 C  
HETATM   24  H   UNL     1      -5.834  17.469  67.065  1.00  0.00     0.000 HD 
HETATM   25  N   UNL     1      -6.857  17.386  70.583  1.00  0.00     1.791 NA 
HETATM   26  C   UNL     1      -6.365  14.830  69.441  1.00  0.00    -0.124 C  
HETATM   27  H   UNL     1     -10.353  12.736  70.695  1.00  0.00     0.000 HD 
HETATM   28  C   UNL     1      -6.446  20.874  67.430  1.00  0.00    -0.396 C  
HETATM   29  C   UNL     1      -7.491  16.250  71.257  1.00  0.00     4.786 C  
HETATM   30  O   UNL     1      -8.600  19.972  67.527  1.00  0.00    -0.322 OA 
HETATM   31  O   UNL     1      -6.359  17.317  67.842  1.00  0.00    -0.143 OA 
BRANCH   9  32
HETATM   32  O   UNL     1     -11.111  14.329  65.183  1.00  0.00    -0.318 OA 
BRANCH  32  33
HETATM   33  C   UNL     1     -12.397  14.879  64.914  1.00  0.00    -0.172 C  
HETATM   34  O   UNL     1     -12.245  18.680  66.793  1.00  0.00     3.044 OA 
HETATM   35  C   UNL     1     -12.680  17.505  66.107  1.00  0.00     7.911 C  
HETATM   36  H   UNL     1     -12.216  19.444  66.228  1.00  0.00     0.000 HD 
HETATM   37  C   UNL     1     -12.727  16.258  67.029  1.00  0.00     3.522 C  
HETATM   38  O   UNL     1     -12.308  16.083  64.142  1.00  0.00    -0.632 OA 
HETATM   39  C   UNL     1     -11.857  18.398  63.890  1.00  0.00     9.130 C  
HETATM   40  C   UNL     1     -11.821  17.214  64.857  1.00  0.00     2.042 C  
HETATM   41  C   UNL     1     -13.257  15.100  66.159  1.00  0.00     2.119 C  
HETATM   42  C   UNL     1     -13.688  16.428  68.212  1.00  0.00     6.573 C  
BRANCH  37  43
HETATM   43  O   UNL     1     -11.426  15.849  67.491  1.00  0.00    -0.173 OA 
HETATM   44  C   UNL     1     -11.172  15.837  68.883  1.00  0.00    -0.332 C  
ENDBRANCH  37  43
ENDBRANCH  32  33
ENDBRANCH   9  32
BRANCH  13  45
HETATM   45  O   UNL     1      -9.173  11.558  67.211  1.00  0.00    -0.164 OA 
BRANCH  45  46
HETATM   46  C   UNL     1     -10.039  11.053  66.183  1.00  0.00    -0.237 C  
HETATM   47  C   UNL     1     -11.756  12.834  63.506  1.00  0.00    -0.597 C  
HETATM   48  C   UNL     1     -12.210   9.656  65.720  1.00  0.00     8.667 C  
HETATM   49  C   UNL     1     -11.068  10.041  66.683  1.00  0.00     0.261 C  
HETATM   50  C   UNL     1     -12.614  10.892  64.891  1.00  0.00     3.833 C  
HETATM   51  H   UNL     1     -11.000   8.249  67.429  1.00  0.00     0.000 HD 
HETATM   52  O   UNL     1     -10.360   8.878  67.118  1.00  0.00    -0.249 OA 
HETATM   53  O   UNL     1     -10.666  12.141  65.509  1.00  0.00    -0.265 OA 
HETATM   54  C   UNL     1     -11.389  11.649  64.377  1.00  0.00    -0.260 C  
BRANCH  48  55
HETATM   55  N   UNL     1     -13.386   9.104  66.478  1.00  0.00    17.320 NA 
HETATM   56  C   UNL     1     -13.219   7.705  66.865  1.00  0.00    16.493 C  
HETATM   57  C   UNL     1     -13.828   9.891  67.624  1.00  0.00    17.078 C  
ENDBRANCH  48  55
ENDBRANCH  45  46
ENDBRANCH  13  45
ENDBRANCH   2   3
TORSDOF 7
ENDMDL
MODEL      142
REMARK 921   NORMALIZED FREE ENERGY PREDICTED BY IDOCK:  106.37 KCAL/MOL
REMARK 922        TOTAL FREE ENERGY PREDICTED BY IDOCK:  147.32 KCAL/MOL
REMARK 923 INTER-LIGAND FREE ENERGY PREDICTED BY IDOCK:  103.60 KCAL/MOL
REMARK 924 INTRA-LIGAND FREE ENERGY PREDICTED BY IDOCK:   43.72 KCAL/MOL
REMARK 927      BINDING AFFINITY PREDICTED BY RF-SCORE:    0.00 PKD
ROOT
HETATM    1  C   UNL     1      -6.796   9.007  64.564  1.00  0.00    -0.081 C  
HETATM    2  C   UNL     1      -6.547   7.665  65.237  1.00  0.00    -0.044 C  
ENDROOT
BRANCH   2   3
HETATM    3  C   UNL     1      -7.724   7.169  66.118  1.00  0.00    -0.098 C  
HETATM    4  O   UNL     1      -7.888   7.756  67.461  1.00  0.00    -0.117 OA 
HETATM    5  C   UNL     1      -7.574   9.035  67.764  1.00  0.00    -0.093 C  
HETATM    6  C   UNL     1      -7.893   9.403  69.226  1.00  0.00    -0.085 C  
HETATM    7  O   UNL     1      -7.039   9.798  66.981  1.00  0.00    -0.084 OA 
HETATM    8  C   UNL     1      -8.694   8.294  69.921  1.00  0.00    -0.134 C  
HETATM    9  C   UNL     1      -8.520  10.856  69.493  1.00  0.00     0.211 C  
HETATM   10  C   UNL     1     -11.655   9.858  62.748  1.00  0.00     6.290 C  
HETATM   11  C   UNL     1      -8.108  11.954  68.411  1.00  0.00    -0.155 C  
HETATM   12  C   UNL     1     -11.369   9.240  66.465  1.00  0.00     1.726 C  
HETATM   13  C   UNL     1      -8.923  13.357  68.419  1.00  0.00    -0.136 C  
HETATM   14  C   UNL     1      -6.575  12.056  68.583  1.00  0.00    -0.075 C  
HETATM   15  C   UNL     1     -11.094   8.971  64.981  1.00  0.00     5.999 C  
HETATM   16  C   UNL     1      -9.634   8.419  64.723  1.00  0.00     1.382 C  
HETATM   17  C   UNL     1     -10.269  13.732  67.538  1.00  0.00    -0.241 C  
HETATM   18  C   UNL     1     -11.047  12.607  66.792  1.00  0.00    -0.318 C  
HETATM   19  C   UNL     1      -9.145   7.107  65.439  1.00  0.00     0.325 C  
HETATM   20  C   UNL     1     -10.283  15.008  66.688  1.00  0.00    -0.271 C  
HETATM   21  H   UNL     1     -10.935   6.639  66.039  1.00  0.00     0.000 HD 
HETATM   22  O   UNL     1     -11.214  14.149  68.602  1.00  0.00    -0.241 OA 
HETATM   23  C   UNL     1     -10.921  12.457  65.240  1.00  0.00    -0.335 C  
HETATM   24  H   UNL     1      -7.816   9.141  64.734  1.00  0.00     0.000 HD 
HETATM   25  N   UNL     1     -11.279  10.172  64.124  1.00  0.00     2.529 NA 
HETATM   26  C   UNL     1      -9.501  12.311  64.711  1.00  0.00     0.196 C  
HETATM   27  H   UNL     1     -11.988  14.364  68.095  1.00  0.00     0.000 HD 
HETATM   28  C   UNL     1      -9.179   5.955  64.416  1.00  0.00     0.749 C  
HETATM   29  C   UNL     1     -11.899  11.403  64.620  1.00  0.00     0.240 C  
HETATM   30  O   UNL     1     -10.079   6.676  66.448  1.00  0.00    -0.109 OA 
HETATM   31  O   UNL     1      -8.693   9.472  64.889  1.00  0.00    -0.165 OA 
BRANCH   9  32
HETATM   32  O   UNL     1      -8.007  11.171  70.825  1.00  0.00     2.110 OA 
BRANCH  32  33
HETATM   33  C   UNL     1      -8.919  11.454  71.882  1.00  0.00    14.320 C  
HETATM   34  O   UNL     1     -12.481  12.520  69.838  1.00  0.00    -0.083 OA 
HETATM   35  C   UNL     1     -11.497  12.278  70.844  1.00  0.00     1.344 C  
HETATM   36  H   UNL     1     -13.208  11.909  69.881  1.00  0.00     0.000 HD 
HETATM   37  C   UNL     1     -10.311  13.275  70.772  1.00  0.00     4.315 C  
HETATM   38  O   UNL     1     -10.050  10.574  71.857  1.00  0.00     3.160 OA 
HETATM   39  C   UNL     1     -12.127   9.834  70.984  1.00  0.00    -0.434 C  
HETATM   40  C   UNL     1     -10.976  10.825  70.805  1.00  0.00     0.511 C  
HETATM   41  C   UNL     1      -9.373  12.913  71.943  1.00  0.00    18.137 C  
HETATM   42  C   UNL     1     -10.747  14.733  70.962  1.00  0.00     0.370 C  
BRANCH  37  43
HETATM   43  O   UNL     1      -9.527  13.136  69.573  1.00  0.00     0.905 OA 
HETATM   44  C   UNL     1      -9.831  12.080  68.682  1.00  0.00    -0.117 C  
ENDBRANCH  37  43
ENDBRANCH  32  33
ENDBRANCH   9  32
BRANCH  13  45
HETATM   45  O   UNL     1      -8.198  14.556  68.812  1.00  0.00    -0.151 OA 
BRANCH  45  46
HETATM   46  C   UNL     1      -8.694  15.405  69.858  1.00  0.00     0.158 C  
HETATM   47  C   UNL     1     -10.323  18.659  69.635  1.00  0.00     0.660 C  
HETATM   48  C   UNL     1      -8.062  16.637  72.086  1.00  0.00    12.755 C  
HETATM   49  C   UNL     1      -7.746  15.540  71.049  1.00  0.00     2.637 C  
HETATM   50  C   UNL     1      -8.644  17.868  71.362  1.00  0.00     9.731 C  
HETATM   51  H   UNL     1      -7.067  14.344  72.420  1.00  0.00     0.000 HD 
HETATM   52  O   UNL     1      -7.656  14.260  71.679  1.00  0.00     2.564 OA 
HETATM   53  O   UNL     1      -9.032  16.681  69.318  1.00  0.00    -0.192 OA 
HETATM   54  C   UNL     1      -9.687  17.466  70.319  1.00  0.00     1.879 C  
BRANCH  48  55
HETATM   55  N   UNL     1      -6.830  17.002  72.869  1.00  0.00     7.314 NA 
HETATM   56  C   UNL     1      -5.926  15.874  73.084  1.00  0.00     2.348 C  
HETATM   57  C   UNL     1      -6.084  18.155  72.379  1.00  0.00     2.499 C  
ENDBRANCH  48  55
ENDBRANCH  45  46
ENDBRANCH  13  45
ENDBRANCH   2   3
TORSDOF 7
ENDMDL
MODEL      143
REMARK 921   NORMALIZED FREE ENERGY PREDICTED BY IDOCK:  110.49 KCAL/MOL
REMARK 922        TOTAL FREE ENERGY PREDICTED BY IDOCK:  153.13 KCAL/MOL
REMARK 923 INTER-LIGAND FREE ENERGY PREDICTED BY IDOCK:   12.55 KCAL/MOL
REMARK 924 INTRA-LIGAND FREE ENERGY PREDICTED BY IDOCK:  140.58 KCAL/MOL
REMARK 927      BINDING AFFINITY PREDICTED BY RF-SCORE:    0.00 PKD
ROOT
HETATM    1  C   UNL     1     -12.192  11.591  62.478  1.00  0.00     1.465 C  
HETATM    2  C   UNL     1     -11.820  10.876  63.769  1.00  0.00     1.395 C  
ENDROOT
BRANCH   2   3
HETATM    3  C   UNL     1     -12.449  11.499  65.044  1.00  0.00     1.250 C  
HETATM    4  O   UNL     1     -12.446  10.704  66.285  1.00  0.00     3.075 OA 
HETATM    5  C   UNL     1     -11.469   9.831  66.616  1.00  0.00     1.590 C  
HETATM    6  C   UNL     1     -11.689   9.172  67.991  1.00  0.00     1.823 C  
HETATM    7  O   UNL     1     -10.542   9.551  65.878  1.00  0.00     0.007 OA 
HETATM    8  C   UNL     1     -12.850   9.831  68.749  1.00  0.00     3.932 C  
HETATM    9  C   UNL     1     -10.397   8.977  68.923  1.00  0.00    -0.215 C  
HETATM   10  C   UNL     1      -8.050  15.291  65.615  1.00  0.00     2.735 C  
HETATM   11  C   UNL     1      -9.028   8.824  68.117  1.00  0.00    -0.141 C  
HETATM   12  C   UNL     1     -10.175  13.347  68.062  1.00  0.00    -0.243 C  
HETATM   13  C   UNL     1      -7.646   8.926  68.961  1.00  0.00    -0.085 C  
HETATM   14  C   UNL     1      -9.240   7.520  67.314  1.00  0.00    -0.152 C  
HETATM   15  C   UNL     1      -9.850  14.016  66.721  1.00  0.00    -0.273 C  
HETATM   16  C   UNL     1     -10.462  13.236  65.488  1.00  0.00    -0.288 C  
HETATM   17  C   UNL     1      -6.744  10.283  69.232  1.00  0.00    -0.063 C  
HETATM   18  C   UNL     1      -7.331  11.687  68.897  1.00  0.00    -0.107 C  
HETATM   19  C   UNL     1     -12.010  12.968  65.409  1.00  0.00    -0.414 C  
HETATM   20  C   UNL     1      -5.245  10.270  68.907  1.00  0.00    -0.035 C  
HETATM   21  H   UNL     1     -12.405  14.199  66.863  1.00  0.00     0.000 HD 
HETATM   22  O   UNL     1      -6.661  10.295  70.713  1.00  0.00    -0.322 OA 
HETATM   23  C   UNL     1      -6.848  12.460  67.625  1.00  0.00    -0.132 C  
HETATM   24  H   UNL     1     -10.094  11.569  64.532  1.00  0.00     0.000 HD 
HETATM   25  N   UNL     1      -8.390  14.164  66.480  1.00  0.00     0.248 NA 
HETATM   26  C   UNL     1      -6.978  11.703  66.311  1.00  0.00     0.243 C  
HETATM   27  H   UNL     1      -6.143  11.076  70.868  1.00  0.00     0.000 HD 
HETATM   28  C   UNL     1     -12.620  13.957  64.396  1.00  0.00    -0.213 C  
HETATM   29  C   UNL     1      -7.393  13.925  67.525  1.00  0.00    -0.166 C  
HETATM   30  O   UNL     1     -12.670  13.314  66.643  1.00  0.00    -0.163 OA 
HETATM   31  O   UNL     1      -9.726  12.037  65.273  1.00  0.00    -0.235 OA 
BRANCH   9  32
HETATM   32  O   UNL     1     -10.739   7.768  69.670  1.00  0.00    -0.243 OA 
BRANCH  32  33
HETATM   33  C   UNL     1     -11.432   6.709  69.017  1.00  0.00    -0.073 C  
HETATM   34  O   UNL     1      -8.352   3.927  68.133  1.00  0.00    -0.090 OA 
HETATM   35  C   UNL     1      -9.606   4.607  68.211  1.00  0.00    -0.149 C  
HETATM   36  H   UNL     1      -8.345   3.114  68.625  1.00  0.00     0.000 HD 
HETATM   37  C   UNL     1      -9.617   5.935  67.408  1.00  0.00    -0.113 C  
HETATM   38  O   UNL     1     -11.318   5.476  69.739  1.00  0.00     0.018 OA 
HETATM   39  C   UNL     1     -10.132   3.548  70.445  1.00  0.00     0.340 C  
HETATM   40  C   UNL     1     -10.035   4.863  69.672  1.00  0.00    -0.231 C  
HETATM   41  C   UNL     1     -11.040   6.513  67.552  1.00  0.00    -0.396 C  
HETATM   42  C   UNL     1      -9.350   5.727  65.912  1.00  0.00    -0.096 C  
BRANCH  37  43
HETATM   43  O   UNL     1      -8.724   6.928  67.946  1.00  0.00    -0.122 OA 
HETATM   44  C   UNL     1      -7.373   6.925  67.528  1.00  0.00    -0.096 C  
ENDBRANCH  37  43
ENDBRANCH  32  33
ENDBRANCH   9  32
BRANCH  13  45
HETATM   45  O   UNL     1      -6.839   7.721  69.084  1.00  0.00    -0.047 OA 
BRANCH  45  46
HETATM   46  C   UNL     1      -7.430   6.422  68.926  1.00  0.00    -0.088 C  
HETATM   47  C   UNL     1     -10.944   5.471  68.746  1.00  0.00     0.028 C  
HETATM   48  C   UNL     1      -7.527   3.990  69.904  1.00  0.00    -0.049 C  
HETATM   49  C   UNL     1      -6.791   5.342  69.797  1.00  0.00    -0.056 C  
HETATM   50  C   UNL     1      -9.050   4.239  69.894  1.00  0.00    -0.173 C  
HETATM   51  H   UNL     1      -5.053   4.480  69.883  1.00  0.00     0.000 HD 
HETATM   52  O   UNL     1      -5.450   5.152  69.341  1.00  0.00    -0.007 OA 
HETATM   53  O   UNL     1      -8.835   6.506  69.150  1.00  0.00    -0.128 OA 
HETATM   54  C   UNL     1      -9.447   5.254  68.821  1.00  0.00    -0.128 C  
BRANCH  48  55
HETATM   55  N   UNL     1      -7.108   3.250  71.145  1.00  0.00    -0.032 NA 
HETATM   56  C   UNL     1      -6.225   2.118  70.872  1.00  0.00    -0.019 C  
HETATM   57  C   UNL     1      -6.554   4.070  72.217  1.00  0.00    -0.022 C  
ENDBRANCH  48  55
ENDBRANCH  45  46
ENDBRANCH  13  45
ENDBRANCH   2   3
TORSDOF 7
ENDMDL
