MODEL        1
REMARK 921   NORMALIZED FREE ENERGY PREDICTED BY IDOCK:   -7.37 KCAL/MOL
REMARK 922        TOTAL FREE ENERGY PREDICTED BY IDOCK:  -12.05 KCAL/MOL
REMARK 923 INTER-LIGAND FREE ENERGY PREDICTED BY IDOCK:   -9.96 KCAL/MOL
REMARK 924 INTRA-LIGAND FREE ENERGY PREDICTED BY IDOCK:   -2.09 KCAL/MOL
REMARK 927      BINDING AFFINITY PREDICTED BY RF-SCORE:    0.00 PKD
ROOT
HETATM    1  CA  UNL     1     -11.269  13.861  67.955  1.00  0.00    -0.278 C  
ENDROOT
BRANCH   1   2
HETATM    2  C   UNL     1     -11.869  14.035  69.353  1.00  0.00    -0.381 A  
HETATM    3  C   UNL     1     -13.012  15.479  70.942  1.00  0.00    -0.526 A  
HETATM    4  C   UNL     1     -13.325  14.377  71.734  1.00  0.00    -0.446 A  
HETATM    5  C   UNL     1     -12.855  13.116  71.381  1.00  0.00    -0.401 A  
HETATM    6  C   UNL     1     -12.285  15.312  69.763  1.00  0.00    -0.326 A  
HETATM    7  C   UNL     1     -12.121  12.947  70.206  1.00  0.00    -0.377 A  
ENDBRANCH   1   2
BRANCH   1   8
HETATM    8  C   UNL     1      -9.712  14.130  67.999  1.00  0.00    -0.226 C  
HETATM    9  N   UNL     1      -9.281  15.300  67.402  1.00  0.00    -0.192 N  
HETATM   10  H   UNL     1      -9.994  15.901  66.987  1.00  0.00     0.000 HD 
HETATM   11  O   UNL     1      -8.919  13.351  68.527  1.00  0.00    -0.161 OA 
BRANCH   9  12
HETATM   12  CA  UNL     1      -7.847  15.767  67.310  1.00  0.00    -0.195 C  
HETATM   13  N   UNL     1      -7.094  17.727  67.764  1.00  0.00    -0.192 N  
HETATM   14  CA  UNL     1      -7.712  19.019  68.183  1.00  0.00    -0.293 C  
HETATM   15  C   UNL     1      -6.976  20.192  67.499  1.00  0.00    -0.266 C  
HETATM   16  O   UNL     1      -7.146  16.453  69.716  1.00  0.00    -0.108 OA 
HETATM   17  C   UNL     1      -9.213  18.922  67.832  1.00  0.00    -0.303 C  
HETATM   18  OXT UNL     1      -7.389  21.341  67.436  1.00  0.00    -0.484 OA 
HETATM   19  O   UNL     1      -5.735  19.872  67.054  1.00  0.00    -0.173 OA 
HETATM   20  C   UNL     1      -7.268  16.588  68.522  1.00  0.00    -0.175 C  
HETATM   21  C   UNL     1     -10.002  20.224  67.670  1.00  0.00    -0.551 C  
HETATM   22  S   UNL     1      -9.232  18.019  66.214  1.00  0.00    -0.123 SA 
HETATM   23  C   UNL     1      -9.991  18.117  68.889  1.00  0.00    -0.352 C  
HETATM   24  C   UNL     1      -7.662  17.112  66.543  1.00  0.00    -0.286 C  
ENDBRANCH   9  12
ENDBRANCH   1   8
BRANCH   1  25
HETATM   25  N   UNL     1     -11.993  14.652  66.955  1.00  0.00    -0.426 N  
HETATM   26  H   UNL     1     -12.079  15.662  67.073  1.00  0.00     0.000 HD 
BRANCH  25  27
HETATM   27  C   UNL     1     -12.556  14.042  65.856  1.00  0.00    -0.449 C  
HETATM   28  O   UNL     1     -13.735  14.200  65.542  1.00  0.00    -0.396 OA 
BRANCH  27  29
HETATM   29  N   UNL     1     -11.696  13.271  65.087  1.00  0.00    -0.318 N  
HETATM   30  C   UNL     1     -12.111  11.977  64.576  1.00  0.00    -0.255 C  
HETATM   31  C   UNL     1     -10.969  11.519  63.679  1.00  0.00    -0.404 C  
HETATM   32  C   UNL     1     -10.515  13.673  64.456  1.00  0.00    -0.390 C  
HETATM   33  O   UNL     1      -9.931  14.733  64.603  1.00  0.00    -0.150 OA 
HETATM   34  N   UNL     1     -10.090  12.652  63.623  1.00  0.00    -0.357 NA 
ENDBRANCH  27  29
ENDBRANCH  25  27
ENDBRANCH   1  25
TORSDOF 6
ENDMDL
MODEL        2
REMARK 921   NORMALIZED FREE ENERGY PREDICTED BY IDOCK:   -7.33 KCAL/MOL
REMARK 922        TOTAL FREE ENERGY PREDICTED BY IDOCK:  -11.99 KCAL/MOL
REMARK 923 INTER-LIGAND FREE ENERGY PREDICTED BY IDOCK:  -10.44 KCAL/MOL
REMARK 924 INTRA-LIGAND FREE ENERGY PREDICTED BY IDOCK:   -1.55 KCAL/MOL
REMARK 927      BINDING AFFINITY PREDICTED BY RF-SCORE:    0.00 PKD
ROOT
HETATM    1  CA  UNL     1     -10.917  15.003  69.818  1.00  0.00    -0.273 C  
ENDROOT
BRANCH   1   2
HETATM    2  C   UNL     1     -11.931  15.181  70.952  1.00  0.00    -0.378 A  
HETATM    3  C   UNL     1     -12.479  16.211  73.086  1.00  0.00    -0.622 A  
HETATM    4  C   UNL     1     -13.822  15.887  72.909  1.00  0.00    -0.530 A  
HETATM    5  C   UNL     1     -14.215  15.151  71.796  1.00  0.00    -0.674 A  
HETATM    6  C   UNL     1     -11.539  15.857  72.118  1.00  0.00    -0.515 A  
HETATM    7  C   UNL     1     -13.275  14.788  70.829  1.00  0.00    -0.355 A  
ENDBRANCH   1   2
BRANCH   1   8
HETATM    8  C   UNL     1     -11.126  16.128  68.727  1.00  0.00    -0.354 C  
HETATM    9  N   UNL     1     -10.245  17.192  68.777  1.00  0.00    -0.314 N  
HETATM   10  H   UNL     1      -9.528  17.170  69.502  1.00  0.00     0.000 HD 
HETATM   11  O   UNL     1     -12.017  16.072  67.879  1.00  0.00     0.058 OA 
BRANCH   9  12
HETATM   12  CA  UNL     1     -10.251  18.386  67.849  1.00  0.00    -0.381 C  
HETATM   13  N   UNL     1      -8.779  18.874  66.362  1.00  0.00    -0.315 N  
HETATM   14  CA  UNL     1      -7.481  18.277  65.932  1.00  0.00    -0.167 C  
HETATM   15  C   UNL     1      -6.485  19.402  65.578  1.00  0.00    -0.259 C  
HETATM   16  O   UNL     1     -10.361  17.433  65.434  1.00  0.00    -0.631 OA 
HETATM   17  C   UNL     1      -7.017  17.360  67.085  1.00  0.00    -0.174 C  
HETATM   18  OXT UNL     1      -5.280  19.257  65.437  1.00  0.00    -0.147 OA 
HETATM   19  O   UNL     1      -7.079  20.593  65.311  1.00  0.00    -0.164 OA 
HETATM   20  C   UNL     1      -9.939  18.128  66.328  1.00  0.00    -0.342 C  
HETATM   21  C   UNL     1      -5.529  17.011  67.175  1.00  0.00    -0.189 C  
HETATM   22  S   UNL     1      -7.494  18.293  68.613  1.00  0.00    -0.285 SA 
HETATM   23  C   UNL     1      -7.741  16.001  67.055  1.00  0.00    -0.264 C  
HETATM   24  C   UNL     1      -8.903  19.167  67.808  1.00  0.00    -0.301 C  
ENDBRANCH   9  12
ENDBRANCH   1   8
BRANCH   1  25
HETATM   25  N   UNL     1     -10.931  13.636  69.290  1.00  0.00    -0.408 N  
HETATM   26  H   UNL     1     -11.601  12.958  69.655  1.00  0.00     0.000 HD 
BRANCH  25  27
HETATM   27  C   UNL     1     -10.046  13.258  68.304  1.00  0.00    -0.250 C  
HETATM   28  O   UNL     1      -8.840  13.134  68.508  1.00  0.00    -0.145 OA 
BRANCH  27  29
HETATM   29  N   UNL     1     -10.607  12.976  67.066  1.00  0.00    -0.256 N  
HETATM   30  C   UNL     1     -10.209  13.714  65.881  1.00  0.00    -0.311 C  
HETATM   31  C   UNL     1     -10.923  13.027  64.726  1.00  0.00    -0.327 C  
HETATM   32  C   UNL     1     -11.343  11.846  66.695  1.00  0.00    -0.337 C  
HETATM   33  O   UNL     1     -11.775  10.978  67.435  1.00  0.00    -0.539 OA 
HETATM   34  N   UNL     1     -11.523  11.868  65.323  1.00  0.00    -0.294 NA 
ENDBRANCH  27  29
ENDBRANCH  25  27
ENDBRANCH   1  25
TORSDOF 6
ENDMDL
MODEL        3
REMARK 921   NORMALIZED FREE ENERGY PREDICTED BY IDOCK:   -7.11 KCAL/MOL
REMARK 922        TOTAL FREE ENERGY PREDICTED BY IDOCK:  -11.70 KCAL/MOL
REMARK 923 INTER-LIGAND FREE ENERGY PREDICTED BY IDOCK:  -10.00 KCAL/MOL
REMARK 924 INTRA-LIGAND FREE ENERGY PREDICTED BY IDOCK:   -1.70 KCAL/MOL
REMARK 927      BINDING AFFINITY PREDICTED BY RF-SCORE:    0.00 PKD
ROOT
HETATM    1  CA  UNL     1     -11.901  12.669  68.279  1.00  0.00    -0.306 C  
ENDROOT
BRANCH   1   2
HETATM    2  C   UNL     1     -11.101  11.583  67.552  1.00  0.00    -0.329 A  
HETATM    3  C   UNL     1     -10.448   9.244  67.419  1.00  0.00    -0.340 A  
HETATM    4  C   UNL     1      -9.990   9.436  66.117  1.00  0.00    -0.351 A  
HETATM    5  C   UNL     1     -10.018  10.708  65.555  1.00  0.00    -0.333 A  
HETATM    6  C   UNL     1     -10.995  10.310  68.134  1.00  0.00    -0.328 A  
HETATM    7  C   UNL     1     -10.558  11.778  66.271  1.00  0.00    -0.292 A  
ENDBRANCH   1   2
BRANCH   1   8
HETATM    8  C   UNL     1     -11.935  13.988  67.408  1.00  0.00    -0.404 C  
HETATM    9  N   UNL     1     -11.212  15.058  67.901  1.00  0.00    -0.311 N  
HETATM   10  H   UNL     1     -10.709  14.917  68.777  1.00  0.00     0.000 HD 
HETATM   11  O   UNL     1     -12.567  14.071  66.355  1.00  0.00    -0.428 OA 
BRANCH   9  12
HETATM   12  CA  UNL     1     -11.102  16.420  67.253  1.00  0.00    -0.019 C  
HETATM   13  N   UNL     1      -9.347  17.293  66.372  1.00  0.00    -0.265 N  
HETATM   14  CA  UNL     1      -7.923  16.873  66.230  1.00  0.00    -0.315 C  
HETATM   15  C   UNL     1      -7.001  18.100  66.396  1.00  0.00    -0.235 C  
HETATM   16  O   UNL     1     -10.447  15.999  64.774  1.00  0.00    -0.564 OA 
HETATM   17  C   UNL     1      -7.687  15.758  67.273  1.00  0.00    -0.199 C  
HETATM   18  OXT UNL     1      -5.794  18.054  66.583  1.00  0.00    -0.139 OA 
HETATM   19  O   UNL     1      -7.631  19.286  66.199  1.00  0.00    -0.268 OA 
HETATM   20  C   UNL     1     -10.363  16.509  65.866  1.00  0.00    -0.350 C  
HETATM   21  C   UNL     1      -6.250  15.479  67.719  1.00  0.00    -0.178 C  
HETATM   22  S   UNL     1      -8.662  16.317  68.746  1.00  0.00    -0.253 SA 
HETATM   23  C   UNL     1      -8.219  14.399  66.780  1.00  0.00     0.080 C  
HETATM   24  C   UNL     1      -9.889  17.265  67.750  1.00  0.00    -0.281 C  
ENDBRANCH   9  12
ENDBRANCH   1   8
BRANCH   1  25
HETATM   25  N   UNL     1     -11.426  12.861  69.652  1.00  0.00    -0.462 N  
HETATM   26  H   UNL     1     -10.442  13.070  69.824  1.00  0.00     0.000 HD 
BRANCH  25  27
HETATM   27  C   UNL     1     -12.298  12.761  70.714  1.00  0.00    -0.287 C  
HETATM   28  O   UNL     1     -12.632  11.682  71.198  1.00  0.00    -0.385 OA 
BRANCH  27  29
HETATM   29  N   UNL     1     -12.744  13.965  71.242  1.00  0.00    -0.351 N  
HETATM   30  C   UNL     1     -14.003  14.042  71.961  1.00  0.00    -0.506 C  
HETATM   31  C   UNL     1     -14.068  15.464  72.498  1.00  0.00    -0.499 C  
HETATM   32  C   UNL     1     -12.010  15.137  71.445  1.00  0.00    -0.350 C  
HETATM   33  O   UNL     1     -10.886  15.377  71.040  1.00  0.00    -0.317 OA 
HETATM   34  N   UNL     1     -12.780  16.016  72.188  1.00  0.00    -0.434 NA 
ENDBRANCH  27  29
ENDBRANCH  25  27
ENDBRANCH   1  25
TORSDOF 6
ENDMDL
MODEL        4
REMARK 921   NORMALIZED FREE ENERGY PREDICTED BY IDOCK:   -7.11 KCAL/MOL
REMARK 922        TOTAL FREE ENERGY PREDICTED BY IDOCK:  -11.69 KCAL/MOL
REMARK 923 INTER-LIGAND FREE ENERGY PREDICTED BY IDOCK:  -10.42 KCAL/MOL
REMARK 924 INTRA-LIGAND FREE ENERGY PREDICTED BY IDOCK:   -1.28 KCAL/MOL
REMARK 927      BINDING AFFINITY PREDICTED BY RF-SCORE:    0.00 PKD
ROOT
HETATM    1  CA  UNL     1     -11.484  14.247  69.648  1.00  0.00    -0.282 C  
ENDROOT
BRANCH   1   2
HETATM    2  C   UNL     1     -12.126  14.923  70.864  1.00  0.00    -0.377 A  
HETATM    3  C   UNL     1     -14.153  15.430  72.110  1.00  0.00    -0.651 A  
HETATM    4  C   UNL     1     -13.392  15.791  73.220  1.00  0.00    -0.649 A  
HETATM    5  C   UNL     1     -12.003  15.788  73.136  1.00  0.00    -0.574 A  
HETATM    6  C   UNL     1     -13.526  15.004  70.938  1.00  0.00    -0.402 A  
HETATM    7  C   UNL     1     -11.374  15.370  71.963  1.00  0.00    -0.466 A  
ENDBRANCH   1   2
BRANCH   1   8
HETATM    8  C   UNL     1     -11.489  15.237  68.416  1.00  0.00    -0.345 C  
HETATM    9  N   UNL     1     -10.719  16.377  68.551  1.00  0.00    -0.302 N  
HETATM   10  H   UNL     1     -10.204  16.491  69.423  1.00  0.00     0.000 HD 
HETATM   11  O   UNL     1     -12.139  15.020  67.393  1.00  0.00    -0.180 OA 
BRANCH   9  12
HETATM   12  CA  UNL     1     -10.573  17.470  67.516  1.00  0.00    -0.333 C  
HETATM   13  N   UNL     1      -8.900  17.797  66.209  1.00  0.00    -0.216 N  
HETATM   14  CA  UNL     1      -7.566  17.154  66.029  1.00  0.00    -0.150 C  
HETATM   15  C   UNL     1      -6.509  18.233  65.707  1.00  0.00    -0.275 C  
HETATM   16  O   UNL     1     -10.364  16.277  65.217  1.00  0.00    -0.552 OA 
HETATM   17  C   UNL     1      -7.284  16.357  67.322  1.00  0.00    -0.175 C  
HETATM   18  OXT UNL     1      -5.299  18.068  65.752  1.00  0.00    -0.170 OA 
HETATM   19  O   UNL     1      -7.038  19.393  65.241  1.00  0.00    -0.427 OA 
HETATM   20  C   UNL     1     -10.057  17.058  66.088  1.00  0.00    -0.319 C  
HETATM   21  C   UNL     1      -5.830  16.013  67.655  1.00  0.00    -0.174 C  
HETATM   22  S   UNL     1      -7.952  17.443  68.666  1.00  0.00    -0.252 SA 
HETATM   23  C   UNL     1      -8.022  15.006  67.327  1.00  0.00    -0.234 C  
HETATM   24  C   UNL     1      -9.218  18.238  67.587  1.00  0.00    -0.267 C  
ENDBRANCH   9  12
ENDBRANCH   1   8
BRANCH   1  25
HETATM   25  N   UNL     1     -12.086  12.939  69.377  1.00  0.00    -0.245 N  
HETATM   26  H   UNL     1     -13.086  12.800  69.525  1.00  0.00     0.000 HD 
BRANCH  25  27
HETATM   27  C   UNL     1     -11.311  11.893  68.924  1.00  0.00    -0.278 C  
HETATM   28  O   UNL     1     -10.725  11.923  67.844  1.00  0.00    -0.192 OA 
BRANCH  27  29
HETATM   29  N   UNL     1     -11.190  10.814  69.789  1.00  0.00    -0.277 N  
HETATM   30  C   UNL     1     -10.026   9.947  69.740  1.00  0.00    -0.243 C  
HETATM   31  C   UNL     1     -10.192   8.993  70.913  1.00  0.00    -0.257 C  
HETATM   32  C   UNL     1     -11.919  10.563  70.955  1.00  0.00    -0.364 C  
HETATM   33  O   UNL     1     -12.912  11.156  71.339  1.00  0.00    -0.408 OA 
HETATM   34  N   UNL     1     -11.332   9.501  71.622  1.00  0.00    -0.382 NA 
ENDBRANCH  27  29
ENDBRANCH  25  27
ENDBRANCH   1  25
TORSDOF 6
ENDMDL
MODEL        5
REMARK 921   NORMALIZED FREE ENERGY PREDICTED BY IDOCK:   -7.02 KCAL/MOL
REMARK 922        TOTAL FREE ENERGY PREDICTED BY IDOCK:  -11.57 KCAL/MOL
REMARK 923 INTER-LIGAND FREE ENERGY PREDICTED BY IDOCK:   -9.53 KCAL/MOL
REMARK 924 INTRA-LIGAND FREE ENERGY PREDICTED BY IDOCK:   -2.04 KCAL/MOL
REMARK 927      BINDING AFFINITY PREDICTED BY RF-SCORE:    0.00 PKD
ROOT
HETATM    1  CA  UNL     1     -10.850  10.898  67.868  1.00  0.00    -0.247 C  
ENDROOT
BRANCH   1   2
HETATM    2  C   UNL     1      -9.833  10.326  66.876  1.00  0.00    -0.244 A  
HETATM    3  C   UNL     1      -7.634  10.497  65.849  1.00  0.00    -0.148 A  
HETATM    4  C   UNL     1      -7.742   9.190  65.378  1.00  0.00    -0.098 A  
HETATM    5  C   UNL     1      -8.915   8.473  65.590  1.00  0.00    -0.209 A  
HETATM    6  C   UNL     1      -8.673  11.064  66.588  1.00  0.00    -0.160 A  
HETATM    7  C   UNL     1      -9.959   9.041  66.322  1.00  0.00    -0.352 A  
ENDBRANCH   1   2
BRANCH   1   8
HETATM    8  C   UNL     1     -11.489  12.221  67.283  1.00  0.00    -0.357 C  
HETATM    9  N   UNL     1     -11.257  13.376  68.006  1.00  0.00    -0.256 N  
HETATM   10  H   UNL     1     -10.691  13.292  68.851  1.00  0.00     0.000 HD 
HETATM   11  O   UNL     1     -12.156  12.234  66.250  1.00  0.00    -0.626 OA 
BRANCH   9  12
HETATM   12  CA  UNL     1     -11.769  14.754  67.654  1.00  0.00    -0.341 C  
HETATM   13  N   UNL     1     -10.612  16.555  67.473  1.00  0.00    -0.321 N  
HETATM   14  CA  UNL     1      -9.177  16.908  67.680  1.00  0.00    -0.228 C  
HETATM   15  C   UNL     1      -9.073  18.315  68.306  1.00  0.00    -0.305 C  
HETATM   16  O   UNL     1     -10.595  15.424  65.434  1.00  0.00    -0.350 OA 
HETATM   17  C   UNL     1      -8.569  15.782  68.546  1.00  0.00    -0.183 C  
HETATM   18  OXT UNL     1      -8.070  18.784  68.822  1.00  0.00    -0.332 OA 
HETATM   19  O   UNL     1     -10.187  19.072  68.135  1.00  0.00    -0.369 OA 
HETATM   20  C   UNL     1     -10.970  15.574  66.573  1.00  0.00    -0.243 C  
HETATM   21  C   UNL     1      -7.293  16.089  69.335  1.00  0.00    -0.212 C  
HETATM   22  S   UNL     1      -9.918  15.371  69.748  1.00  0.00    -0.189 SA 
HETATM   23  C   UNL     1      -8.224  14.541  67.702  1.00  0.00    -0.187 C  
HETATM   24  C   UNL     1     -11.277  15.881  68.612  1.00  0.00    -0.360 C  
ENDBRANCH   9  12
ENDBRANCH   1   8
BRANCH   1  25
HETATM   25  N   UNL     1     -10.275  11.043  69.208  1.00  0.00    -0.384 N  
HETATM   26  H   UNL     1      -9.769  11.894  69.453  1.00  0.00     0.000 HD 
BRANCH  25  27
HETATM   27  C   UNL     1     -10.412  10.038  70.140  1.00  0.00    -0.284 C  
HETATM   28  O   UNL     1      -9.517   9.230  70.380  1.00  0.00    -0.208 OA 
BRANCH  27  29
HETATM   29  N   UNL     1     -11.614  10.020  70.835  1.00  0.00    -0.350 N  
HETATM   30  C   UNL     1     -12.019   8.851  71.594  1.00  0.00    -0.345 C  
HETATM   31  C   UNL     1     -13.293   9.266  72.315  1.00  0.00    -0.477 C  
HETATM   32  C   UNL     1     -12.428  11.107  71.169  1.00  0.00    -0.393 C  
HETATM   33  O   UNL     1     -12.321  12.253  70.766  1.00  0.00    -0.377 OA 
HETATM   34  N   UNL     1     -13.408  10.671  72.043  1.00  0.00    -0.400 NA 
ENDBRANCH  27  29
ENDBRANCH  25  27
ENDBRANCH   1  25
TORSDOF 6
ENDMDL
MODEL        6
REMARK 921   NORMALIZED FREE ENERGY PREDICTED BY IDOCK:   -6.99 KCAL/MOL
REMARK 922        TOTAL FREE ENERGY PREDICTED BY IDOCK:  -11.53 KCAL/MOL
REMARK 923 INTER-LIGAND FREE ENERGY PREDICTED BY IDOCK:   -9.81 KCAL/MOL
REMARK 924 INTRA-LIGAND FREE ENERGY PREDICTED BY IDOCK:   -1.73 KCAL/MOL
REMARK 927      BINDING AFFINITY PREDICTED BY RF-SCORE:    0.00 PKD
ROOT
HETATM    1  CA  UNL     1     -10.033  10.421  69.396  1.00  0.00    -0.218 C  
ENDROOT
BRANCH   1   2
HETATM    2  C   UNL     1     -11.040  10.001  70.471  1.00  0.00    -0.400 A  
HETATM    3  C   UNL     1     -13.089  10.498  71.684  1.00  0.00    -0.551 A  
HETATM    4  C   UNL     1     -13.149   9.184  72.141  1.00  0.00    -0.516 A  
HETATM    5  C   UNL     1     -12.126   8.295  71.828  1.00  0.00    -0.364 A  
HETATM    6  C   UNL     1     -12.040  10.907  70.859  1.00  0.00    -0.455 A  
HETATM    7  C   UNL     1     -11.071   8.703  71.009  1.00  0.00    -0.316 A  
ENDBRANCH   1   2
BRANCH   1   8
HETATM    8  C   UNL     1     -10.755  10.529  67.993  1.00  0.00    -0.245 C  
HETATM    9  N   UNL     1     -11.075  11.807  67.574  1.00  0.00    -0.254 N  
HETATM   10  H   UNL     1     -10.819  12.577  68.190  1.00  0.00     0.000 HD 
HETATM   11  O   UNL     1     -11.023   9.543  67.308  1.00  0.00    -0.203 OA 
BRANCH   9  12
HETATM   12  CA  UNL     1     -11.772  12.160  66.280  1.00  0.00    -0.320 C  
HETATM   13  N   UNL     1     -11.415  13.885  65.049  1.00  0.00    -0.327 N  
HETATM   14  CA  UNL     1     -10.535  15.085  65.152  1.00  0.00    -0.412 C  
HETATM   15  C   UNL     1     -11.279  16.322  64.603  1.00  0.00    -0.254 C  
HETATM   16  O   UNL     1      -9.934  12.188  64.443  1.00  0.00    -0.269 OA 
HETATM   17  C   UNL     1     -10.122  15.201  66.636  1.00  0.00    -0.264 C  
HETATM   18  OXT UNL     1     -10.936  17.483  64.775  1.00  0.00    -0.950 OA 
HETATM   19  O   UNL     1     -12.319  16.016  63.788  1.00  0.00    -0.858 OA 
HETATM   20  C   UNL     1     -10.876  12.616  65.069  1.00  0.00    -0.290 C  
HETATM   21  C   UNL     1      -9.654  16.564  67.151  1.00  0.00    -0.243 C  
HETATM   22  S   UNL     1     -11.653  14.717  67.561  1.00  0.00    -0.338 SA 
HETATM   23  C   UNL     1      -8.975  14.233  66.981  1.00  0.00    -0.251 C  
HETATM   24  C   UNL     1     -12.290  13.630  66.216  1.00  0.00    -0.412 C  
ENDBRANCH   9  12
ENDBRANCH   1   8
BRANCH   1  25
HETATM   25  N   UNL     1      -8.846   9.560  69.402  1.00  0.00    -0.158 N  
HETATM   26  H   UNL     1      -8.913   8.603  69.056  1.00  0.00     0.000 HD 
BRANCH  25  27
HETATM   27  C   UNL     1      -7.641  10.035  69.871  1.00  0.00    -0.170 C  
HETATM   28  O   UNL     1      -7.154   9.666  70.938  1.00  0.00    -0.255 OA 
BRANCH  27  29
HETATM   29  N   UNL     1      -6.979  10.926  69.039  1.00  0.00    -0.080 N  
HETATM   30  C   UNL     1      -6.019  11.874  69.574  1.00  0.00    -0.098 C  
HETATM   31  C   UNL     1      -5.414  12.559  68.357  1.00  0.00    -0.055 C  
HETATM   32  C   UNL     1      -6.873  10.882  67.645  1.00  0.00    -0.081 C  
HETATM   33  O   UNL     1      -7.485  10.148  66.888  1.00  0.00    -0.094 OA 
HETATM   34  N   UNL     1      -5.951  11.831  67.242  1.00  0.00    -0.107 NA 
ENDBRANCH  27  29
ENDBRANCH  25  27
ENDBRANCH   1  25
TORSDOF 6
ENDMDL
MODEL        7
REMARK 921   NORMALIZED FREE ENERGY PREDICTED BY IDOCK:   -6.98 KCAL/MOL
REMARK 922        TOTAL FREE ENERGY PREDICTED BY IDOCK:  -11.52 KCAL/MOL
REMARK 923 INTER-LIGAND FREE ENERGY PREDICTED BY IDOCK:   -9.92 KCAL/MOL
REMARK 924 INTRA-LIGAND FREE ENERGY PREDICTED BY IDOCK:   -1.60 KCAL/MOL
REMARK 927      BINDING AFFINITY PREDICTED BY RF-SCORE:    0.00 PKD
ROOT
HETATM    1  CA  UNL     1     -11.495  10.705  69.815  1.00  0.00    -0.302 C  
ENDROOT
BRANCH   1   2
HETATM    2  C   UNL     1     -10.243   9.921  70.221  1.00  0.00    -0.322 A  
HETATM    3  C   UNL     1      -7.831   9.658  70.055  1.00  0.00    -0.173 A  
HETATM    4  C   UNL     1      -7.836   8.815  71.163  1.00  0.00    -0.161 A  
HETATM    5  C   UNL     1      -9.043   8.465  71.760  1.00  0.00    -0.283 A  
HETATM    6  C   UNL     1      -9.025  10.203  69.583  1.00  0.00    -0.190 A  
HETATM    7  C   UNL     1     -10.241   9.003  71.285  1.00  0.00    -0.384 A  
ENDBRANCH   1   2
BRANCH   1   8
HETATM    8  C   UNL     1     -11.541  10.872  68.244  1.00  0.00    -0.262 C  
HETATM    9  N   UNL     1     -11.777  12.151  67.776  1.00  0.00    -0.337 N  
HETATM   10  H   UNL     1     -11.896  12.887  68.473  1.00  0.00     0.000 HD 
HETATM   11  O   UNL     1     -11.381   9.927  67.472  1.00  0.00    -0.136 OA 
BRANCH   9  12
HETATM   12  CA  UNL     1     -11.874  12.555  66.323  1.00  0.00    -0.390 C  
HETATM   13  N   UNL     1     -11.020  14.301  65.407  1.00  0.00    -0.317 N  
HETATM   14  CA  UNL     1     -10.248  15.477  65.904  1.00  0.00    -0.345 C  
HETATM   15  C   UNL     1     -10.684  16.745  65.139  1.00  0.00    -0.143 C  
HETATM   16  O   UNL     1      -9.441  12.585  65.409  1.00  0.00    -0.071 OA 
HETATM   17  C   UNL     1     -10.483  15.544  67.429  1.00  0.00    -0.281 C  
HETATM   18  OXT UNL     1     -10.430  17.892  65.475  1.00  0.00    -0.650 OA 
HETATM   19  O   UNL     1     -11.298  16.485  63.957  1.00  0.00    -1.064 OA 
HETATM   20  C   UNL     1     -10.552  13.020  65.606  1.00  0.00    -0.282 C  
HETATM   21  C   UNL     1     -10.254  16.883  68.136  1.00  0.00    -0.311 C  
HETATM   22  S   UNL     1     -12.264  15.074  67.624  1.00  0.00     0.454 SA 
HETATM   23  C   UNL     1      -9.592  14.540  68.184  1.00  0.00    -0.212 C  
HETATM   24  C   UNL     1     -12.302  14.037  66.100  1.00  0.00    -0.458 C  
ENDBRANCH   9  12
ENDBRANCH   1   8
BRANCH   1  25
HETATM   25  N   UNL     1     -11.611  11.961  70.562  1.00  0.00    -0.437 N  
HETATM   26  H   UNL     1     -10.875  12.664  70.489  1.00  0.00     0.000 HD 
BRANCH  25  27
HETATM   27  C   UNL     1     -12.707  12.200  71.361  1.00  0.00    -0.263 C  
HETATM   28  O   UNL     1     -13.310  11.302  71.944  1.00  0.00    -0.429 OA 
BRANCH  27  29
HETATM   29  N   UNL     1     -13.064  13.533  71.511  1.00  0.00    -0.355 N  
HETATM   30  C   UNL     1     -14.359  13.901  72.055  1.00  0.00    -0.388 C  
HETATM   31  C   UNL     1     -14.316  15.415  72.195  1.00  0.00    -0.544 C  
HETATM   32  C   UNL     1     -12.230  14.654  71.476  1.00  0.00    -0.352 C  
HETATM   33  O   UNL     1     -11.059  14.685  71.137  1.00  0.00    -0.069 OA 
HETATM   34  N   UNL     1     -12.957  15.759  71.884  1.00  0.00    -0.458 NA 
ENDBRANCH  27  29
ENDBRANCH  25  27
ENDBRANCH   1  25
TORSDOF 6
ENDMDL
MODEL        8
REMARK 921   NORMALIZED FREE ENERGY PREDICTED BY IDOCK:   -6.94 KCAL/MOL
REMARK 922        TOTAL FREE ENERGY PREDICTED BY IDOCK:  -11.47 KCAL/MOL
REMARK 923 INTER-LIGAND FREE ENERGY PREDICTED BY IDOCK:   -9.99 KCAL/MOL
REMARK 924 INTRA-LIGAND FREE ENERGY PREDICTED BY IDOCK:   -1.48 KCAL/MOL
REMARK 927      BINDING AFFINITY PREDICTED BY RF-SCORE:    0.00 PKD
ROOT
HETATM    1  CA  UNL     1     -11.190  12.694  67.595  1.00  0.00    -0.283 C  
ENDROOT
BRANCH   1   2
HETATM    2  C   UNL     1     -11.444  12.315  66.133  1.00  0.00    -0.429 A  
HETATM    3  C   UNL     1     -12.599  12.798  64.048  1.00  0.00    -0.379 A  
HETATM    4  C   UNL     1     -11.725  11.962  63.357  1.00  0.00    -0.500 A  
HETATM    5  C   UNL     1     -10.756  11.247  64.055  1.00  0.00    -0.444 A  
HETATM    6  C   UNL     1     -12.465  12.970  65.426  1.00  0.00    -0.531 A  
HETATM    7  C   UNL     1     -10.624  11.411  65.435  1.00  0.00    -0.333 A  
ENDBRANCH   1   2
BRANCH   1   8
HETATM    8  C   UNL     1      -9.693  13.171  67.776  1.00  0.00    -0.218 C  
HETATM    9  N   UNL     1      -9.367  14.380  67.190  1.00  0.00    -0.211 N  
HETATM   10  H   UNL     1     -10.110  14.874  66.696  1.00  0.00     0.000 HD 
HETATM   11  O   UNL     1      -8.858  12.513  68.396  1.00  0.00    -0.181 OA 
BRANCH   9  12
HETATM   12  CA  UNL     1      -8.004  15.034  67.220  1.00  0.00    -0.206 C  
HETATM   13  N   UNL     1      -7.561  17.074  67.729  1.00  0.00    -0.168 N  
HETATM   14  CA  UNL     1      -8.380  18.269  68.088  1.00  0.00    -0.284 C  
HETATM   15  C   UNL     1      -7.751  19.534  67.465  1.00  0.00    -0.261 C  
HETATM   16  O   UNL     1      -7.610  15.790  69.675  1.00  0.00    -0.199 OA 
HETATM   17  C   UNL     1      -9.819  17.975  67.610  1.00  0.00    -0.305 C  
HETATM   18  OXT UNL     1      -8.306  20.618  67.362  1.00  0.00    -0.334 OA 
HETATM   19  O   UNL     1      -6.445  19.386  67.129  1.00  0.00    -0.191 OA 
HETATM   20  C   UNL     1      -7.646  15.917  68.474  1.00  0.00    -0.145 C  
HETATM   21  C   UNL     1     -10.757  19.162  67.376  1.00  0.00    -0.578 C  
HETATM   22  S   UNL     1      -9.579  17.090  66.000  1.00  0.00    -0.129 SA 
HETATM   23  C   UNL     1     -10.570  17.066  68.600  1.00  0.00    -0.362 C  
HETATM   24  C   UNL     1      -7.936  16.397  66.466  1.00  0.00    -0.307 C  
ENDBRANCH   9  12
ENDBRANCH   1   8
BRANCH   1  25
HETATM   25  N   UNL     1     -11.601  11.625  68.509  1.00  0.00    -0.292 N  
HETATM   26  H   UNL     1     -11.683  10.668  68.166  1.00  0.00     0.000 HD 
BRANCH  25  27
HETATM   27  C   UNL     1     -11.876  11.903  69.830  1.00  0.00    -0.343 C  
HETATM   28  O   UNL     1     -12.180  13.028  70.221  1.00  0.00    -0.339 OA 
BRANCH  27  29
HETATM   29  N   UNL     1     -11.837  10.818  70.695  1.00  0.00    -0.342 N  
HETATM   30  C   UNL     1     -13.028  10.388  71.405  1.00  0.00    -0.443 C  
HETATM   31  C   UNL     1     -12.623   9.108  72.122  1.00  0.00    -0.381 C  
HETATM   32  C   UNL     1     -10.844   9.840  70.800  1.00  0.00    -0.333 C  
HETATM   33  O   UNL     1      -9.746   9.851  70.270  1.00  0.00    -0.248 OA 
HETATM   34  N   UNL     1     -11.304   8.831  71.629  1.00  0.00    -0.295 NA 
ENDBRANCH  27  29
ENDBRANCH  25  27
ENDBRANCH   1  25
TORSDOF 6
ENDMDL
MODEL        9
REMARK 921   NORMALIZED FREE ENERGY PREDICTED BY IDOCK:   -6.91 KCAL/MOL
REMARK 922        TOTAL FREE ENERGY PREDICTED BY IDOCK:  -11.43 KCAL/MOL
REMARK 923 INTER-LIGAND FREE ENERGY PREDICTED BY IDOCK:   -9.70 KCAL/MOL
REMARK 924 INTRA-LIGAND FREE ENERGY PREDICTED BY IDOCK:   -1.73 KCAL/MOL
REMARK 927      BINDING AFFINITY PREDICTED BY RF-SCORE:    0.00 PKD
ROOT
HETATM    1  CA  UNL     1     -11.352  11.137  68.101  1.00  0.00    -0.309 C  
ENDROOT
BRANCH   1   2
HETATM    2  C   UNL     1     -10.325  10.322  67.309  1.00  0.00    -0.284 A  
HETATM    3  C   UNL     1      -9.647   8.160  66.425  1.00  0.00    -0.286 A  
HETATM    4  C   UNL     1      -8.729   8.781  65.582  1.00  0.00    -0.215 A  
HETATM    5  C   UNL     1      -8.553  10.160  65.647  1.00  0.00    -0.166 A  
HETATM    6  C   UNL     1     -10.436   8.922  67.287  1.00  0.00    -0.348 A  
HETATM    7  C   UNL     1      -9.336  10.924  66.514  1.00  0.00    -0.195 A  
ENDBRANCH   1   2
BRANCH   1   8
HETATM    8  C   UNL     1     -11.749  12.436  67.293  1.00  0.00    -0.349 C  
HETATM    9  N   UNL     1     -11.469  13.642  67.908  1.00  0.00    -0.295 N  
HETATM   10  H   UNL     1     -11.025  13.605  68.825  1.00  0.00     0.000 HD 
HETATM   11  O   UNL     1     -12.279  12.390  66.183  1.00  0.00    -0.635 OA 
BRANCH   9  12
HETATM   12  CA  UNL     1     -11.763  15.011  67.338  1.00  0.00    -0.239 C  
HETATM   13  N   UNL     1     -10.379  16.639  67.107  1.00  0.00    -0.298 N  
HETATM   14  CA  UNL     1      -8.946  16.857  67.458  1.00  0.00    -0.206 C  
HETATM   15  C   UNL     1      -8.742  18.313  67.929  1.00  0.00    -0.265 C  
HETATM   16  O   UNL     1     -10.266  15.262  65.229  1.00  0.00    -0.360 OA 
HETATM   17  C   UNL     1      -8.585  15.792  68.517  1.00  0.00    -0.183 C  
HETATM   18  OXT UNL     1      -7.755  18.732  68.515  1.00  0.00    -0.305 OA 
HETATM   19  O   UNL     1      -9.727  19.158  67.531  1.00  0.00    -0.302 OA 
HETATM   20  C   UNL     1     -10.749  15.596  66.285  1.00  0.00    -0.295 C  
HETATM   21  C   UNL     1      -7.381  16.056  69.425  1.00  0.00    -0.212 C  
HETATM   22  S   UNL     1     -10.104  15.685  69.572  1.00  0.00    -0.287 SA 
HETATM   23  C   UNL     1      -8.300  14.423  67.870  1.00  0.00    -0.162 C  
HETATM   24  C   UNL     1     -11.249  16.191  68.219  1.00  0.00    -0.343 C  
ENDBRANCH   9  12
ENDBRANCH   1   8
BRANCH   1  25
HETATM   25  N   UNL     1     -10.899  11.390  69.472  1.00  0.00    -0.431 N  
HETATM   26  H   UNL     1      -9.901  11.448  69.673  1.00  0.00     0.000 HD 
BRANCH  25  27
HETATM   27  C   UNL     1     -11.812  11.551  70.491  1.00  0.00    -0.267 C  
HETATM   28  O   UNL     1     -12.416  12.605  70.679  1.00  0.00    -0.318 OA 
BRANCH  27  29
HETATM   29  N   UNL     1     -12.049  10.427  71.270  1.00  0.00    -0.370 N  
HETATM   30  C   UNL     1     -13.384  10.125  71.755  1.00  0.00    -0.385 C  
HETATM   31  C   UNL     1     -13.263   8.767  72.432  1.00  0.00    -0.394 C  
HETATM   32  C   UNL     1     -11.216   9.320  71.456  1.00  0.00    -0.386 C  
HETATM   33  O   UNL     1     -10.053   9.212  71.104  1.00  0.00    -0.267 OA 
HETATM   34  N   UNL     1     -11.926   8.341  72.129  1.00  0.00    -0.345 NA 
ENDBRANCH  27  29
ENDBRANCH  25  27
ENDBRANCH   1  25
TORSDOF 6
ENDMDL
MODEL       10
REMARK 921   NORMALIZED FREE ENERGY PREDICTED BY IDOCK:   -6.81 KCAL/MOL
REMARK 922        TOTAL FREE ENERGY PREDICTED BY IDOCK:  -11.30 KCAL/MOL
REMARK 923 INTER-LIGAND FREE ENERGY PREDICTED BY IDOCK:   -9.74 KCAL/MOL
REMARK 924 INTRA-LIGAND FREE ENERGY PREDICTED BY IDOCK:   -1.56 KCAL/MOL
REMARK 927      BINDING AFFINITY PREDICTED BY RF-SCORE:    0.00 PKD
ROOT
HETATM    1  CA  UNL     1     -10.049  10.362  69.442  1.00  0.00    -0.229 C  
ENDROOT
BRANCH   1   2
HETATM    2  C   UNL     1     -11.023   9.995  70.566  1.00  0.00    -0.392 A  
HETATM    3  C   UNL     1     -13.161  10.395  71.655  1.00  0.00    -0.553 A  
HETATM    4  C   UNL     1     -13.051   9.186  72.337  1.00  0.00    -0.493 A  
HETATM    5  C   UNL     1     -11.903   8.413  72.194  1.00  0.00    -0.441 A  
HETATM    6  C   UNL     1     -12.152  10.801  70.779  1.00  0.00    -0.473 A  
HETATM    7  C   UNL     1     -10.889   8.820  71.325  1.00  0.00    -0.347 A  
ENDBRANCH   1   2
BRANCH   1   8
HETATM    8  C   UNL     1     -10.819  10.435  68.064  1.00  0.00    -0.270 C  
HETATM    9  N   UNL     1     -10.956  11.696  67.512  1.00  0.00    -0.242 N  
HETATM   10  H   UNL     1     -10.549  12.476  68.027  1.00  0.00     0.000 HD 
HETATM   11  O   UNL     1     -11.277   9.438  67.506  1.00  0.00    -0.012 OA 
BRANCH   9  12
HETATM   12  CA  UNL     1     -11.658  12.017  66.212  1.00  0.00    -0.310 C  
HETATM   13  N   UNL     1     -11.384  13.766  64.994  1.00  0.00    -0.317 N  
HETATM   14  CA  UNL     1     -10.574  15.013  65.114  1.00  0.00    -0.418 C  
HETATM   15  C   UNL     1     -11.380  16.210  64.563  1.00  0.00    -0.267 C  
HETATM   16  O   UNL     1      -9.804  12.159  64.397  1.00  0.00    -0.219 OA 
HETATM   17  C   UNL     1     -10.184  15.143  66.603  1.00  0.00    -0.266 C  
HETATM   18  OXT UNL     1     -11.105  17.387  64.745  1.00  0.00    -0.973 OA 
HETATM   19  O   UNL     1     -12.392  15.851  63.734  1.00  0.00    -0.791 OA 
HETATM   20  C   UNL     1     -10.775  12.530  65.014  1.00  0.00    -0.294 C  
HETATM   21  C   UNL     1      -9.800  16.528  67.130  1.00  0.00    -0.255 C  
HETATM   22  S   UNL     1     -11.696  14.570  67.508  1.00  0.00    -0.373 SA 
HETATM   23  C   UNL     1      -8.989  14.239  66.956  1.00  0.00    -0.251 C  
HETATM   24  C   UNL     1     -12.256  13.456  66.150  1.00  0.00    -0.415 C  
ENDBRANCH   9  12
ENDBRANCH   1   8
BRANCH   1  25
HETATM   25  N   UNL     1      -8.876   9.484  69.435  1.00  0.00    -0.158 N  
HETATM   26  H   UNL     1      -8.661   8.919  70.257  1.00  0.00     0.000 HD 
BRANCH  25  27
HETATM   27  C   UNL     1      -8.061   9.414  68.327  1.00  0.00    -0.109 C  
HETATM   28  O   UNL     1      -8.194   8.552  67.460  1.00  0.00    -0.115 OA 
BRANCH  27  29
HETATM   29  N   UNL     1      -7.103  10.412  68.219  1.00  0.00    -0.077 N  
HETATM   30  C   UNL     1      -6.849  11.068  66.949  1.00  0.00    -0.121 C  
HETATM   31  C   UNL     1      -5.858  12.179  67.266  1.00  0.00    -0.146 C  
HETATM   32  C   UNL     1      -6.489  11.127  69.252  1.00  0.00    -0.088 C  
HETATM   33  O   UNL     1      -6.555  10.890  70.446  1.00  0.00    -0.273 OA 
HETATM   34  N   UNL     1      -5.765  12.169  68.698  1.00  0.00    -0.052 NA 
ENDBRANCH  27  29
ENDBRANCH  25  27
ENDBRANCH   1  25
TORSDOF 6
ENDMDL
MODEL       11
REMARK 921   NORMALIZED FREE ENERGY PREDICTED BY IDOCK:   -6.80 KCAL/MOL
REMARK 922        TOTAL FREE ENERGY PREDICTED BY IDOCK:  -11.28 KCAL/MOL
REMARK 923 INTER-LIGAND FREE ENERGY PREDICTED BY IDOCK:   -9.76 KCAL/MOL
REMARK 924 INTRA-LIGAND FREE ENERGY PREDICTED BY IDOCK:   -1.52 KCAL/MOL
REMARK 927      BINDING AFFINITY PREDICTED BY RF-SCORE:    0.00 PKD
ROOT
HETATM    1  CA  UNL     1     -10.357   9.841  68.298  1.00  0.00    -0.198 C  
ENDROOT
BRANCH   1   2
HETATM    2  C   UNL     1      -9.042   9.055  68.316  1.00  0.00    -0.133 A  
HETATM    3  C   UNL     1      -7.915   6.916  68.052  1.00  0.00    -0.115 A  
HETATM    4  C   UNL     1      -6.686   7.564  67.954  1.00  0.00    -0.066 A  
HETATM    5  C   UNL     1      -6.619   8.945  68.106  1.00  0.00    -0.061 A  
HETATM    6  C   UNL     1      -9.084   7.654  68.237  1.00  0.00    -0.136 A  
HETATM    7  C   UNL     1      -7.787   9.685  68.299  1.00  0.00    -0.085 A  
ENDBRANCH   1   2
BRANCH   1   8
HETATM    8  C   UNL     1     -10.646  10.375  66.839  1.00  0.00    -0.230 C  
HETATM    9  N   UNL     1     -11.441  11.503  66.753  1.00  0.00    -0.244 N  
HETATM   10  H   UNL     1     -11.773  11.907  67.629  1.00  0.00     0.000 HD 
HETATM   11  O   UNL     1     -10.199   9.828  65.831  1.00  0.00    -0.259 OA 
BRANCH   9  12
HETATM   12  CA  UNL     1     -11.861  12.190  65.474  1.00  0.00    -0.286 C  
HETATM   13  N   UNL     1     -11.199  14.105  64.759  1.00  0.00    -0.364 N  
HETATM   14  CA  UNL     1     -10.304  15.174  65.291  1.00  0.00    -0.396 C  
HETATM   15  C   UNL     1     -10.874  16.560  64.920  1.00  0.00    -0.204 C  
HETATM   16  O   UNL     1      -9.704  12.462  64.049  1.00  0.00    -0.167 OA 
HETATM   17  C   UNL     1     -10.178  14.925  66.810  1.00  0.00    -0.259 C  
HETATM   18  OXT UNL     1     -10.520  17.621  65.414  1.00  0.00    -0.648 OA 
HETATM   19  O   UNL     1     -11.750  16.531  63.885  1.00  0.00    -1.148 OA 
HETATM   20  C   UNL     1     -10.729  12.821  64.580  1.00  0.00    -0.358 C  
HETATM   21  C   UNL     1      -9.760  16.098  67.701  1.00  0.00    -0.233 C  
HETATM   22  S   UNL     1     -11.878  14.385  67.312  1.00  0.00    -0.376 SA 
HETATM   23  C   UNL     1      -9.162  13.810  67.120  1.00  0.00    -0.245 C  
HETATM   24  C   UNL     1     -12.292  13.677  65.661  1.00  0.00    -0.478 C  
ENDBRANCH   9  12
ENDBRANCH   1   8
BRANCH   1  25
HETATM   25  N   UNL     1     -10.383  10.873  69.338  1.00  0.00    -0.373 N  
HETATM   26  H   UNL     1      -9.540  11.411  69.540  1.00  0.00     0.000 HD 
BRANCH  25  27
HETATM   27  C   UNL     1     -11.537  11.123  70.047  1.00  0.00    -0.338 C  
HETATM   28  O   UNL     1     -12.247  12.103  69.832  1.00  0.00    -0.251 OA 
BRANCH  27  29
HETATM   29  N   UNL     1     -11.883  10.167  70.992  1.00  0.00    -0.357 N  
HETATM   30  C   UNL     1     -13.265   9.761  71.171  1.00  0.00    -0.331 C  
HETATM   31  C   UNL     1     -13.217   8.617  72.173  1.00  0.00    -0.383 C  
HETATM   32  C   UNL     1     -11.038   9.276  71.660  1.00  0.00    -0.368 C  
HETATM   33  O   UNL     1      -9.818   9.286  71.663  1.00  0.00    -0.278 OA 
HETATM   34  N   UNL     1     -11.816   8.360  72.347  1.00  0.00    -0.388 NA 
ENDBRANCH  27  29
ENDBRANCH  25  27
ENDBRANCH   1  25
TORSDOF 6
ENDMDL
MODEL       12
REMARK 921   NORMALIZED FREE ENERGY PREDICTED BY IDOCK:   -6.75 KCAL/MOL
REMARK 922        TOTAL FREE ENERGY PREDICTED BY IDOCK:  -11.21 KCAL/MOL
REMARK 923 INTER-LIGAND FREE ENERGY PREDICTED BY IDOCK:   -9.89 KCAL/MOL
REMARK 924 INTRA-LIGAND FREE ENERGY PREDICTED BY IDOCK:   -1.32 KCAL/MOL
REMARK 927      BINDING AFFINITY PREDICTED BY RF-SCORE:    0.00 PKD
ROOT
HETATM    1  CA  UNL     1     -12.090  13.757  68.552  1.00  0.00    -0.292 C  
ENDROOT
BRANCH   1   2
HETATM    2  C   UNL     1     -11.697  13.486  67.097  1.00  0.00    -0.419 A  
HETATM    3  C   UNL     1     -10.216  12.347  65.539  1.00  0.00    -0.297 A  
HETATM    4  C   UNL     1     -11.096  12.612  64.493  1.00  0.00    -0.365 A  
HETATM    5  C   UNL     1     -12.239  13.371  64.726  1.00  0.00    -0.454 A  
HETATM    6  C   UNL     1     -10.510  12.785  66.831  1.00  0.00    -0.250 A  
HETATM    7  C   UNL     1     -12.531  13.817  66.016  1.00  0.00    -0.491 A  
ENDBRANCH   1   2
BRANCH   1   8
HETATM    8  C   UNL     1     -11.904  15.292  68.884  1.00  0.00    -0.320 C  
HETATM    9  N   UNL     1     -11.284  16.052  67.909  1.00  0.00    -0.316 N  
HETATM   10  H   UNL     1     -11.003  15.573  67.054  1.00  0.00     0.000 HD 
HETATM   11  O   UNL     1     -12.280  15.791  69.944  1.00  0.00    -0.352 OA 
BRANCH   9  12
HETATM   12  CA  UNL     1     -10.989  17.532  68.001  1.00  0.00    -0.134 C  
HETATM   13  N   UNL     1      -9.180  18.527  67.407  1.00  0.00    -0.277 N  
HETATM   14  CA  UNL     1      -7.864  18.080  66.865  1.00  0.00    -0.226 C  
HETATM   15  C   UNL     1      -6.734  18.942  67.469  1.00  0.00    -0.200 C  
HETATM   16  O   UNL     1     -10.602  18.352  65.566  1.00  0.00    -0.627 OA 
HETATM   17  C   UNL     1      -7.748  16.572  67.181  1.00  0.00    -0.180 C  
HETATM   18  OXT UNL     1      -5.543  18.673  67.425  1.00  0.00    -0.143 OA 
HETATM   19  O   UNL     1      -7.163  20.127  67.973  1.00  0.00    -0.285 OA 
HETATM   20  C   UNL     1     -10.350  18.227  66.742  1.00  0.00    -0.384 C  
HETATM   21  C   UNL     1      -6.351  15.947  67.213  1.00  0.00    -0.148 C  
HETATM   22  S   UNL     1      -8.500  16.415  68.868  1.00  0.00    -0.232 SA 
HETATM   23  C   UNL     1      -8.541  15.719  66.174  1.00  0.00    -0.212 C  
HETATM   24  C   UNL     1      -9.615  17.867  68.659  1.00  0.00    -0.328 C  
ENDBRANCH   9  12
ENDBRANCH   1   8
BRANCH   1  25
HETATM   25  N   UNL     1     -11.404  12.849  69.475  1.00  0.00    -0.447 N  
HETATM   26  H   UNL     1     -10.423  12.614  69.320  1.00  0.00     0.000 HD 
BRANCH  25  27
HETATM   27  C   UNL     1     -12.073  12.310  70.552  1.00  0.00    -0.282 C  
HETATM   28  O   UNL     1     -12.853  12.964  71.242  1.00  0.00    -0.356 OA 
BRANCH  27  29
HETATM   29  N   UNL     1     -11.850  10.961  70.786  1.00  0.00    -0.337 N  
HETATM   30  C   UNL     1     -12.818  10.160  71.514  1.00  0.00    -0.443 C  
HETATM   31  C   UNL     1     -12.294   8.734  71.436  1.00  0.00    -0.306 C  
HETATM   32  C   UNL     1     -10.916  10.125  70.166  1.00  0.00    -0.316 C  
HETATM   33  O   UNL     1     -10.008  10.464  69.426  1.00  0.00    -0.216 OA 
HETATM   34  N   UNL     1     -11.178   8.818  70.538  1.00  0.00    -0.256 NA 
ENDBRANCH  27  29
ENDBRANCH  25  27
ENDBRANCH   1  25
TORSDOF 6
ENDMDL
MODEL       13
REMARK 921   NORMALIZED FREE ENERGY PREDICTED BY IDOCK:   -6.74 KCAL/MOL
REMARK 922        TOTAL FREE ENERGY PREDICTED BY IDOCK:  -11.20 KCAL/MOL
REMARK 923 INTER-LIGAND FREE ENERGY PREDICTED BY IDOCK:  -10.08 KCAL/MOL
REMARK 924 INTRA-LIGAND FREE ENERGY PREDICTED BY IDOCK:   -1.13 KCAL/MOL
REMARK 927      BINDING AFFINITY PREDICTED BY RF-SCORE:    0.00 PKD
ROOT
HETATM    1  CA  UNL     1     -12.277  12.503  69.749  1.00  0.00    -0.132 C  
ENDROOT
BRANCH   1   2
HETATM    2  C   UNL     1     -12.339  13.540  70.875  1.00  0.00    -0.437 A  
HETATM    3  C   UNL     1     -11.762  15.768  71.661  1.00  0.00    -0.542 A  
HETATM    4  C   UNL     1     -12.688  15.654  72.695  1.00  0.00    -0.535 A  
HETATM    5  C   UNL     1     -13.388  14.464  72.868  1.00  0.00    -0.575 A  
HETATM    6  C   UNL     1     -11.584  14.718  70.760  1.00  0.00    -0.318 A  
HETATM    7  C   UNL     1     -13.206  13.409  71.973  1.00  0.00    -0.531 A  
ENDBRANCH   1   2
BRANCH   1   8
HETATM    8  C   UNL     1     -12.097  11.056  70.357  1.00  0.00    -0.373 C  
HETATM    9  N   UNL     1     -10.806  10.559  70.370  1.00  0.00    -0.447 N  
HETATM   10  H   UNL     1     -10.072  11.161  69.997  1.00  0.00     0.000 HD 
HETATM   11  O   UNL     1     -13.041  10.398  70.794  1.00  0.00    -0.385 OA 
BRANCH   9  12
HETATM   12  CA  UNL     1     -10.389   9.203  70.891  1.00  0.00    -0.280 C  
HETATM   13  N   UNL     1      -8.849   7.932  70.096  1.00  0.00    -0.143 N  
HETATM   14  CA  UNL     1      -7.929   8.003  68.924  1.00  0.00    -0.118 C  
HETATM   15  C   UNL     1      -7.754   6.596  68.315  1.00  0.00    -0.105 C  
HETATM   16  O   UNL     1      -7.902   9.431  71.611  1.00  0.00    -0.277 OA 
HETATM   17  C   UNL     1      -8.532   9.043  67.954  1.00  0.00    -0.121 C  
HETATM   18  OXT UNL     1      -7.274   6.359  67.216  1.00  0.00    -0.074 OA 
HETATM   19  O   UNL     1      -8.078   5.589  69.166  1.00  0.00    -0.093 OA 
HETATM   20  C   UNL     1      -8.847   8.927  71.051  1.00  0.00    -0.230 C  
HETATM   21  C   UNL     1      -8.119   8.981  66.482  1.00  0.00    -0.111 C  
HETATM   22  S   UNL     1     -10.357   8.745  68.065  1.00  0.00    -0.205 SA 
HETATM   23  C   UNL     1      -8.210  10.483  68.395  1.00  0.00    -0.121 C  
HETATM   24  C   UNL     1     -10.288   8.102  69.791  1.00  0.00    -0.216 C  
ENDBRANCH   9  12
ENDBRANCH   1   8
BRANCH   1  25
HETATM   25  N   UNL     1     -11.279  12.864  68.738  1.00  0.00    -0.263 N  
HETATM   26  H   UNL     1     -10.383  13.258  69.027  1.00  0.00     0.000 HD 
BRANCH  25  27
HETATM   27  C   UNL     1     -11.542  12.676  67.399  1.00  0.00    -0.360 C  
HETATM   28  O   UNL     1     -11.951  11.609  66.947  1.00  0.00    -0.567 OA 
BRANCH  27  29
HETATM   29  N   UNL     1     -11.362  13.788  66.587  1.00  0.00    -0.318 N  
HETATM   30  C   UNL     1     -10.105  14.515  66.587  1.00  0.00    -0.272 C  
HETATM   31  C   UNL     1     -10.248  15.554  65.484  1.00  0.00    -0.386 C  
HETATM   32  C   UNL     1     -12.143  14.193  65.501  1.00  0.00    -0.414 C  
HETATM   33  O   UNL     1     -13.226  13.740  65.169  1.00  0.00    -0.757 OA 
HETATM   34  N   UNL     1     -11.490  15.223  64.847  1.00  0.00    -0.370 NA 
ENDBRANCH  27  29
ENDBRANCH  25  27
ENDBRANCH   1  25
TORSDOF 6
ENDMDL
MODEL       14
REMARK 921   NORMALIZED FREE ENERGY PREDICTED BY IDOCK:   -6.74 KCAL/MOL
REMARK 922        TOTAL FREE ENERGY PREDICTED BY IDOCK:  -11.20 KCAL/MOL
REMARK 923 INTER-LIGAND FREE ENERGY PREDICTED BY IDOCK:   -9.49 KCAL/MOL
REMARK 924 INTRA-LIGAND FREE ENERGY PREDICTED BY IDOCK:   -1.72 KCAL/MOL
REMARK 927      BINDING AFFINITY PREDICTED BY RF-SCORE:    0.00 PKD
ROOT
HETATM    1  CA  UNL     1     -10.197  10.418  69.517  1.00  0.00    -0.231 C  
ENDROOT
BRANCH   1   2
HETATM    2  C   UNL     1     -11.250   9.881  70.490  1.00  0.00    -0.399 A  
HETATM    3  C   UNL     1     -11.819   8.293  72.242  1.00  0.00    -0.451 A  
HETATM    4  C   UNL     1     -12.948   9.041  72.568  1.00  0.00    -0.429 A  
HETATM    5  C   UNL     1     -13.273  10.166  71.816  1.00  0.00    -0.542 A  
HETATM    6  C   UNL     1     -10.978   8.705  71.208  1.00  0.00    -0.333 A  
HETATM    7  C   UNL     1     -12.437  10.576  70.776  1.00  0.00    -0.472 A  
ENDBRANCH   1   2
BRANCH   1   8
HETATM    8  C   UNL     1     -10.786  10.455  68.050  1.00  0.00    -0.270 C  
HETATM    9  N   UNL     1     -11.198  11.694  67.594  1.00  0.00    -0.260 N  
HETATM   10  H   UNL     1     -11.086  12.485  68.228  1.00  0.00     0.000 HD 
HETATM   11  O   UNL     1     -10.882   9.449  67.348  1.00  0.00    -0.263 OA 
BRANCH   9  12
HETATM   12  CA  UNL     1     -11.800  11.977  66.237  1.00  0.00    -0.148 C  
HETATM   13  N   UNL     1     -11.423  13.684  64.987  1.00  0.00    -0.317 N  
HETATM   14  CA  UNL     1     -10.612  14.929  65.125  1.00  0.00    -0.428 C  
HETATM   15  C   UNL     1     -11.365  16.112  64.479  1.00  0.00    -0.267 C  
HETATM   16  O   UNL     1      -9.818  12.047  64.558  1.00  0.00    -0.234 OA 
HETATM   17  C   UNL     1     -10.331  15.105  66.634  1.00  0.00    -0.274 C  
HETATM   18  OXT UNL     1     -11.093  17.293  64.642  1.00  0.00    -1.052 OA 
HETATM   19  O   UNL     1     -12.317  15.733  63.590  1.00  0.00    -0.579 OA 
HETATM   20  C   UNL     1     -10.827  12.444  65.091  1.00  0.00    -0.297 C  
HETATM   21  C   UNL     1      -9.973  16.503  67.143  1.00  0.00    -0.266 C  
HETATM   22  S   UNL     1     -11.909  14.571  67.444  1.00  0.00    -0.337 SA 
HETATM   23  C   UNL     1      -9.172  14.205  67.102  1.00  0.00    -0.237 C  
HETATM   24  C   UNL     1     -12.379  13.417  66.085  1.00  0.00    -0.380 C  
ENDBRANCH   9  12
ENDBRANCH   1   8
BRANCH   1  25
HETATM   25  N   UNL     1      -8.928   9.695  69.641  1.00  0.00    -0.187 N  
HETATM   26  H   UNL     1      -8.925   8.730  69.974  1.00  0.00     0.000 HD 
BRANCH  25  27
HETATM   27  C   UNL     1      -7.739  10.307  69.312  1.00  0.00    -0.130 C  
HETATM   28  O   UNL     1      -7.005  10.825  70.152  1.00  0.00    -0.173 OA 
BRANCH  27  29
HETATM   29  N   UNL     1      -7.390  10.263  67.970  1.00  0.00    -0.085 N  
HETATM   30  C   UNL     1      -6.662  11.357  67.352  1.00  0.00    -0.094 C  
HETATM   31  C   UNL     1      -6.346  10.879  65.942  1.00  0.00    -0.072 C  
HETATM   32  C   UNL     1      -7.384   9.152  67.121  1.00  0.00    -0.087 C  
HETATM   33  O   UNL     1      -7.846   8.048  67.356  1.00  0.00    -0.113 OA 
HETATM   34  N   UNL     1      -6.765   9.506  65.934  1.00  0.00    -0.080 NA 
ENDBRANCH  27  29
ENDBRANCH  25  27
ENDBRANCH   1  25
TORSDOF 6
ENDMDL
MODEL       15
REMARK 921   NORMALIZED FREE ENERGY PREDICTED BY IDOCK:   -6.73 KCAL/MOL
REMARK 922        TOTAL FREE ENERGY PREDICTED BY IDOCK:  -11.18 KCAL/MOL
REMARK 923 INTER-LIGAND FREE ENERGY PREDICTED BY IDOCK:   -9.77 KCAL/MOL
REMARK 924 INTRA-LIGAND FREE ENERGY PREDICTED BY IDOCK:   -1.41 KCAL/MOL
REMARK 927      BINDING AFFINITY PREDICTED BY RF-SCORE:    0.00 PKD
ROOT
HETATM    1  CA  UNL     1     -12.155  13.580  69.842  1.00  0.00    -0.341 C  
ENDROOT
BRANCH   1   2
HETATM    2  C   UNL     1     -12.499  14.498  71.019  1.00  0.00    -0.412 A  
HETATM    3  C   UNL     1     -14.219  15.534  72.392  1.00  0.00    -0.571 A  
HETATM    4  C   UNL     1     -13.270  15.851  73.360  1.00  0.00    -0.668 A  
HETATM    5  C   UNL     1     -11.928  15.560  73.134  1.00  0.00    -0.577 A  
HETATM    6  C   UNL     1     -13.838  14.867  71.227  1.00  0.00    -0.500 A  
HETATM    7  C   UNL     1     -11.543  14.900  71.966  1.00  0.00    -0.314 A  
ENDBRANCH   1   2
BRANCH   1   8
HETATM    8  C   UNL     1     -11.991  12.092  70.348  1.00  0.00    -0.291 C  
HETATM    9  N   UNL     1     -10.957  11.369  69.782  1.00  0.00    -0.467 N  
HETATM   10  H   UNL     1     -10.379  11.847  69.091  1.00  0.00     0.000 HD 
HETATM   11  O   UNL     1     -12.733  11.593  71.194  1.00  0.00    -0.381 OA 
BRANCH   9  12
HETATM   12  CA  UNL     1     -10.609   9.933  70.097  1.00  0.00    -0.297 C  
HETATM   13  N   UNL     1      -9.198   8.687  69.061  1.00  0.00    -0.145 N  
HETATM   14  CA  UNL     1      -8.329   8.858  67.860  1.00  0.00    -0.118 C  
HETATM   15  C   UNL     1      -8.279   7.536  67.064  1.00  0.00    -0.124 C  
HETATM   16  O   UNL     1      -8.082   9.909  70.705  1.00  0.00    -0.240 OA 
HETATM   17  C   UNL     1      -8.904  10.053  67.068  1.00  0.00    -0.138 C  
HETATM   18  OXT UNL     1      -7.867   7.419  65.919  1.00  0.00    -0.094 OA 
HETATM   19  O   UNL     1      -8.631   6.447  67.793  1.00  0.00    -0.117 OA 
HETATM   20  C   UNL     1      -9.084   9.543  70.136  1.00  0.00    -0.240 C  
HETATM   21  C   UNL     1      -8.565  10.163  65.580  1.00  0.00    -0.162 C  
HETATM   22  S   UNL     1     -10.739   9.855  67.239  1.00  0.00    -0.192 SA 
HETATM   23  C   UNL     1      -8.465  11.399  67.675  1.00  0.00    -0.130 C  
HETATM   24  C   UNL     1     -10.634   8.984  68.860  1.00  0.00    -0.180 C  
ENDBRANCH   9  12
ENDBRANCH   1   8
BRANCH   1  25
HETATM   25  N   UNL     1     -11.014  14.090  69.076  1.00  0.00    -0.257 N  
HETATM   26  H   UNL     1     -10.066  13.820  69.339  1.00  0.00     0.000 HD 
BRANCH  25  27
HETATM   27  C   UNL     1     -11.213  14.929  68.002  1.00  0.00    -0.308 C  
HETATM   28  O   UNL     1     -11.409  16.136  68.132  1.00  0.00    -0.340 OA 
BRANCH  27  29
HETATM   29  N   UNL     1     -11.128  14.337  66.750  1.00  0.00    -0.307 N  
HETATM   30  C   UNL     1     -12.184  13.469  66.262  1.00  0.00    -0.416 C  
HETATM   31  C   UNL     1     -11.800  13.142  64.827  1.00  0.00    -0.369 C  
HETATM   32  C   UNL     1     -10.267  14.671  65.699  1.00  0.00    -0.359 C  
HETATM   33  O   UNL     1      -9.315  15.431  65.746  1.00  0.00    -0.325 OA 
HETATM   34  N   UNL     1     -10.663  13.979  64.568  1.00  0.00    -0.391 NA 
ENDBRANCH  27  29
ENDBRANCH  25  27
ENDBRANCH   1  25
TORSDOF 6
ENDMDL
MODEL       16
REMARK 921   NORMALIZED FREE ENERGY PREDICTED BY IDOCK:   -6.71 KCAL/MOL
REMARK 922        TOTAL FREE ENERGY PREDICTED BY IDOCK:  -11.15 KCAL/MOL
REMARK 923 INTER-LIGAND FREE ENERGY PREDICTED BY IDOCK:   -9.01 KCAL/MOL
REMARK 924 INTRA-LIGAND FREE ENERGY PREDICTED BY IDOCK:   -2.14 KCAL/MOL
REMARK 927      BINDING AFFINITY PREDICTED BY RF-SCORE:    0.00 PKD
ROOT
HETATM    1  CA  UNL     1     -10.730  13.743  67.362  1.00  0.00    -0.275 C  
ENDROOT
BRANCH   1   2
HETATM    2  C   UNL     1     -11.056  13.078  66.022  1.00  0.00    -0.301 A  
HETATM    3  C   UNL     1     -12.749  12.428  64.400  1.00  0.00    -0.434 A  
HETATM    4  C   UNL     1     -11.763  12.223  63.438  1.00  0.00    -0.542 A  
HETATM    5  C   UNL     1     -10.422  12.374  63.778  1.00  0.00    -0.475 A  
HETATM    6  C   UNL     1     -12.399  12.847  65.685  1.00  0.00    -0.482 A  
HETATM    7  C   UNL     1     -10.070  12.786  65.065  1.00  0.00    -0.239 A  
ENDBRANCH   1   2
BRANCH   1   8
HETATM    8  C   UNL     1      -9.403  13.127  67.961  1.00  0.00    -0.219 C  
HETATM    9  N   UNL     1      -9.505  11.845  68.470  1.00  0.00    -0.312 N  
HETATM   10  H   UNL     1     -10.418  11.394  68.415  1.00  0.00     0.000 HD 
HETATM   11  O   UNL     1      -8.337  13.742  67.983  1.00  0.00    -0.149 OA 
BRANCH   9  12
HETATM   12  CA  UNL     1      -8.381  11.054  69.099  1.00  0.00    -0.026 C  
HETATM   13  N   UNL     1      -7.856   9.011  68.696  1.00  0.00    -0.100 N  
HETATM   14  CA  UNL     1      -8.422   7.930  67.838  1.00  0.00    -0.126 C  
HETATM   15  C   UNL     1      -8.302   6.573  68.565  1.00  0.00    -0.121 C  
HETATM   16  O   UNL     1      -6.776  10.399  67.164  1.00  0.00    -0.075 OA 
HETATM   17  C   UNL     1      -9.872   8.346  67.507  1.00  0.00    -0.181 C  
HETATM   18  OXT UNL     1      -8.889   5.549  68.246  1.00  0.00    -0.106 OA 
HETATM   19  O   UNL     1      -7.374   6.565  69.555  1.00  0.00    -0.086 OA 
HETATM   20  C   UNL     1      -7.459  10.210  68.143  1.00  0.00    -0.083 C  
HETATM   21  C   UNL     1     -10.858   7.253  67.085  1.00  0.00    -0.378 C  
HETATM   22  S   UNL     1     -10.483   9.111  69.080  1.00  0.00    -0.204 SA 
HETATM   23  C   UNL     1      -9.919   9.382  66.369  1.00  0.00    -0.346 C  
HETATM   24  C   UNL     1      -8.809   9.652  69.630  1.00  0.00    -0.201 C  
ENDBRANCH   9  12
ENDBRANCH   1   8
BRANCH   1  25
HETATM   25  N   UNL     1     -11.877  13.713  68.273  1.00  0.00    -0.357 N  
HETATM   26  H   UNL     1     -12.568  12.966  68.195  1.00  0.00     0.000 HD 
BRANCH  25  27
HETATM   27  C   UNL     1     -12.031  14.686  69.236  1.00  0.00    -0.302 C  
HETATM   28  O   UNL     1     -11.738  15.864  69.041  1.00  0.00    -0.385 OA 
BRANCH  27  29
HETATM   29  N   UNL     1     -12.588  14.265  70.435  1.00  0.00    -0.351 N  
HETATM   30  C   UNL     1     -13.513  15.113  71.167  1.00  0.00    -0.465 C  
HETATM   31  C   UNL     1     -14.005  14.258  72.325  1.00  0.00    -0.531 C  
HETATM   32  C   UNL     1     -12.621  12.968  70.958  1.00  0.00    -0.299 C  
HETATM   33  O   UNL     1     -12.018  11.995  70.539  1.00  0.00    -0.351 OA 
HETATM   34  N   UNL     1     -13.457  12.958  72.061  1.00  0.00    -0.507 NA 
ENDBRANCH  27  29
ENDBRANCH  25  27
ENDBRANCH   1  25
TORSDOF 6
ENDMDL
MODEL       17
REMARK 921   NORMALIZED FREE ENERGY PREDICTED BY IDOCK:   -6.68 KCAL/MOL
REMARK 922        TOTAL FREE ENERGY PREDICTED BY IDOCK:  -11.11 KCAL/MOL
REMARK 923 INTER-LIGAND FREE ENERGY PREDICTED BY IDOCK:  -10.31 KCAL/MOL
REMARK 924 INTRA-LIGAND FREE ENERGY PREDICTED BY IDOCK:   -0.81 KCAL/MOL
REMARK 927      BINDING AFFINITY PREDICTED BY RF-SCORE:    0.00 PKD
ROOT
HETATM    1  CA  UNL     1     -11.040  10.381  69.227  1.00  0.00    -0.253 C  
ENDROOT
BRANCH   1   2
HETATM    2  C   UNL     1     -11.946  11.254  70.100  1.00  0.00    -0.452 A  
HETATM    3  C   UNL     1     -13.563  11.378  71.913  1.00  0.00    -0.099 A  
HETATM    4  C   UNL     1     -13.366  12.754  72.008  1.00  0.00    -0.565 A  
HETATM    5  C   UNL     1     -12.519  13.394  71.109  1.00  0.00    -0.414 A  
HETATM    6  C   UNL     1     -12.863  10.633  70.964  1.00  0.00    -0.496 A  
HETATM    7  C   UNL     1     -11.823  12.652  70.154  1.00  0.00    -0.326 A  
ENDBRANCH   1   2
BRANCH   1   8
HETATM    8  C   UNL     1     -11.205  10.785  67.707  1.00  0.00    -0.316 C  
HETATM    9  N   UNL     1     -11.807  12.006  67.466  1.00  0.00    -0.277 N  
HETATM   10  H   UNL     1     -12.091  12.554  68.278  1.00  0.00     0.000 HD 
HETATM   11  O   UNL     1     -10.827  10.063  66.784  1.00  0.00    -0.140 OA 
BRANCH   9  12
HETATM   12  CA  UNL     1     -12.080  12.600  66.103  1.00  0.00    -0.333 C  
HETATM   13  N   UNL     1     -11.184  14.360  65.257  1.00  0.00    -0.329 N  
HETATM   14  CA  UNL     1     -10.214  15.383  65.745  1.00  0.00    -0.354 C  
HETATM   15  C   UNL     1     -10.615  16.775  65.210  1.00  0.00    -0.168 C  
HETATM   16  O   UNL     1      -9.832  12.515  64.804  1.00  0.00    -0.179 OA 
HETATM   17  C   UNL     1     -10.200  15.276  67.286  1.00  0.00    -0.248 C  
HETATM   18  OXT UNL     1     -10.181  17.840  65.624  1.00  0.00    -0.590 OA 
HETATM   19  O   UNL     1     -11.431  16.728  64.126  1.00  0.00    -1.171 OA 
HETATM   20  C   UNL     1     -10.841  13.025  65.231  1.00  0.00    -0.291 C  
HETATM   21  C   UNL     1      -9.713  16.485  68.088  1.00  0.00    -0.234 C  
HETATM   22  S   UNL     1     -11.972  14.958  67.723  1.00  0.00    -0.034 SA 
HETATM   23  C   UNL     1      -9.325  14.104  67.765  1.00  0.00    -0.200 C  
HETATM   24  C   UNL     1     -12.365  14.133  66.122  1.00  0.00    -0.436 C  
ENDBRANCH   9  12
ENDBRANCH   1   8
BRANCH   1  25
HETATM   25  N   UNL     1     -11.237   8.955  69.500  1.00  0.00    -0.436 N  
HETATM   26  H   UNL     1     -12.171   8.551  69.435  1.00  0.00     0.000 HD 
BRANCH  25  27
HETATM   27  C   UNL     1     -10.169   8.155  69.843  1.00  0.00    -0.204 C  
HETATM   28  O   UNL     1      -9.325   7.790  69.027  1.00  0.00    -0.150 OA 
BRANCH  27  29
HETATM   29  N   UNL     1     -10.073   7.822  71.187  1.00  0.00    -0.187 N  
HETATM   30  C   UNL     1      -8.920   8.222  71.973  1.00  0.00    -0.196 C  
HETATM   31  C   UNL     1      -9.248   7.806  73.400  1.00  0.00    -0.284 C  
HETATM   32  C   UNL     1     -11.089   7.368  72.033  1.00  0.00    -0.242 C  
HETATM   33  O   UNL     1     -12.211   7.018  71.708  1.00  0.00    -0.318 OA 
HETATM   34  N   UNL     1     -10.613   7.365  73.333  1.00  0.00    -0.383 NA 
ENDBRANCH  27  29
ENDBRANCH  25  27
ENDBRANCH   1  25
TORSDOF 6
ENDMDL
MODEL       18
REMARK 921   NORMALIZED FREE ENERGY PREDICTED BY IDOCK:   -6.63 KCAL/MOL
REMARK 922        TOTAL FREE ENERGY PREDICTED BY IDOCK:  -11.05 KCAL/MOL
REMARK 923 INTER-LIGAND FREE ENERGY PREDICTED BY IDOCK:   -9.58 KCAL/MOL
REMARK 924 INTRA-LIGAND FREE ENERGY PREDICTED BY IDOCK:   -1.48 KCAL/MOL
REMARK 927      BINDING AFFINITY PREDICTED BY RF-SCORE:    0.00 PKD
ROOT
HETATM    1  CA  UNL     1     -10.063   9.770  68.785  1.00  0.00    -0.174 C  
ENDROOT
BRANCH   1   2
HETATM    2  C   UNL     1     -10.973   9.722  70.016  1.00  0.00    -0.319 A  
HETATM    3  C   UNL     1     -13.152  10.191  70.989  1.00  0.00    -0.458 A  
HETATM    4  C   UNL     1     -12.858   9.364  72.071  1.00  0.00    -0.496 A  
HETATM    5  C   UNL     1     -11.603   8.771  72.167  1.00  0.00    -0.434 A  
HETATM    6  C   UNL     1     -12.215  10.374  69.971  1.00  0.00    -0.262 A  
HETATM    7  C   UNL     1     -10.661   8.959  71.154  1.00  0.00    -0.333 A  
ENDBRANCH   1   2
BRANCH   1   8
HETATM    8  C   UNL     1      -9.161  11.068  68.831  1.00  0.00    -0.129 C  
HETATM    9  N   UNL     1      -9.783  12.252  68.480  1.00  0.00    -0.340 N  
HETATM   10  H   UNL     1     -10.770  12.202  68.227  1.00  0.00     0.000 HD 
HETATM   11  O   UNL     1      -7.974  11.039  69.155  1.00  0.00    -0.138 OA 
BRANCH   9  12
HETATM   12  CA  UNL     1      -9.128  13.614  68.440  1.00  0.00    -0.165 C  
HETATM   13  N   UNL     1      -9.842  15.361  67.414  1.00  0.00    -0.216 N  
HETATM   14  CA  UNL     1     -11.001  15.656  66.522  1.00  0.00    -0.206 C  
HETATM   15  C   UNL     1     -10.566  16.637  65.412  1.00  0.00    -0.237 C  
HETATM   16  O   UNL     1     -10.810  15.266  69.534  1.00  0.00    -0.242 OA 
HETATM   17  C   UNL     1     -11.511  14.294  66.000  1.00  0.00    -0.347 C  
HETATM   18  OXT UNL     1     -11.199  16.875  64.395  1.00  0.00    -1.159 OA 
HETATM   19  O   UNL     1      -9.439  17.332  65.710  1.00  0.00    -0.527 OA 
HETATM   20  C   UNL     1     -10.043  14.870  68.687  1.00  0.00    -0.237 C  
HETATM   21  C   UNL     1     -12.335  14.279  64.711  1.00  0.00    -0.440 C  
HETATM   22  S   UNL     1      -9.961  13.320  65.717  1.00  0.00    -0.211 SA 
HETATM   23  C   UNL     1     -12.393  13.582  67.043  1.00  0.00    -0.260 C  
HETATM   24  C   UNL     1      -8.996  14.215  67.008  1.00  0.00    -0.237 C  
ENDBRANCH   9  12
ENDBRANCH   1   8
BRANCH   1  25
HETATM   25  N   UNL     1     -10.825   9.606  67.543  1.00  0.00    -0.391 N  
HETATM   26  H   UNL     1     -11.832   9.768  67.542  1.00  0.00     0.000 HD 
BRANCH  25  27
HETATM   27  C   UNL     1     -10.191   9.234  66.378  1.00  0.00    -0.228 C  
HETATM   28  O   UNL     1     -10.125   9.971  65.396  1.00  0.00    -0.310 OA 
BRANCH  27  29
HETATM   29  N   UNL     1      -9.584   7.986  66.394  1.00  0.00    -0.214 N  
HETATM   30  C   UNL     1      -8.147   7.855  66.235  1.00  0.00    -0.110 C  
HETATM   31  C   UNL     1      -7.857   6.377  66.451  1.00  0.00    -0.104 C  
HETATM   32  C   UNL     1     -10.124   6.775  66.835  1.00  0.00    -0.202 C  
HETATM   33  O   UNL     1     -11.287   6.556  67.130  1.00  0.00    -0.333 OA 
HETATM   34  N   UNL     1      -9.114   5.830  66.878  1.00  0.00    -0.116 NA 
ENDBRANCH  27  29
ENDBRANCH  25  27
ENDBRANCH   1  25
TORSDOF 6
ENDMDL
MODEL       19
REMARK 921   NORMALIZED FREE ENERGY PREDICTED BY IDOCK:   -6.59 KCAL/MOL
REMARK 922        TOTAL FREE ENERGY PREDICTED BY IDOCK:  -11.00 KCAL/MOL
REMARK 923 INTER-LIGAND FREE ENERGY PREDICTED BY IDOCK:   -9.59 KCAL/MOL
REMARK 924 INTRA-LIGAND FREE ENERGY PREDICTED BY IDOCK:   -1.41 KCAL/MOL
REMARK 927      BINDING AFFINITY PREDICTED BY RF-SCORE:    0.00 PKD
ROOT
HETATM    1  CA  UNL     1     -12.257  11.183  70.200  1.00  0.00    -0.337 C  
ENDROOT
BRANCH   1   2
HETATM    2  C   UNL     1     -12.523  12.529  70.881  1.00  0.00    -0.361 A  
HETATM    3  C   UNL     1     -12.499  14.956  70.732  1.00  0.00    -0.401 A  
HETATM    4  C   UNL     1     -13.306  15.044  71.864  1.00  0.00    -0.475 A  
HETATM    5  C   UNL     1     -13.666  13.887  72.548  1.00  0.00    -0.665 A  
HETATM    6  C   UNL     1     -12.105  13.709  70.247  1.00  0.00    -0.427 A  
HETATM    7  C   UNL     1     -13.267  12.638  72.068  1.00  0.00    -0.531 A  
ENDBRANCH   1   2
BRANCH   1   8
HETATM    8  C   UNL     1     -12.632   9.999  71.178  1.00  0.00    -0.381 C  
HETATM    9  N   UNL     1     -11.568   9.316  71.739  1.00  0.00    -0.385 N  
HETATM   10  H   UNL     1     -10.630   9.628  71.488  1.00  0.00     0.000 HD 
HETATM   11  O   UNL     1     -13.796   9.691  71.430  1.00  0.00    -0.273 OA 
BRANCH   9  12
HETATM   12  CA  UNL     1     -11.676   8.148  72.692  1.00  0.00    -0.355 C  
HETATM   13  N   UNL     1     -10.569   6.308  72.609  1.00  0.00    -0.208 N  
HETATM   14  CA  UNL     1      -9.563   5.728  71.673  1.00  0.00    -0.153 C  
HETATM   15  C   UNL     1      -9.801   4.209  71.531  1.00  0.00    -0.184 C  
HETATM   16  O   UNL     1      -9.339   7.892  73.800  1.00  0.00    -0.280 OA 
HETATM   17  C   UNL     1      -9.689   6.515  70.350  1.00  0.00    -0.172 C  
HETATM   18  OXT UNL     1      -9.319   3.498  70.662  1.00  0.00    -0.130 OA 
HETATM   19  O   UNL     1     -10.523   3.673  72.548  1.00  0.00    -0.157 OA 
HETATM   20  C   UNL     1     -10.336   7.519  73.227  1.00  0.00    -0.357 C  
HETATM   21  C   UNL     1      -9.174   5.857  69.067  1.00  0.00    -0.132 C  
HETATM   22  S   UNL     1     -11.512   6.796  70.174  1.00  0.00    -0.330 SA 
HETATM   23  C   UNL     1      -8.957   7.868  70.423  1.00  0.00    -0.147 C  
HETATM   24  C   UNL     1     -11.833   6.765  71.989  1.00  0.00    -0.314 C  
ENDBRANCH   9  12
ENDBRANCH   1   8
BRANCH   1  25
HETATM   25  N   UNL     1     -10.897  11.113  69.656  1.00  0.00    -0.427 N  
HETATM   26  H   UNL     1     -10.098  11.292  70.265  1.00  0.00     0.000 HD 
BRANCH  25  27
HETATM   27  C   UNL     1     -10.690  10.807  68.329  1.00  0.00    -0.213 C  
HETATM   28  O   UNL     1     -10.661   9.651  67.913  1.00  0.00    -0.251 OA 
BRANCH  27  29
HETATM   29  N   UNL     1     -10.562  11.892  67.473  1.00  0.00    -0.213 N  
HETATM   30  C   UNL     1     -11.611  12.221  66.525  1.00  0.00    -0.377 C  
HETATM   31  C   UNL     1     -11.173  13.530  65.885  1.00  0.00    -0.300 C  
HETATM   32  C   UNL     1      -9.654  12.951  67.560  1.00  0.00    -0.200 C  
HETATM   33  O   UNL     1      -8.692  13.032  68.306  1.00  0.00    -0.186 OA 
HETATM   34  N   UNL     1     -10.013  13.918  66.636  1.00  0.00    -0.271 NA 
ENDBRANCH  27  29
ENDBRANCH  25  27
ENDBRANCH   1  25
TORSDOF 6
ENDMDL
MODEL       20
REMARK 921   NORMALIZED FREE ENERGY PREDICTED BY IDOCK:   -6.59 KCAL/MOL
REMARK 922        TOTAL FREE ENERGY PREDICTED BY IDOCK:  -10.99 KCAL/MOL
REMARK 923 INTER-LIGAND FREE ENERGY PREDICTED BY IDOCK:   -9.58 KCAL/MOL
REMARK 924 INTRA-LIGAND FREE ENERGY PREDICTED BY IDOCK:   -1.41 KCAL/MOL
REMARK 927      BINDING AFFINITY PREDICTED BY RF-SCORE:    0.00 PKD
ROOT
HETATM    1  CA  UNL     1     -11.533  12.789  68.920  1.00  0.00    -0.305 C  
ENDROOT
BRANCH   1   2
HETATM    2  C   UNL     1     -11.708  12.809  67.399  1.00  0.00    -0.425 A  
HETATM    3  C   UNL     1     -12.254  14.087  65.403  1.00  0.00    -0.453 A  
HETATM    4  C   UNL     1     -11.708  13.088  64.601  1.00  0.00    -0.408 A  
HETATM    5  C   UNL     1     -11.227  11.920  65.184  1.00  0.00    -0.346 A  
HETATM    6  C   UNL     1     -12.260  13.948  66.791  1.00  0.00    -0.438 A  
HETATM    7  C   UNL     1     -11.238  11.775  66.572  1.00  0.00    -0.380 A  
ENDBRANCH   1   2
BRANCH   1   8
HETATM    8  C   UNL     1     -11.902  11.360  69.487  1.00  0.00    -0.357 C  
HETATM    9  N   UNL     1     -10.879  10.675  70.116  1.00  0.00    -0.451 N  
HETATM   10  H   UNL     1      -9.973  11.140  70.174  1.00  0.00     0.000 HD 
HETATM   11  O   UNL     1     -13.027  10.874  69.378  1.00  0.00    -0.088 OA 
BRANCH   9  12
HETATM   12  CA  UNL     1     -10.986   9.296  70.726  1.00  0.00    -0.284 C  
HETATM   13  N   UNL     1      -9.566   7.693  70.556  1.00  0.00    -0.168 N  
HETATM   14  CA  UNL     1      -8.276   7.505  69.829  1.00  0.00    -0.128 C  
HETATM   15  C   UNL     1      -8.184   6.057  69.302  1.00  0.00    -0.115 C  
HETATM   16  O   UNL     1      -8.972   9.058  72.352  1.00  0.00    -0.326 OA 
HETATM   17  C   UNL     1      -8.232   8.585  68.726  1.00  0.00    -0.122 C  
HETATM   18  OXT UNL     1      -7.384   5.661  68.467  1.00  0.00    -0.073 OA 
HETATM   19  O   UNL     1      -9.011   5.191  69.941  1.00  0.00    -0.104 OA 
HETATM   20  C   UNL     1      -9.717   8.723  71.460  1.00  0.00    -0.291 C  
HETATM   21  C   UNL     1      -7.314   8.351  67.524  1.00  0.00    -0.093 C  
HETATM   22  S   UNL     1      -9.981   8.671  68.120  1.00  0.00    -0.185 SA 
HETATM   23  C   UNL     1      -7.805   9.954  69.289  1.00  0.00    -0.117 C  
HETATM   24  C   UNL     1     -10.710   8.133  69.725  1.00  0.00    -0.229 C  
ENDBRANCH   9  12
ENDBRANCH   1   8
BRANCH   1  25
HETATM   25  N   UNL     1     -12.247  13.898  69.560  1.00  0.00    -0.336 N  
HETATM   26  H   UNL     1     -13.255  13.990  69.436  1.00  0.00     0.000 HD 
BRANCH  25  27
HETATM   27  C   UNL     1     -11.566  14.816  70.329  1.00  0.00    -0.282 C  
HETATM   28  O   UNL     1     -10.644  15.498  69.886  1.00  0.00    -0.273 OA 
BRANCH  27  29
HETATM   29  N   UNL     1     -12.019  14.964  71.633  1.00  0.00    -0.349 N  
HETATM   30  C   UNL     1     -11.832  16.213  72.350  1.00  0.00    -0.538 C  
HETATM   31  C   UNL     1     -12.577  16.032  73.664  1.00  0.00    -0.592 C  
HETATM   32  C   UNL     1     -12.922  14.152  72.325  1.00  0.00    -0.382 C  
HETATM   33  O   UNL     1     -13.350  13.066  71.971  1.00  0.00    -0.467 OA 
HETATM   34  N   UNL     1     -13.259  14.778  73.513  1.00  0.00    -0.476 NA 
ENDBRANCH  27  29
ENDBRANCH  25  27
ENDBRANCH   1  25
TORSDOF 6
ENDMDL
MODEL       21
REMARK 921   NORMALIZED FREE ENERGY PREDICTED BY IDOCK:   -6.56 KCAL/MOL
REMARK 922        TOTAL FREE ENERGY PREDICTED BY IDOCK:  -10.96 KCAL/MOL
REMARK 923 INTER-LIGAND FREE ENERGY PREDICTED BY IDOCK:   -9.17 KCAL/MOL
REMARK 924 INTRA-LIGAND FREE ENERGY PREDICTED BY IDOCK:   -1.79 KCAL/MOL
REMARK 927      BINDING AFFINITY PREDICTED BY RF-SCORE:    0.00 PKD
ROOT
HETATM    1  CA  UNL     1     -10.550  10.820  69.417  1.00  0.00    -0.221 C  
ENDROOT
BRANCH   1   2
HETATM    2  C   UNL     1     -11.533  10.140  70.376  1.00  0.00    -0.400 A  
HETATM    3  C   UNL     1     -11.989   8.295  71.894  1.00  0.00    -0.383 A  
HETATM    4  C   UNL     1     -13.075   8.988  72.425  1.00  0.00    -0.487 A  
HETATM    5  C   UNL     1     -13.438  10.220  71.890  1.00  0.00    -0.403 A  
HETATM    6  C   UNL     1     -11.226   8.863  70.874  1.00  0.00    -0.334 A  
HETATM    7  C   UNL     1     -12.680  10.787  70.863  1.00  0.00    -0.478 A  
ENDBRANCH   1   2
BRANCH   1   8
HETATM    8  C   UNL     1     -11.341  11.689  68.361  1.00  0.00    -0.279 C  
HETATM    9  N   UNL     1     -11.234  13.060  68.502  1.00  0.00    -0.256 N  
HETATM   10  H   UNL     1     -10.653  13.406  69.265  1.00  0.00     0.000 HD 
HETATM   11  O   UNL     1     -12.019  11.188  67.463  1.00  0.00    -0.580 OA 
BRANCH   9  12
HETATM   12  CA  UNL     1     -11.904  14.092  67.623  1.00  0.00    -0.395 C  
HETATM   13  N   UNL     1     -10.937  15.578  66.409  1.00  0.00    -0.283 N  
HETATM   14  CA  UNL     1      -9.522  15.988  66.177  1.00  0.00    -0.336 C  
HETATM   15  C   UNL     1      -9.444  17.522  66.023  1.00  0.00    -0.070 C  
HETATM   16  O   UNL     1     -11.126  13.597  65.193  1.00  0.00    -0.301 OA 
HETATM   17  C   UNL     1      -8.703  15.427  67.361  1.00  0.00    -0.179 C  
HETATM   18  OXT UNL     1      -8.417  18.183  66.075  1.00  0.00    -0.496 OA 
HETATM   19  O   UNL     1     -10.629  18.099  65.700  1.00  0.00    -0.611 OA 
HETATM   20  C   UNL     1     -11.342  14.283  66.165  1.00  0.00    -0.342 C  
HETATM   21  C   UNL     1      -7.356  16.079  67.680  1.00  0.00    -0.173 C  
HETATM   22  S   UNL     1      -9.823  15.651  68.820  1.00  0.00    -0.225 SA 
HETATM   23  C   UNL     1      -8.384  13.932  67.172  1.00  0.00    -0.171 C  
HETATM   24  C   UNL     1     -11.371  15.543  67.824  1.00  0.00    -0.286 C  
ENDBRANCH   9  12
ENDBRANCH   1   8
BRANCH   1  25
HETATM   25  N   UNL     1      -9.614   9.856  68.830  1.00  0.00    -0.165 N  
HETATM   26  H   UNL     1      -9.776   8.856  68.948  1.00  0.00     0.000 HD 
BRANCH  25  27
HETATM   27  C   UNL     1      -8.517  10.291  68.121  1.00  0.00    -0.123 C  
HETATM   28  O   UNL     1      -7.534  10.794  68.662  1.00  0.00    -0.088 OA 
BRANCH  27  29
HETATM   29  N   UNL     1      -8.564  10.082  66.749  1.00  0.00    -0.125 N  
HETATM   30  C   UNL     1      -7.538  10.624  65.876  1.00  0.00    -0.138 C  
HETATM   31  C   UNL     1      -7.855  10.067  64.496  1.00  0.00    -0.145 C  
HETATM   32  C   UNL     1      -9.337   9.151  66.049  1.00  0.00    -0.238 C  
HETATM   33  O   UNL     1     -10.240   8.464  66.498  1.00  0.00    -0.293 OA 
HETATM   34  N   UNL     1      -8.919   9.132  64.730  1.00  0.00    -0.170 NA 
ENDBRANCH  27  29
ENDBRANCH  25  27
ENDBRANCH   1  25
TORSDOF 6
ENDMDL
MODEL       22
REMARK 921   NORMALIZED FREE ENERGY PREDICTED BY IDOCK:   -6.56 KCAL/MOL
REMARK 922        TOTAL FREE ENERGY PREDICTED BY IDOCK:  -10.95 KCAL/MOL
REMARK 923 INTER-LIGAND FREE ENERGY PREDICTED BY IDOCK:   -9.58 KCAL/MOL
REMARK 924 INTRA-LIGAND FREE ENERGY PREDICTED BY IDOCK:   -1.37 KCAL/MOL
REMARK 927      BINDING AFFINITY PREDICTED BY RF-SCORE:    0.00 PKD
ROOT
HETATM    1  CA  UNL     1     -10.783  16.003  68.959  1.00  0.00    -0.274 C  
ENDROOT
BRANCH   1   2
HETATM    2  C   UNL     1     -11.651  15.493  70.114  1.00  0.00    -0.355 A  
HETATM    3  C   UNL     1     -11.880  15.102  72.504  1.00  0.00    -0.485 A  
HETATM    4  C   UNL     1     -13.256  14.940  72.356  1.00  0.00    -0.476 A  
HETATM    5  C   UNL     1     -13.824  14.982  71.086  1.00  0.00    -0.468 A  
HETATM    6  C   UNL     1     -11.082  15.371  71.392  1.00  0.00    -0.319 A  
HETATM    7  C   UNL     1     -13.026  15.244  69.971  1.00  0.00    -0.026 A  
ENDBRANCH   1   2
BRANCH   1   8
HETATM    8  C   UNL     1     -10.977  15.080  67.691  1.00  0.00    -0.305 C  
HETATM    9  N   UNL     1     -10.043  14.075  67.524  1.00  0.00    -0.235 N  
HETATM   10  H   UNL     1      -9.310  13.999  68.229  1.00  0.00     0.000 HD 
HETATM   11  O   UNL     1     -11.898  15.239  66.890  1.00  0.00    -0.112 OA 
BRANCH   9  12
HETATM   12  CA  UNL     1     -10.015  13.077  66.389  1.00  0.00    -0.277 C  
HETATM   13  N   UNL     1     -10.548  10.998  66.482  1.00  0.00    -0.258 N  
HETATM   14  CA  UNL     1     -10.979  10.071  67.569  1.00  0.00    -0.212 C  
HETATM   15  C   UNL     1     -10.354   8.678  67.342  1.00  0.00    -0.284 C  
HETATM   16  O   UNL     1     -12.463  12.264  66.069  1.00  0.00    -0.503 OA 
HETATM   17  C   UNL     1     -10.573  10.738  68.902  1.00  0.00    -0.216 C  
HETATM   18  OXT UNL     1     -10.307   7.783  68.173  1.00  0.00    -0.197 OA 
HETATM   19  O   UNL     1      -9.944   8.466  66.066  1.00  0.00    -0.153 OA 
HETATM   20  C   UNL     1     -11.268  12.142  66.209  1.00  0.00    -0.334 C  
HETATM   21  C   UNL     1     -10.419   9.847  70.137  1.00  0.00    -0.339 C  
HETATM   22  S   UNL     1      -8.932  11.512  68.527  1.00  0.00    -0.109 SA 
HETATM   23  C   UNL     1     -11.580  11.825  69.321  1.00  0.00    -0.378 C  
HETATM   24  C   UNL     1      -9.292  11.740  66.734  1.00  0.00    -0.194 C  
ENDBRANCH   9  12
ENDBRANCH   1   8
BRANCH   1  25
HETATM   25  N   UNL     1      -9.388  16.183  69.371  1.00  0.00    -0.230 N  
HETATM   26  H   UNL     1      -9.006  15.617  70.129  1.00  0.00     0.000 HD 
BRANCH  25  27
HETATM   27  C   UNL     1      -8.588  17.111  68.741  1.00  0.00    -0.236 C  
HETATM   28  O   UNL     1      -7.371  17.159  68.909  1.00  0.00    -0.232 OA 
BRANCH  27  29
HETATM   29  N   UNL     1      -9.235  17.966  67.860  1.00  0.00    -0.258 N  
HETATM   30  C   UNL     1      -9.773  19.237  68.313  1.00  0.00    -0.385 C  
HETATM   31  C   UNL     1     -10.263  19.933  67.052  1.00  0.00    -0.455 C  
HETATM   32  C   UNL     1      -9.220  17.930  66.462  1.00  0.00    -0.273 C  
HETATM   33  O   UNL     1      -8.774  17.040  65.758  1.00  0.00    -0.522 OA 
HETATM   34  N   UNL     1      -9.814  19.085  65.985  1.00  0.00    -0.481 NA 
ENDBRANCH  27  29
ENDBRANCH  25  27
ENDBRANCH   1  25
TORSDOF 6
ENDMDL
MODEL       23
REMARK 921   NORMALIZED FREE ENERGY PREDICTED BY IDOCK:   -6.55 KCAL/MOL
REMARK 922        TOTAL FREE ENERGY PREDICTED BY IDOCK:  -10.94 KCAL/MOL
REMARK 923 INTER-LIGAND FREE ENERGY PREDICTED BY IDOCK:  -10.14 KCAL/MOL
REMARK 924 INTRA-LIGAND FREE ENERGY PREDICTED BY IDOCK:   -0.81 KCAL/MOL
REMARK 927      BINDING AFFINITY PREDICTED BY RF-SCORE:    0.00 PKD
ROOT
HETATM    1  CA  UNL     1     -11.728  13.813  68.734  1.00  0.00    -0.356 C  
ENDROOT
BRANCH   1   2
HETATM    2  C   UNL     1     -12.302  14.080  70.129  1.00  0.00    -0.409 A  
HETATM    3  C   UNL     1     -13.374  15.644  71.653  1.00  0.00    -0.543 A  
HETATM    4  C   UNL     1     -13.712  14.596  72.506  1.00  0.00    -0.572 A  
HETATM    5  C   UNL     1     -13.289  13.303  72.215  1.00  0.00    -0.630 A  
HETATM    6  C   UNL     1     -12.669  15.390  70.476  1.00  0.00    -0.455 A  
HETATM    7  C   UNL     1     -12.578  13.047  71.041  1.00  0.00    -0.386 A  
ENDBRANCH   1   2
BRANCH   1   8
HETATM    8  C   UNL     1     -10.170  13.563  68.831  1.00  0.00    -0.057 C  
HETATM    9  N   UNL     1      -9.739  12.289  68.508  1.00  0.00    -0.340 N  
HETATM   10  H   UNL     1     -10.450  11.614  68.228  1.00  0.00     0.000 HD 
HETATM   11  O   UNL     1      -9.378  14.440  69.175  1.00  0.00    -0.086 OA 
BRANCH   9  12
HETATM   12  CA  UNL     1      -8.306  11.811  68.535  1.00  0.00    -0.131 C  
HETATM   13  N   UNL     1      -7.596   9.831  68.095  1.00  0.00    -0.082 N  
HETATM   14  CA  UNL     1      -8.247   8.535  67.747  1.00  0.00    -0.122 C  
HETATM   15  C   UNL     1      -7.485   7.374  68.422  1.00  0.00    -0.105 C  
HETATM   16  O   UNL     1      -7.744  11.052  66.114  1.00  0.00    -0.155 OA 
HETATM   17  C   UNL     1      -9.726   8.657  68.176  1.00  0.00    -0.158 C  
HETATM   18  OXT UNL     1      -7.904   6.231  68.539  1.00  0.00    -0.102 OA 
HETATM   19  O   UNL     1      -6.219   7.693  68.789  1.00  0.00    -0.034 OA 
HETATM   20  C   UNL     1      -7.802  10.951  67.317  1.00  0.00    -0.116 C  
HETATM   21  C   UNL     1     -10.516   7.368  68.417  1.00  0.00    -0.220 C  
HETATM   22  S   UNL     1      -9.649   9.604  69.767  1.00  0.00    -0.231 SA 
HETATM   23  C   UNL     1     -10.554   9.441  67.141  1.00  0.00    -0.294 C  
HETATM   24  C   UNL     1      -8.091  10.486  69.328  1.00  0.00    -0.148 C  
ENDBRANCH   9  12
ENDBRANCH   1   8
BRANCH   1  25
HETATM   25  N   UNL     1     -12.117  14.857  67.782  1.00  0.00    -0.528 N  
HETATM   26  H   UNL     1     -12.949  15.420  67.958  1.00  0.00     0.000 HD 
BRANCH  25  27
HETATM   27  C   UNL     1     -11.366  15.084  66.649  1.00  0.00    -0.289 C  
HETATM   28  O   UNL     1     -10.405  15.851  66.635  1.00  0.00    -0.287 OA 
BRANCH  27  29
HETATM   29  N   UNL     1     -11.730  14.353  65.528  1.00  0.00    -0.347 N  
HETATM   30  C   UNL     1     -12.024  12.935  65.625  1.00  0.00    -0.440 C  
HETATM   31  C   UNL     1     -12.515  12.534  64.242  1.00  0.00    -0.432 C  
HETATM   32  C   UNL     1     -12.151  14.839  64.286  1.00  0.00    -0.394 C  
HETATM   33  O   UNL     1     -12.113  15.996  63.901  1.00  0.00    -0.880 OA 
HETATM   34  N   UNL     1     -12.620  13.777  63.532  1.00  0.00    -0.808 NA 
ENDBRANCH  27  29
ENDBRANCH  25  27
ENDBRANCH   1  25
TORSDOF 6
ENDMDL
MODEL       24
REMARK 921   NORMALIZED FREE ENERGY PREDICTED BY IDOCK:   -6.54 KCAL/MOL
REMARK 922        TOTAL FREE ENERGY PREDICTED BY IDOCK:  -10.93 KCAL/MOL
REMARK 923 INTER-LIGAND FREE ENERGY PREDICTED BY IDOCK:   -9.18 KCAL/MOL
REMARK 924 INTRA-LIGAND FREE ENERGY PREDICTED BY IDOCK:   -1.75 KCAL/MOL
REMARK 927      BINDING AFFINITY PREDICTED BY RF-SCORE:    0.00 PKD
ROOT
HETATM    1  CA  UNL     1     -10.861  10.860  68.869  1.00  0.00    -0.219 C  
ENDROOT
BRANCH   1   2
HETATM    2  C   UNL     1      -9.972   9.803  68.206  1.00  0.00    -0.175 A  
HETATM    3  C   UNL     1      -9.811   7.875  66.733  1.00  0.00    -0.318 A  
HETATM    4  C   UNL     1      -8.432   8.046  66.643  1.00  0.00    -0.133 A  
HETATM    5  C   UNL     1      -7.809   9.045  67.385  1.00  0.00    -0.100 A  
HETATM    6  C   UNL     1     -10.576   8.742  67.512  1.00  0.00    -0.298 A  
HETATM    7  C   UNL     1      -8.572   9.910  68.171  1.00  0.00    -0.118 A  
ENDBRANCH   1   2
BRANCH   1   8
HETATM    8  C   UNL     1     -11.562  10.250  70.148  1.00  0.00    -0.299 C  
HETATM    9  N   UNL     1     -10.797   9.378  70.901  1.00  0.00    -0.293 N  
HETATM   10  H   UNL     1      -9.845   9.200  70.583  1.00  0.00     0.000 HD 
HETATM   11  O   UNL     1     -12.720  10.524  70.464  1.00  0.00    -0.338 OA 
BRANCH   9  12
HETATM   12  CA  UNL     1     -11.250   8.666  72.155  1.00  0.00    -0.367 C  
HETATM   13  N   UNL     1     -10.696   6.690  72.790  1.00  0.00    -0.230 N  
HETATM   14  CA  UNL     1      -9.866   5.594  72.211  1.00  0.00    -0.159 C  
HETATM   15  C   UNL     1     -10.512   4.229  72.530  1.00  0.00    -0.152 C  
HETATM   16  O   UNL     1      -9.107   8.216  73.554  1.00  0.00    -0.260 OA 
HETATM   17  C   UNL     1      -9.733   5.895  70.701  1.00  0.00    -0.176 C  
HETATM   18  OXT UNL     1     -10.222   3.170  71.993  1.00  0.00    -0.141 OA 
HETATM   19  O   UNL     1     -11.381   4.267  73.572  1.00  0.00    -0.283 OA 
HETATM   20  C   UNL     1     -10.153   7.937  73.016  1.00  0.00    -0.317 C  
HETATM   21  C   UNL     1      -9.386   4.736  69.763  1.00  0.00    -0.208 C  
HETATM   22  S   UNL     1     -11.401   6.551  70.232  1.00  0.00    -0.415 SA 
HETATM   23  C   UNL     1      -8.656   6.961  70.429  1.00  0.00    -0.143 C  
HETATM   24  C   UNL     1     -11.767   7.215  71.912  1.00  0.00    -0.292 C  
ENDBRANCH   9  12
ENDBRANCH   1   8
BRANCH   1  25
HETATM   25  N   UNL     1     -11.782  11.472  67.907  1.00  0.00    -0.281 N  
HETATM   26  H   UNL     1     -12.674  11.021  67.702  1.00  0.00     0.000 HD 
BRANCH  25  27
HETATM   27  C   UNL     1     -11.452  12.651  67.277  1.00  0.00    -0.342 C  
HETATM   28  O   UNL     1     -11.064  13.644  67.889  1.00  0.00    -0.248 OA 
BRANCH  27  29
HETATM   29  N   UNL     1     -11.537  12.639  65.891  1.00  0.00    -0.374 N  
HETATM   30  C   UNL     1     -10.701  11.754  65.101  1.00  0.00    -0.291 C  
HETATM   31  C   UNL     1     -11.183  11.926  63.668  1.00  0.00    -0.441 C  
HETATM   32  C   UNL     1     -12.548  13.176  65.089  1.00  0.00    -0.465 C  
HETATM   33  O   UNL     1     -13.458  13.905  65.447  1.00  0.00    -0.672 OA 
HETATM   34  N   UNL     1     -12.349  12.754  63.786  1.00  0.00    -0.635 NA 
ENDBRANCH  27  29
ENDBRANCH  25  27
ENDBRANCH   1  25
TORSDOF 6
ENDMDL
MODEL       25
REMARK 921   NORMALIZED FREE ENERGY PREDICTED BY IDOCK:   -6.54 KCAL/MOL
REMARK 922        TOTAL FREE ENERGY PREDICTED BY IDOCK:  -10.92 KCAL/MOL
REMARK 923 INTER-LIGAND FREE ENERGY PREDICTED BY IDOCK:   -9.88 KCAL/MOL
REMARK 924 INTRA-LIGAND FREE ENERGY PREDICTED BY IDOCK:   -1.04 KCAL/MOL
REMARK 927      BINDING AFFINITY PREDICTED BY RF-SCORE:    0.00 PKD
ROOT
HETATM    1  CA  UNL     1     -10.397  12.945  68.048  1.00  0.00    -0.227 C  
ENDROOT
BRANCH   1   2
HETATM    2  C   UNL     1     -10.774  12.422  66.659  1.00  0.00    -0.263 A  
HETATM    3  C   UNL     1     -12.212  12.609  64.706  1.00  0.00    -0.528 A  
HETATM    4  C   UNL     1     -11.334  11.815  63.971  1.00  0.00    -0.461 A  
HETATM    5  C   UNL     1     -10.215  11.265  64.590  1.00  0.00    -0.357 A  
HETATM    6  C   UNL     1     -11.938  12.906  66.041  1.00  0.00    -0.505 A  
HETATM    7  C   UNL     1      -9.943  11.555  65.928  1.00  0.00    -0.267 A  
ENDBRANCH   1   2
BRANCH   1   8
HETATM    8  C   UNL     1      -8.959  13.601  68.006  1.00  0.00    -0.188 C  
HETATM    9  N   UNL     1      -8.861  14.802  67.328  1.00  0.00    -0.192 N  
HETATM   10  H   UNL     1      -9.715  15.176  66.916  1.00  0.00     0.000 HD 
HETATM   11  O   UNL     1      -7.977  13.082  68.537  1.00  0.00    -0.138 OA 
BRANCH   9  12
HETATM   12  CA  UNL     1      -7.596  15.610  67.146  1.00  0.00    -0.223 C  
HETATM   13  N   UNL     1      -7.327  17.701  67.560  1.00  0.00    -0.187 N  
HETATM   14  CA  UNL     1      -8.219  18.803  68.024  1.00  0.00    -0.291 C  
HETATM   15  C   UNL     1      -7.844  20.114  67.300  1.00  0.00    -0.313 C  
HETATM   16  O   UNL     1      -6.935  16.476  69.505  1.00  0.00    -0.229 OA 
HETATM   17  C   UNL     1      -9.668  18.332  67.772  1.00  0.00    -0.297 C  
HETATM   18  OXT UNL     1      -8.533  21.123  67.270  1.00  0.00    -0.092 OA 
HETATM   19  O   UNL     1      -6.593  20.108  66.773  1.00  0.00    -0.203 OA 
HETATM   20  C   UNL     1      -7.164  16.563  68.321  1.00  0.00    -0.159 C  
HETATM   21  C   UNL     1     -10.765  19.395  67.668  1.00  0.00    -0.536 C  
HETATM   22  S   UNL     1      -9.566  17.434  66.154  1.00  0.00    -0.139 SA 
HETATM   23  C   UNL     1     -10.152  17.370  68.873  1.00  0.00    -0.330 C  
HETATM   24  C   UNL     1      -7.801  16.950  66.375  1.00  0.00    -0.313 C  
ENDBRANCH   9  12
ENDBRANCH   1   8
BRANCH   1  25
HETATM   25  N   UNL     1     -10.562  11.914  69.076  1.00  0.00    -0.373 N  
HETATM   26  H   UNL     1      -9.742  11.440  69.456  1.00  0.00     0.000 HD 
BRANCH  25  27
HETATM   27  C   UNL     1     -11.818  11.579  69.535  1.00  0.00    -0.351 C  
HETATM   28  O   UNL     1     -12.461  10.637  69.075  1.00  0.00    -0.311 OA 
BRANCH  27  29
HETATM   29  N   UNL     1     -12.298  12.343  70.589  1.00  0.00    -0.333 N  
HETATM   30  C   UNL     1     -12.449  13.781  70.459  1.00  0.00    -0.339 C  
HETATM   31  C   UNL     1     -13.126  14.227  71.747  1.00  0.00    -0.359 C  
HETATM   32  C   UNL     1     -12.959  11.899  71.739  1.00  0.00    -0.350 C  
HETATM   33  O   UNL     1     -13.085  10.745  72.112  1.00  0.00    -0.460 OA 
HETATM   34  N   UNL     1     -13.453  13.000  72.416  1.00  0.00    -0.565 NA 
ENDBRANCH  27  29
ENDBRANCH  25  27
ENDBRANCH   1  25
TORSDOF 6
ENDMDL
MODEL       26
REMARK 921   NORMALIZED FREE ENERGY PREDICTED BY IDOCK:   -6.53 KCAL/MOL
REMARK 922        TOTAL FREE ENERGY PREDICTED BY IDOCK:  -10.91 KCAL/MOL
REMARK 923 INTER-LIGAND FREE ENERGY PREDICTED BY IDOCK:   -9.28 KCAL/MOL
REMARK 924 INTRA-LIGAND FREE ENERGY PREDICTED BY IDOCK:   -1.63 KCAL/MOL
REMARK 927      BINDING AFFINITY PREDICTED BY RF-SCORE:    0.00 PKD
ROOT
HETATM    1  CA  UNL     1     -10.554  13.363  67.513  1.00  0.00    -0.250 C  
ENDROOT
BRANCH   1   2
HETATM    2  C   UNL     1     -10.926  12.760  66.155  1.00  0.00    -0.310 A  
HETATM    3  C   UNL     1     -12.516  12.638  64.318  1.00  0.00    -0.494 A  
HETATM    4  C   UNL     1     -11.557  12.024  63.516  1.00  0.00    -0.553 A  
HETATM    5  C   UNL     1     -10.309  11.712  64.045  1.00  0.00    -0.405 A  
HETATM    6  C   UNL     1     -12.206  12.999  65.630  1.00  0.00    -0.521 A  
HETATM    7  C   UNL     1      -9.999  12.065  65.360  1.00  0.00    -0.279 A  
ENDBRANCH   1   2
BRANCH   1   8
HETATM    8  C   UNL     1     -10.932  12.356  68.672  1.00  0.00    -0.247 C  
HETATM    9  N   UNL     1     -10.055  11.306  68.873  1.00  0.00    -0.297 N  
HETATM   10  H   UNL     1      -9.234  11.264  68.270  1.00  0.00     0.000 HD 
HETATM   11  O   UNL     1     -11.945  12.485  69.359  1.00  0.00    -0.298 OA 
BRANCH   9  12
HETATM   12  CA  UNL     1     -10.207  10.217  69.909  1.00  0.00    -0.237 C  
HETATM   13  N   UNL     1      -9.343   8.250  69.853  1.00  0.00    -0.158 N  
HETATM   14  CA  UNL     1      -8.512   7.496  68.871  1.00  0.00    -0.129 C  
HETATM   15  C   UNL     1      -8.943   6.013  68.857  1.00  0.00    -0.123 C  
HETATM   16  O   UNL     1      -7.820   9.732  70.815  1.00  0.00    -0.304 OA 
HETATM   17  C   UNL     1      -8.672   8.216  67.514  1.00  0.00    -0.129 C  
HETATM   18  OXT UNL     1      -8.637   5.200  67.998  1.00  0.00    -0.104 OA 
HETATM   19  O   UNL     1      -9.620   5.631  69.969  1.00  0.00    -0.155 OA 
HETATM   20  C   UNL     1      -8.906   9.455  70.363  1.00  0.00    -0.249 C  
HETATM   21  C   UNL     1      -8.368   7.427  66.238  1.00  0.00    -0.132 C  
HETATM   22  S   UNL     1     -10.457   8.714  67.486  1.00  0.00    -0.236 SA 
HETATM   23  C   UNL     1      -7.779   9.468  67.428  1.00  0.00    -0.095 C  
HETATM   24  C   UNL     1     -10.598   8.827  69.320  1.00  0.00    -0.197 C  
ENDBRANCH   9  12
ENDBRANCH   1   8
BRANCH   1  25
HETATM   25  N   UNL     1     -11.109  14.710  67.675  1.00  0.00    -0.293 N  
HETATM   26  H   UNL     1     -12.095  14.880  67.474  1.00  0.00     0.000 HD 
BRANCH  25  27
HETATM   27  C   UNL     1     -10.310  15.749  68.098  1.00  0.00    -0.242 C  
HETATM   28  O   UNL     1      -9.477  15.622  68.993  1.00  0.00    -0.209 OA 
BRANCH  27  29
HETATM   29  N   UNL     1     -10.466  16.946  67.414  1.00  0.00    -0.317 N  
HETATM   30  C   UNL     1     -10.356  18.219  68.105  1.00  0.00    -0.373 C  
HETATM   31  C   UNL     1     -10.441  19.273  67.011  1.00  0.00    -0.456 C  
HETATM   32  C   UNL     1     -10.443  17.154  66.032  1.00  0.00    -0.266 C  
HETATM   33  O   UNL     1     -10.452  16.299  65.163  1.00  0.00    -0.591 OA 
HETATM   34  N   UNL     1     -10.420  18.517  65.791  1.00  0.00    -0.628 NA 
ENDBRANCH  27  29
ENDBRANCH  25  27
ENDBRANCH   1  25
TORSDOF 6
ENDMDL
MODEL       27
REMARK 921   NORMALIZED FREE ENERGY PREDICTED BY IDOCK:   -6.50 KCAL/MOL
REMARK 922        TOTAL FREE ENERGY PREDICTED BY IDOCK:  -10.87 KCAL/MOL
REMARK 923 INTER-LIGAND FREE ENERGY PREDICTED BY IDOCK:   -9.68 KCAL/MOL
REMARK 924 INTRA-LIGAND FREE ENERGY PREDICTED BY IDOCK:   -1.19 KCAL/MOL
REMARK 927      BINDING AFFINITY PREDICTED BY RF-SCORE:    0.00 PKD
ROOT
HETATM    1  CA  UNL     1     -11.833  12.944  68.988  1.00  0.00    -0.306 C  
ENDROOT
BRANCH   1   2
HETATM    2  C   UNL     1     -11.648  11.450  69.271  1.00  0.00    -0.384 A  
HETATM    3  C   UNL     1     -10.651   9.333  68.607  1.00  0.00    -0.219 A  
HETATM    4  C   UNL     1     -10.925   8.798  69.864  1.00  0.00    -0.184 A  
HETATM    5  C   UNL     1     -11.620   9.556  70.801  1.00  0.00    -0.378 A  
HETATM    6  C   UNL     1     -11.014  10.647  68.310  1.00  0.00    -0.314 A  
HETATM    7  C   UNL     1     -11.991  10.869  70.503  1.00  0.00    -0.466 A  
ENDBRANCH   1   2
BRANCH   1   8
HETATM    8  C   UNL     1     -11.078  13.337  67.655  1.00  0.00    -0.269 C  
HETATM    9  N   UNL     1      -9.929  14.091  67.809  1.00  0.00    -0.232 N  
HETATM   10  H   UNL     1      -9.653  14.330  68.761  1.00  0.00     0.000 HD 
HETATM   11  O   UNL     1     -11.480  13.001  66.542  1.00  0.00    -0.309 OA 
BRANCH   9  12
HETATM   12  CA  UNL     1      -9.048  14.593  66.688  1.00  0.00    -0.258 C  
HETATM   13  N   UNL     1      -8.053  16.494  66.579  1.00  0.00    -0.277 N  
HETATM   14  CA  UNL     1      -8.014  17.711  67.441  1.00  0.00    -0.206 C  
HETATM   15  C   UNL     1      -7.971  18.974  66.554  1.00  0.00    -0.282 C  
HETATM   16  O   UNL     1      -6.697  14.983  67.727  1.00  0.00    -0.140 OA 
HETATM   17  C   UNL     1      -9.246  17.631  68.370  1.00  0.00    -0.288 C  
HETATM   18  OXT UNL     1      -8.184  20.114  66.942  1.00  0.00    -0.305 OA 
HETATM   19  O   UNL     1      -7.550  18.736  65.286  1.00  0.00    -0.289 OA 
HETATM   20  C   UNL     1      -7.680  15.266  67.082  1.00  0.00    -0.203 C  
HETATM   21  C   UNL     1      -9.761  18.927  69.000  1.00  0.00    -0.356 C  
HETATM   22  S   UNL     1     -10.577  16.939  67.281  1.00  0.00    -0.220 SA 
HETATM   23  C   UNL     1      -8.999  16.684  69.559  1.00  0.00     0.278 C  
HETATM   24  C   UNL     1      -9.403  16.027  66.191  1.00  0.00    -0.342 C  
ENDBRANCH   9  12
ENDBRANCH   1   8
BRANCH   1  25
HETATM   25  N   UNL     1     -11.476  13.762  70.150  1.00  0.00    -0.497 N  
HETATM   26  H   UNL     1     -10.680  13.498  70.731  1.00  0.00     0.000 HD 
BRANCH  25  27
HETATM   27  C   UNL     1     -12.208  14.886  70.465  1.00  0.00    -0.329 C  
HETATM   28  O   UNL     1     -12.746  15.587  69.610  1.00  0.00    -0.125 OA 
BRANCH  27  29
HETATM   29  N   UNL     1     -12.346  15.155  71.820  1.00  0.00    -0.329 N  
HETATM   30  C   UNL     1     -11.862  16.402  72.385  1.00  0.00    -0.458 C  
HETATM   31  C   UNL     1     -12.320  16.386  73.836  1.00  0.00    -0.483 C  
HETATM   32  C   UNL     1     -13.167  14.503  72.745  1.00  0.00    -0.508 C  
HETATM   33  O   UNL     1     -13.786  13.467  72.572  1.00  0.00    -0.660 OA 
HETATM   34  N   UNL     1     -13.161  15.226  73.926  1.00  0.00    -0.348 NA 
ENDBRANCH  27  29
ENDBRANCH  25  27
ENDBRANCH   1  25
TORSDOF 6
ENDMDL
MODEL       28
REMARK 921   NORMALIZED FREE ENERGY PREDICTED BY IDOCK:   -6.50 KCAL/MOL
REMARK 922        TOTAL FREE ENERGY PREDICTED BY IDOCK:  -10.87 KCAL/MOL
REMARK 923 INTER-LIGAND FREE ENERGY PREDICTED BY IDOCK:   -9.53 KCAL/MOL
REMARK 924 INTRA-LIGAND FREE ENERGY PREDICTED BY IDOCK:   -1.34 KCAL/MOL
REMARK 927      BINDING AFFINITY PREDICTED BY RF-SCORE:    0.00 PKD
ROOT
HETATM    1  CA  UNL     1      -9.667   9.994  68.652  1.00  0.00    -0.159 C  
ENDROOT
BRANCH   1   2
HETATM    2  C   UNL     1     -10.612   9.972  69.857  1.00  0.00    -0.324 A  
HETATM    3  C   UNL     1     -12.700  10.722  70.854  1.00  0.00    -0.478 A  
HETATM    4  C   UNL     1     -12.601   9.733  71.830  1.00  0.00    -0.506 A  
HETATM    5  C   UNL     1     -11.481   8.909  71.869  1.00  0.00    -0.442 A  
HETATM    6  C   UNL     1     -11.711  10.845  69.878  1.00  0.00    -0.418 A  
HETATM    7  C   UNL     1     -10.486   9.036  70.897  1.00  0.00    -0.321 A  
ENDBRANCH   1   2
BRANCH   1   8
HETATM    8  C   UNL     1      -8.769  11.295  68.695  1.00  0.00    -0.136 C  
HETATM    9  N   UNL     1      -9.425  12.491  68.473  1.00  0.00    -0.374 N  
HETATM   10  H   UNL     1     -10.430  12.448  68.307  1.00  0.00     0.000 HD 
HETATM   11  O   UNL     1      -7.558  11.258  68.909  1.00  0.00    -0.122 OA 
BRANCH   9  12
HETATM   12  CA  UNL     1      -8.781  13.859  68.456  1.00  0.00    -0.134 C  
HETATM   13  N   UNL     1      -9.548  15.636  67.523  1.00  0.00    -0.223 N  
HETATM   14  CA  UNL     1     -10.744  15.953  66.690  1.00  0.00    -0.270 C  
HETATM   15  C   UNL     1     -10.361  16.977  65.599  1.00  0.00    -0.209 C  
HETATM   16  O   UNL     1     -10.428  15.457  69.675  1.00  0.00    -0.246 OA 
HETATM   17  C   UNL     1     -11.266  14.607  66.140  1.00  0.00    -0.341 C  
HETATM   18  OXT UNL     1     -11.037  17.246  64.617  1.00  0.00    -1.052 OA 
HETATM   19  O   UNL     1      -9.227  17.670  65.876  1.00  0.00    -0.517 OA 
HETATM   20  C   UNL     1      -9.694  15.099  68.784  1.00  0.00    -0.221 C  
HETATM   21  C   UNL     1     -12.142  14.631  64.885  1.00  0.00    -0.386 C  
HETATM   22  S   UNL     1      -9.722  13.656  65.760  1.00  0.00    -0.068 SA 
HETATM   23  C   UNL     1     -12.100  13.851  67.191  1.00  0.00    -0.422 C  
HETATM   24  C   UNL     1      -8.712  14.513  67.042  1.00  0.00    -0.234 C  
ENDBRANCH   9  12
ENDBRANCH   1   8
BRANCH   1  25
HETATM   25  N   UNL     1     -10.392   9.799  67.394  1.00  0.00    -0.223 N  
HETATM   26  H   UNL     1     -11.120  10.460  67.120  1.00  0.00     0.000 HD 
BRANCH  25  27
HETATM   27  C   UNL     1     -10.098   8.730  66.576  1.00  0.00    -0.279 C  
HETATM   28  O   UNL     1     -10.616   7.624  66.720  1.00  0.00    -0.325 OA 
BRANCH  27  29
HETATM   29  N   UNL     1      -9.212   8.989  65.540  1.00  0.00    -0.216 N  
HETATM   30  C   UNL     1      -8.023   8.176  65.356  1.00  0.00    -0.126 C  
HETATM   31  C   UNL     1      -7.401   8.671  64.058  1.00  0.00    -0.106 C  
HETATM   32  C   UNL     1      -9.422   9.783  64.409  1.00  0.00    -0.166 C  
HETATM   33  O   UNL     1     -10.362  10.533  64.206  1.00  0.00    -0.332 OA 
HETATM   34  N   UNL     1      -8.367   9.593  63.534  1.00  0.00    -0.157 NA 
ENDBRANCH  27  29
ENDBRANCH  25  27
ENDBRANCH   1  25
TORSDOF 6
ENDMDL
MODEL       29
REMARK 921   NORMALIZED FREE ENERGY PREDICTED BY IDOCK:   -6.50 KCAL/MOL
REMARK 922        TOTAL FREE ENERGY PREDICTED BY IDOCK:  -10.87 KCAL/MOL
REMARK 923 INTER-LIGAND FREE ENERGY PREDICTED BY IDOCK:   -9.65 KCAL/MOL
REMARK 924 INTRA-LIGAND FREE ENERGY PREDICTED BY IDOCK:   -1.22 KCAL/MOL
REMARK 927      BINDING AFFINITY PREDICTED BY RF-SCORE:    0.00 PKD
ROOT
HETATM    1  CA  UNL     1     -11.453  13.033  68.496  1.00  0.00    -0.304 C  
ENDROOT
BRANCH   1   2
HETATM    2  C   UNL     1     -11.745  13.010  66.992  1.00  0.00    -0.441 A  
HETATM    3  C   UNL     1     -12.480  14.222  65.016  1.00  0.00    -0.409 A  
HETATM    4  C   UNL     1     -11.969  13.218  64.197  1.00  0.00    -0.505 A  
HETATM    5  C   UNL     1     -11.410  12.078  64.768  1.00  0.00    -0.369 A  
HETATM    6  C   UNL     1     -12.375  14.117  66.403  1.00  0.00    -0.431 A  
HETATM    7  C   UNL     1     -11.310  11.968  66.156  1.00  0.00    -0.407 A  
ENDBRANCH   1   2
BRANCH   1   8
HETATM    8  C   UNL     1     -11.552  11.570  69.087  1.00  0.00    -0.316 C  
HETATM    9  N   UNL     1     -10.360  10.999  69.494  1.00  0.00    -0.430 N  
HETATM   10  H   UNL     1      -9.515  11.561  69.391  1.00  0.00     0.000 HD 
HETATM   11  O   UNL     1     -12.619  10.963  69.181  1.00  0.00    -0.361 OA 
BRANCH   9  12
HETATM   12  CA  UNL     1     -10.201   9.615  70.080  1.00  0.00    -0.255 C  
HETATM   13  N   UNL     1      -8.747   8.135  69.521  1.00  0.00    -0.141 N  
HETATM   14  CA  UNL     1      -7.672   8.055  68.490  1.00  0.00    -0.106 C  
HETATM   15  C   UNL     1      -7.601   6.620  67.923  1.00  0.00    -0.107 C  
HETATM   16  O   UNL     1      -7.830   9.539  71.141  1.00  0.00    -0.326 OA 
HETATM   17  C   UNL     1      -7.993   9.137  67.435  1.00  0.00    -0.103 C  
HETATM   18  OXT UNL     1      -7.010   6.294  66.905  1.00  0.00    -0.067 OA 
HETATM   19  O   UNL     1      -8.170   5.687  68.729  1.00  0.00    -0.102 OA 
HETATM   20  C   UNL     1      -8.747   9.146  70.458  1.00  0.00    -0.221 C  
HETATM   21  C   UNL     1      -7.392   8.982  66.036  1.00  0.00    -0.094 C  
HETATM   22  S   UNL     1      -9.839   9.081  67.291  1.00  0.00    -0.214 SA 
HETATM   23  C   UNL     1      -7.548  10.535  67.905  1.00  0.00    -0.092 C  
HETATM   24  C   UNL     1     -10.095   8.481  69.015  1.00  0.00    -0.199 C  
ENDBRANCH   9  12
ENDBRANCH   1   8
BRANCH   1  25
HETATM   25  N   UNL     1     -12.279  14.024  69.191  1.00  0.00    -0.472 N  
HETATM   26  H   UNL     1     -13.294  14.004  69.083  1.00  0.00     0.000 HD 
BRANCH  25  27
HETATM   27  C   UNL     1     -11.696  14.984  69.989  1.00  0.00    -0.306 C  
HETATM   28  O   UNL     1     -10.923  15.832  69.547  1.00  0.00    -0.248 OA 
BRANCH  27  29
HETATM   29  N   UNL     1     -12.074  14.969  71.324  1.00  0.00    -0.303 N  
HETATM   30  C   UNL     1     -11.821  16.111  72.184  1.00  0.00    -0.536 C  
HETATM   31  C   UNL     1     -12.498  15.773  73.504  1.00  0.00    -0.552 C  
HETATM   32  C   UNL     1     -12.957  14.087  71.956  1.00  0.00    -0.363 C  
HETATM   33  O   UNL     1     -13.428  13.063  71.490  1.00  0.00    -0.273 OA 
HETATM   34  N   UNL     1     -13.214  14.559  73.231  1.00  0.00    -0.596 NA 
ENDBRANCH  27  29
ENDBRANCH  25  27
ENDBRANCH   1  25
TORSDOF 6
ENDMDL
MODEL       30
REMARK 921   NORMALIZED FREE ENERGY PREDICTED BY IDOCK:   -6.47 KCAL/MOL
REMARK 922        TOTAL FREE ENERGY PREDICTED BY IDOCK:  -10.83 KCAL/MOL
REMARK 923 INTER-LIGAND FREE ENERGY PREDICTED BY IDOCK:   -9.22 KCAL/MOL
REMARK 924 INTRA-LIGAND FREE ENERGY PREDICTED BY IDOCK:   -1.61 KCAL/MOL
REMARK 927      BINDING AFFINITY PREDICTED BY RF-SCORE:    0.00 PKD
ROOT
HETATM    1  CA  UNL     1     -10.747  12.874  68.791  1.00  0.00    -0.218 C  
ENDROOT
BRANCH   1   2
HETATM    2  C   UNL     1     -11.762  12.377  69.825  1.00  0.00    -0.361 A  
HETATM    3  C   UNL     1     -12.739  10.496  71.017  1.00  0.00    -0.504 A  
HETATM    4  C   UNL     1     -13.305  11.365  71.946  1.00  0.00    -0.409 A  
HETATM    5  C   UNL     1     -13.165  12.739  71.782  1.00  0.00    -0.471 A  
HETATM    6  C   UNL     1     -11.977  10.997  69.961  1.00  0.00    -0.430 A  
HETATM    7  C   UNL     1     -12.409  13.244  70.722  1.00  0.00    -0.425 A  
ENDBRANCH   1   2
BRANCH   1   8
HETATM    8  C   UNL     1     -11.371  14.058  67.949  1.00  0.00    -0.291 C  
HETATM    9  N   UNL     1     -10.743  15.284  68.070  1.00  0.00    -0.261 N  
HETATM   10  H   UNL     1      -9.929  15.332  68.682  1.00  0.00     0.000 HD 
HETATM   11  O   UNL     1     -12.357  13.911  67.228  1.00  0.00    -0.347 OA 
BRANCH   9  12
HETATM   12  CA  UNL     1     -11.160  16.560  67.374  1.00  0.00    -0.027 C  
HETATM   13  N   UNL     1      -9.867  18.023  66.477  1.00  0.00    -0.336 N  
HETATM   14  CA  UNL     1      -8.389  18.191  66.364  1.00  0.00    -0.245 C  
HETATM   15  C   UNL     1      -8.025  19.686  66.493  1.00  0.00    -0.304 C  
HETATM   16  O   UNL     1     -10.337  16.354  64.918  1.00  0.00    -0.590 OA 
HETATM   17  C   UNL     1      -7.760  17.289  67.449  1.00  0.00    -0.176 C  
HETATM   18  OXT UNL     1      -6.901  20.122  66.692  1.00  0.00    -0.213 OA 
HETATM   19  O   UNL     1      -9.064  20.523  66.247  1.00  0.00    -0.122 OA 
HETATM   20  C   UNL     1     -10.484  16.890  65.991  1.00  0.00    -0.290 C  
HETATM   21  C   UNL     1      -6.339  17.610  67.918  1.00  0.00    -0.171 C  
HETATM   22  S   UNL     1      -8.908  17.466  68.892  1.00  0.00    -0.080 SA 
HETATM   23  C   UNL     1      -7.707  15.817  67.001  1.00  0.00    -0.267 C  
HETATM   24  C   UNL     1     -10.386  17.827  67.850  1.00  0.00    -0.386 C  
ENDBRANCH   9  12
ENDBRANCH   1   8
BRANCH   1  25
HETATM   25  N   UNL     1     -10.215  11.772  67.984  1.00  0.00    -0.187 N  
HETATM   26  H   UNL     1     -10.469  10.810  68.211  1.00  0.00     0.000 HD 
BRANCH  25  27
HETATM   27  C   UNL     1      -9.375  12.025  66.923  1.00  0.00    -0.200 C  
HETATM   28  O   UNL     1      -8.210  12.388  67.071  1.00  0.00    -0.178 OA 
BRANCH  27  29
HETATM   29  N   UNL     1      -9.910  11.795  65.663  1.00  0.00    -0.233 N  
HETATM   30  C   UNL     1     -10.046  12.875  64.702  1.00  0.00    -0.231 C  
HETATM   31  C   UNL     1     -10.524  12.210  63.420  1.00  0.00    -0.412 C  
HETATM   32  C   UNL     1     -10.105  10.567  65.024  1.00  0.00    -0.321 C  
HETATM   33  O   UNL     1     -10.000   9.458  65.521  1.00  0.00    -0.281 OA 
HETATM   34  N   UNL     1     -10.457  10.805  63.707  1.00  0.00    -0.254 NA 
ENDBRANCH  27  29
ENDBRANCH  25  27
ENDBRANCH   1  25
TORSDOF 6
ENDMDL
MODEL       31
REMARK 921   NORMALIZED FREE ENERGY PREDICTED BY IDOCK:   -6.44 KCAL/MOL
REMARK 922        TOTAL FREE ENERGY PREDICTED BY IDOCK:  -10.79 KCAL/MOL
REMARK 923 INTER-LIGAND FREE ENERGY PREDICTED BY IDOCK:   -9.83 KCAL/MOL
REMARK 924 INTRA-LIGAND FREE ENERGY PREDICTED BY IDOCK:   -0.96 KCAL/MOL
REMARK 927      BINDING AFFINITY PREDICTED BY RF-SCORE:    0.00 PKD
ROOT
HETATM    1  CA  UNL     1     -10.711  15.702  68.666  1.00  0.00    -0.256 C  
ENDROOT
BRANCH   1   2
HETATM    2  C   UNL     1     -10.042  17.043  68.354  1.00  0.00    -0.302 A  
HETATM    3  C   UNL     1     -10.299  19.414  67.874  1.00  0.00    -0.542 A  
HETATM    4  C   UNL     1      -8.948  19.625  68.141  1.00  0.00    -0.381 A  
HETATM    5  C   UNL     1      -8.126  18.544  68.444  1.00  0.00    -0.346 A  
HETATM    6  C   UNL     1     -10.842  18.132  67.974  1.00  0.00    -0.189 A  
HETATM    7  C   UNL     1      -8.666  17.260  68.538  1.00  0.00    -0.273 A  
ENDBRANCH   1   2
BRANCH   1   8
HETATM    8  C   UNL     1     -10.818  14.833  67.350  1.00  0.00    -0.300 C  
HETATM    9  N   UNL     1      -9.901  13.805  67.225  1.00  0.00    -0.236 N  
HETATM   10  H   UNL     1      -9.235  13.680  67.988  1.00  0.00     0.000 HD 
HETATM   11  O   UNL     1     -11.660  15.050  66.478  1.00  0.00    -0.302 OA 
BRANCH   9  12
HETATM   12  CA  UNL     1      -9.801  12.851  66.058  1.00  0.00    -0.255 C  
HETATM   13  N   UNL     1     -10.234  10.746  66.069  1.00  0.00    -0.247 N  
HETATM   14  CA  UNL     1     -10.641   9.763  67.114  1.00  0.00    -0.229 C  
HETATM   15  C   UNL     1      -9.944   8.410  66.853  1.00  0.00    -0.271 C  
HETATM   16  O   UNL     1     -12.199  11.932  65.656  1.00  0.00    -0.413 OA 
HETATM   17  C   UNL     1     -10.296  10.402  68.477  1.00  0.00    -0.176 C  
HETATM   18  OXT UNL     1      -9.871   7.490  67.655  1.00  0.00    -0.147 OA 
HETATM   19  O   UNL     1      -9.498   8.262  65.580  1.00  0.00    -0.052 OA 
HETATM   20  C   UNL     1     -11.003  11.863  65.818  1.00  0.00    -0.311 C  
HETATM   21  C   UNL     1     -10.124   9.477  69.684  1.00  0.00    -0.228 C  
HETATM   22  S   UNL     1      -8.687  11.266  68.166  1.00  0.00    -0.161 SA 
HETATM   23  C   UNL     1     -11.364  11.424  68.910  1.00  0.00    -0.334 C  
HETATM   24  C   UNL     1      -9.020  11.538  66.373  1.00  0.00    -0.197 C  
ENDBRANCH   9  12
ENDBRANCH   1   8
BRANCH   1  25
HETATM   25  N   UNL     1     -11.980  15.884  69.377  1.00  0.00    -0.389 N  
HETATM   26  H   UNL     1     -12.834  16.065  68.850  1.00  0.00     0.000 HD 
BRANCH  25  27
HETATM   27  C   UNL     1     -12.028  15.811  70.752  1.00  0.00    -0.407 C  
HETATM   28  O   UNL     1     -11.455  16.620  71.479  1.00  0.00    -0.267 OA 
BRANCH  27  29
HETATM   29  N   UNL     1     -12.808  14.789  71.274  1.00  0.00    -0.316 N  
HETATM   30  C   UNL     1     -12.398  13.401  71.154  1.00  0.00    -0.259 C  
HETATM   31  C   UNL     1     -13.418  12.613  71.962  1.00  0.00    -0.418 C  
HETATM   32  C   UNL     1     -13.857  14.894  72.193  1.00  0.00    -0.471 C  
HETATM   33  O   UNL     1     -14.394  15.919  72.576  1.00  0.00    -0.468 OA 
HETATM   34  N   UNL     1     -14.212  13.621  72.605  1.00  0.00    -0.683 NA 
ENDBRANCH  27  29
ENDBRANCH  25  27
ENDBRANCH   1  25
TORSDOF 6
ENDMDL
MODEL       32
REMARK 921   NORMALIZED FREE ENERGY PREDICTED BY IDOCK:   -6.39 KCAL/MOL
REMARK 922        TOTAL FREE ENERGY PREDICTED BY IDOCK:  -10.72 KCAL/MOL
REMARK 923 INTER-LIGAND FREE ENERGY PREDICTED BY IDOCK:   -9.10 KCAL/MOL
REMARK 924 INTRA-LIGAND FREE ENERGY PREDICTED BY IDOCK:   -1.63 KCAL/MOL
REMARK 927      BINDING AFFINITY PREDICTED BY RF-SCORE:    0.00 PKD
ROOT
HETATM    1  CA  UNL     1      -9.908   9.419  68.370  1.00  0.00    -0.160 C  
ENDROOT
BRANCH   1   2
HETATM    2  C   UNL     1      -9.466   8.652  67.120  1.00  0.00    -0.207 A  
HETATM    3  C   UNL     1      -8.539   8.731  64.872  1.00  0.00    -0.177 A  
HETATM    4  C   UNL     1      -8.282   7.363  64.919  1.00  0.00    -0.080 A  
HETATM    5  C   UNL     1      -8.677   6.622  66.029  1.00  0.00    -0.155 A  
HETATM    6  C   UNL     1      -9.131   9.371  65.961  1.00  0.00    -0.228 A  
HETATM    7  C   UNL     1      -9.277   7.259  67.117  1.00  0.00    -0.156 A  
ENDBRANCH   1   2
BRANCH   1   8
HETATM    8  C   UNL     1      -9.066  10.749  68.512  1.00  0.00    -0.170 C  
HETATM    9  N   UNL     1      -9.736  11.924  68.222  1.00  0.00    -0.197 N  
HETATM   10  H   UNL     1     -10.715  11.846  67.948  1.00  0.00     0.000 HD 
HETATM   11  O   UNL     1      -7.885  10.753  68.856  1.00  0.00    -0.118 OA 
BRANCH   9  12
HETATM   12  CA  UNL     1      -9.142  13.313  68.277  1.00  0.00    -0.184 C  
HETATM   13  N   UNL     1      -9.916  15.087  67.343  1.00  0.00    -0.226 N  
HETATM   14  CA  UNL     1     -11.071  15.384  66.447  1.00  0.00    -0.230 C  
HETATM   15  C   UNL     1     -10.660  16.449  65.407  1.00  0.00    -0.320 C  
HETATM   16  O   UNL     1     -10.917  14.820  69.433  1.00  0.00    -0.250 OA 
HETATM   17  C   UNL     1     -11.509  14.035  65.834  1.00  0.00    -0.330 C  
HETATM   18  OXT UNL     1     -11.286  16.720  64.393  1.00  0.00    -1.112 OA 
HETATM   19  O   UNL     1      -9.571  17.173  65.769  1.00  0.00    -0.525 OA 
HETATM   20  C   UNL     1     -10.118  14.511  68.580  1.00  0.00    -0.242 C  
HETATM   21  C   UNL     1     -12.309  14.062  64.529  1.00  0.00    -0.409 C  
HETATM   22  S   UNL     1      -9.912  13.149  65.525  1.00  0.00    -0.153 SA 
HETATM   23  C   UNL     1     -12.377  13.223  66.813  1.00  0.00    -0.239 C  
HETATM   24  C   UNL     1      -9.012  14.006  66.887  1.00  0.00    -0.227 C  
ENDBRANCH   9  12
ENDBRANCH   1   8
BRANCH   1  25
HETATM   25  N   UNL     1      -9.896   8.564  69.560  1.00  0.00    -0.184 N  
HETATM   26  H   UNL     1      -9.735   7.561  69.462  1.00  0.00     0.000 HD 
BRANCH  25  27
HETATM   27  C   UNL     1     -10.100   9.104  70.811  1.00  0.00    -0.268 C  
HETATM   28  O   UNL     1      -9.175   9.432  71.550  1.00  0.00    -0.276 OA 
BRANCH  27  29
HETATM   29  N   UNL     1     -11.426   9.304  71.172  1.00  0.00    -0.304 N  
HETATM   30  C   UNL     1     -12.107   8.372  72.052  1.00  0.00    -0.356 C  
HETATM   31  C   UNL     1     -13.466   9.001  72.321  1.00  0.00    -0.475 C  
HETATM   32  C   UNL     1     -12.185  10.470  71.039  1.00  0.00    -0.400 C  
HETATM   33  O   UNL     1     -11.877  11.478  70.425  1.00  0.00    -0.346 OA 
HETATM   34  N   UNL     1     -13.378  10.300  71.718  1.00  0.00    -0.396 NA 
ENDBRANCH  27  29
ENDBRANCH  25  27
ENDBRANCH   1  25
TORSDOF 6
ENDMDL
MODEL       33
REMARK 921   NORMALIZED FREE ENERGY PREDICTED BY IDOCK:   -6.39 KCAL/MOL
REMARK 922        TOTAL FREE ENERGY PREDICTED BY IDOCK:  -10.72 KCAL/MOL
REMARK 923 INTER-LIGAND FREE ENERGY PREDICTED BY IDOCK:   -9.50 KCAL/MOL
REMARK 924 INTRA-LIGAND FREE ENERGY PREDICTED BY IDOCK:   -1.22 KCAL/MOL
REMARK 927      BINDING AFFINITY PREDICTED BY RF-SCORE:    0.00 PKD
ROOT
HETATM    1  CA  UNL     1     -12.087  13.561  69.633  1.00  0.00    -0.306 C  
ENDROOT
BRANCH   1   2
HETATM    2  C   UNL     1     -12.579  14.289  70.887  1.00  0.00    -0.426 A  
HETATM    3  C   UNL     1     -12.093  15.848  72.691  1.00  0.00    -0.615 A  
HETATM    4  C   UNL     1     -13.453  15.961  72.972  1.00  0.00    -0.653 A  
HETATM    5  C   UNL     1     -14.371  15.191  72.266  1.00  0.00    -0.559 A  
HETATM    6  C   UNL     1     -11.657  15.014  71.660  1.00  0.00    -0.416 A  
HETATM    7  C   UNL     1     -13.937  14.351  71.239  1.00  0.00    -0.307 A  
ENDBRANCH   1   2
BRANCH   1   8
HETATM    8  C   UNL     1     -11.726  12.063  69.985  1.00  0.00    -0.267 C  
HETATM    9  N   UNL     1     -10.575  11.564  69.403  1.00  0.00    -0.436 N  
HETATM   10  H   UNL     1     -10.046  12.195  68.802  1.00  0.00     0.000 HD 
HETATM   11  O   UNL     1     -12.421  11.371  70.728  1.00  0.00    -0.360 OA 
BRANCH   9  12
HETATM   12  CA  UNL     1     -10.034  10.164  69.582  1.00  0.00    -0.232 C  
HETATM   13  N   UNL     1      -8.829   9.057  68.189  1.00  0.00    -0.133 N  
HETATM   14  CA  UNL     1      -8.313   9.311  66.812  1.00  0.00    -0.123 C  
HETATM   15  C   UNL     1      -8.351   8.003  65.994  1.00  0.00    -0.126 C  
HETATM   16  O   UNL     1      -7.444  10.370  69.529  1.00  0.00    -0.119 OA 
HETATM   17  C   UNL     1      -9.174  10.452  66.224  1.00  0.00    -0.166 C  
HETATM   18  OXT UNL     1      -8.236   7.928  64.779  1.00  0.00    -0.148 OA 
HETATM   19  O   UNL     1      -8.409   6.883  66.759  1.00  0.00    -0.112 OA 
HETATM   20  C   UNL     1      -8.521   9.916  69.223  1.00  0.00    -0.158 C  
HETATM   21  C   UNL     1      -9.235  10.597  64.702  1.00  0.00    -0.262 C  
HETATM   22  S   UNL     1     -10.879  10.086  66.848  1.00  0.00    -0.001 SA 
HETATM   23  C   UNL     1      -8.714  11.830  66.736  1.00  0.00    -0.192 C  
HETATM   24  C   UNL     1     -10.290   9.222  68.366  1.00  0.00    -0.209 C  
ENDBRANCH   9  12
ENDBRANCH   1   8
BRANCH   1  25
HETATM   25  N   UNL     1     -11.013  14.303  68.965  1.00  0.00    -0.255 N  
HETATM   26  H   UNL     1     -10.144  14.496  69.464  1.00  0.00     0.000 HD 
BRANCH  25  27
HETATM   27  C   UNL     1     -11.167  14.740  67.668  1.00  0.00    -0.323 C  
HETATM   28  O   UNL     1     -11.558  14.005  66.763  1.00  0.00    -0.348 OA 
BRANCH  27  29
HETATM   29  N   UNL     1     -10.902  16.085  67.449  1.00  0.00    -0.307 N  
HETATM   30  C   UNL     1     -10.773  17.009  68.561  1.00  0.00    -0.352 C  
HETATM   31  C   UNL     1     -10.346  18.328  67.934  1.00  0.00    -0.399 C  
HETATM   32  C   UNL     1     -10.441  16.689  66.276  1.00  0.00    -0.268 C  
HETATM   33  O   UNL     1     -10.349  16.174  65.174  1.00  0.00    -0.560 OA 
HETATM   34  N   UNL     1     -10.106  18.002  66.557  1.00  0.00    -0.360 NA 
ENDBRANCH  27  29
ENDBRANCH  25  27
ENDBRANCH   1  25
TORSDOF 6
ENDMDL
MODEL       34
REMARK 921   NORMALIZED FREE ENERGY PREDICTED BY IDOCK:   -6.34 KCAL/MOL
REMARK 922        TOTAL FREE ENERGY PREDICTED BY IDOCK:  -10.66 KCAL/MOL
REMARK 923 INTER-LIGAND FREE ENERGY PREDICTED BY IDOCK:   -8.81 KCAL/MOL
REMARK 924 INTRA-LIGAND FREE ENERGY PREDICTED BY IDOCK:   -1.85 KCAL/MOL
REMARK 927      BINDING AFFINITY PREDICTED BY RF-SCORE:    0.00 PKD
ROOT
HETATM    1  CA  UNL     1     -10.369  10.184  69.015  1.00  0.00    -0.212 C  
ENDROOT
BRANCH   1   2
HETATM    2  C   UNL     1      -9.207  10.170  68.018  1.00  0.00    -0.142 A  
HETATM    3  C   UNL     1      -8.483  10.075  65.698  1.00  0.00    -0.155 A  
HETATM    4  C   UNL     1      -7.209  10.502  66.067  1.00  0.00    -0.137 A  
HETATM    5  C   UNL     1      -6.908  10.696  67.412  1.00  0.00    -0.077 A  
HETATM    6  C   UNL     1      -9.474   9.905  66.665  1.00  0.00    -0.220 A  
HETATM    7  C   UNL     1      -7.896  10.518  68.382  1.00  0.00    -0.110 A  
ENDBRANCH   1   2
BRANCH   1   8
HETATM    8  C   UNL     1     -11.345  11.384  68.690  1.00  0.00    -0.265 C  
HETATM    9  N   UNL     1     -11.001  12.609  69.231  1.00  0.00    -0.436 N  
HETATM   10  H   UNL     1     -10.149  12.649  69.790  1.00  0.00     0.000 HD 
HETATM   11  O   UNL     1     -12.355  11.250  68.000  1.00  0.00    -0.432 OA 
BRANCH   9  12
HETATM   12  CA  UNL     1     -11.779  13.895  69.068  1.00  0.00    -0.338 C  
HETATM   13  N   UNL     1     -11.229  15.596  67.876  1.00  0.00    -0.341 N  
HETATM   14  CA  UNL     1     -10.048  15.953  67.038  1.00  0.00    -0.268 C  
HETATM   15  C   UNL     1      -9.736  17.457  67.195  1.00  0.00    -0.267 C  
HETATM   16  O   UNL     1     -12.384  14.067  66.547  1.00  0.00    -0.457 OA 
HETATM   17  C   UNL     1      -8.899  15.019  67.476  1.00  0.00    -0.185 C  
HETATM   18  OXT UNL     1      -8.699  18.001  66.846  1.00  0.00    -0.238 OA 
HETATM   19  O   UNL     1     -10.782  18.185  67.663  1.00  0.00    -0.416 OA 
HETATM   20  C   UNL     1     -11.960  14.457  67.609  1.00  0.00    -0.343 C  
HETATM   21  C   UNL     1      -7.462  15.455  67.180  1.00  0.00    -0.224 C  
HETATM   22  S   UNL     1      -9.107  14.892  69.313  1.00  0.00    -0.033 SA 
HETATM   23  C   UNL     1      -9.028  13.623  66.838  1.00  0.00    -0.229 C  
HETATM   24  C   UNL     1     -10.927  15.185  69.266  1.00  0.00    -0.258 C  
ENDBRANCH   9  12
ENDBRANCH   1   8
BRANCH   1  25
HETATM   25  N   UNL     1      -9.892  10.150  70.401  1.00  0.00    -0.366 N  
HETATM   26  H   UNL     1      -9.262  10.878  70.738  1.00  0.00     0.000 HD 
BRANCH  25  27
HETATM   27  C   UNL     1     -10.286   9.140  71.251  1.00  0.00    -0.334 C  
HETATM   28  O   UNL     1      -9.502   8.559  71.998  1.00  0.00    -0.242 OA 
BRANCH  27  29
HETATM   29  N   UNL     1     -11.643   8.849  71.252  1.00  0.00    -0.285 N  
HETATM   30  C   UNL     1     -12.111   7.475  71.259  1.00  0.00    -0.323 C  
HETATM   31  C   UNL     1     -13.623   7.569  71.404  1.00  0.00    -0.317 C  
HETATM   32  C   UNL     1     -12.706   9.712  71.537  1.00  0.00    -0.387 C  
HETATM   33  O   UNL     1     -12.650  10.923  71.671  1.00  0.00    -0.375 OA 
HETATM   34  N   UNL     1     -13.867   8.965  71.635  1.00  0.00    -0.396 NA 
ENDBRANCH  27  29
ENDBRANCH  25  27
ENDBRANCH   1  25
TORSDOF 6
ENDMDL
MODEL       35
REMARK 921   NORMALIZED FREE ENERGY PREDICTED BY IDOCK:   -6.32 KCAL/MOL
REMARK 922        TOTAL FREE ENERGY PREDICTED BY IDOCK:  -10.63 KCAL/MOL
REMARK 923 INTER-LIGAND FREE ENERGY PREDICTED BY IDOCK:   -9.33 KCAL/MOL
REMARK 924 INTRA-LIGAND FREE ENERGY PREDICTED BY IDOCK:   -1.30 KCAL/MOL
REMARK 927      BINDING AFFINITY PREDICTED BY RF-SCORE:    0.00 PKD
ROOT
HETATM    1  CA  UNL     1     -11.218  10.803  68.217  1.00  0.00    -0.297 C  
ENDROOT
BRANCH   1   2
HETATM    2  C   UNL     1     -10.040  10.072  67.564  1.00  0.00    -0.243 A  
HETATM    3  C   UNL     1      -7.638   9.699  67.475  1.00  0.00    -0.095 A  
HETATM    4  C   UNL     1      -7.835   8.546  66.720  1.00  0.00    -0.091 A  
HETATM    5  C   UNL     1      -9.120   8.189  66.325  1.00  0.00    -0.231 A  
HETATM    6  C   UNL     1      -8.731  10.461  67.890  1.00  0.00    -0.118 A  
HETATM    7  C   UNL     1     -10.215   8.953  66.732  1.00  0.00    -0.348 A  
ENDBRANCH   1   2
BRANCH   1   8
HETATM    8  C   UNL     1     -11.640  12.043  67.332  1.00  0.00    -0.318 C  
HETATM    9  N   UNL     1     -11.554  13.280  67.942  1.00  0.00    -0.312 N  
HETATM   10  H   UNL     1     -11.222  13.302  68.906  1.00  0.00     0.000 HD 
HETATM   11  O   UNL     1     -12.027  11.927  66.169  1.00  0.00    -0.537 OA 
BRANCH   9  12
HETATM   12  CA  UNL     1     -11.911  14.604  67.305  1.00  0.00    -0.351 C  
HETATM   13  N   UNL     1     -10.600  16.274  66.976  1.00  0.00    -0.308 N  
HETATM   14  CA  UNL     1      -9.174  16.571  67.302  1.00  0.00    -0.216 C  
HETATM   15  C   UNL     1      -9.030  18.058  67.694  1.00  0.00    -0.251 C  
HETATM   16  O   UNL     1     -10.441  14.807  65.171  1.00  0.00    -0.369 OA 
HETATM   17  C   UNL     1      -8.761  15.580  68.412  1.00  0.00    -0.174 C  
HETATM   18  OXT UNL     1      -8.058  18.548  68.249  1.00  0.00    -0.284 OA 
HETATM   19  O   UNL     1     -10.053  18.838  67.262  1.00  0.00    -0.322 OA 
HETATM   20  C   UNL     1     -10.930  15.175  66.213  1.00  0.00    -0.335 C  
HETATM   21  C   UNL     1      -7.564  15.942  69.294  1.00  0.00    -0.221 C  
HETATM   22  S   UNL     1     -10.267  15.464  69.485  1.00  0.00    -0.275 SA 
HETATM   23  C   UNL     1      -8.423  14.192  67.835  1.00  0.00    -0.167 C  
HETATM   24  C   UNL     1     -11.442  15.849  68.117  1.00  0.00    -0.281 C  
ENDBRANCH   9  12
ENDBRANCH   1   8
BRANCH   1  25
HETATM   25  N   UNL     1     -10.942  11.125  69.620  1.00  0.00    -0.401 N  
HETATM   26  H   UNL     1     -10.091  11.630  69.866  1.00  0.00     0.000 HD 
BRANCH  25  27
HETATM   27  C   UNL     1     -11.825  10.751  70.609  1.00  0.00    -0.360 C  
HETATM   28  O   UNL     1     -12.855  11.378  70.850  1.00  0.00    -0.313 OA 
BRANCH  27  29
HETATM   29  N   UNL     1     -11.506   9.586  71.292  1.00  0.00    -0.348 N  
HETATM   30  C   UNL     1     -10.125   9.166  71.446  1.00  0.00    -0.322 C  
HETATM   31  C   UNL     1     -10.178   7.950  72.359  1.00  0.00    -0.264 C  
HETATM   32  C   UNL     1     -12.325   8.840  72.146  1.00  0.00    -0.389 C  
HETATM   33  O   UNL     1     -13.525   8.979  72.315  1.00  0.00    -0.413 OA 
HETATM   34  N   UNL     1     -11.549   7.885  72.779  1.00  0.00    -0.376 NA 
ENDBRANCH  27  29
ENDBRANCH  25  27
ENDBRANCH   1  25
TORSDOF 6
ENDMDL
MODEL       36
REMARK 921   NORMALIZED FREE ENERGY PREDICTED BY IDOCK:   -6.18 KCAL/MOL
REMARK 922        TOTAL FREE ENERGY PREDICTED BY IDOCK:  -10.44 KCAL/MOL
REMARK 923 INTER-LIGAND FREE ENERGY PREDICTED BY IDOCK:   -9.02 KCAL/MOL
REMARK 924 INTRA-LIGAND FREE ENERGY PREDICTED BY IDOCK:   -1.42 KCAL/MOL
REMARK 927      BINDING AFFINITY PREDICTED BY RF-SCORE:    0.00 PKD
ROOT
HETATM    1  CA  UNL     1     -10.619  11.147  67.402  1.00  0.00    -0.234 C  
ENDROOT
BRANCH   1   2
HETATM    2  C   UNL     1     -10.970  10.795  68.851  1.00  0.00    -0.289 A  
HETATM    3  C   UNL     1     -12.671  10.648  70.583  1.00  0.00    -0.445 A  
HETATM    4  C   UNL     1     -11.830   9.850  71.355  1.00  0.00    -0.476 A  
HETATM    5  C   UNL     1     -10.538   9.581  70.917  1.00  0.00    -0.395 A  
HETATM    6  C   UNL     1     -12.244  11.122  69.342  1.00  0.00    -0.329 A  
HETATM    7  C   UNL     1     -10.105  10.061  69.679  1.00  0.00    -0.263 A  
ENDBRANCH   1   2
BRANCH   1   8
HETATM    8  C   UNL     1     -11.375  12.466  66.969  1.00  0.00    -0.327 C  
HETATM    9  N   UNL     1     -10.852  13.651  67.453  1.00  0.00    -0.270 N  
HETATM   10  H   UNL     1     -10.022  13.587  68.042  1.00  0.00     0.000 HD 
HETATM   11  O   UNL     1     -12.371  12.453  66.247  1.00  0.00    -0.577 OA 
BRANCH   9  12
HETATM   12  CA  UNL     1     -11.404  15.032  67.184  1.00  0.00    -0.320 C  
HETATM   13  N   UNL     1     -10.312  16.883  67.188  1.00  0.00    -0.304 N  
HETATM   14  CA  UNL     1      -8.901  17.270  67.479  1.00  0.00    -0.218 C  
HETATM   15  C   UNL     1      -8.877  18.628  68.213  1.00  0.00    -0.326 C  
HETATM   16  O   UNL     1     -10.174  15.913  65.071  1.00  0.00    -0.484 OA 
HETATM   17  C   UNL     1      -8.283  16.104  68.282  1.00  0.00    -0.162 C  
HETATM   18  OXT UNL     1      -7.912  19.091  68.804  1.00  0.00    -0.339 OA 
HETATM   19  O   UNL     1     -10.012  19.354  68.054  1.00  0.00    -0.340 OA 
HETATM   20  C   UNL     1     -10.598  15.961  66.202  1.00  0.00    -0.305 C  
HETATM   21  C   UNL     1      -7.051  16.395  69.143  1.00  0.00    -0.224 C  
HETATM   22  S   UNL     1      -9.659  15.553  69.393  1.00  0.00    -0.280 SA 
HETATM   23  C   UNL     1      -7.858  14.945  67.362  1.00  0.00    -0.224 C  
HETATM   24  C   UNL     1     -10.993  16.100  68.244  1.00  0.00    -0.340 C  
ENDBRANCH   9  12
ENDBRANCH   1   8
BRANCH   1  25
HETATM   25  N   UNL     1     -10.827  10.007  66.505  1.00  0.00    -0.024 N  
HETATM   26  H   UNL     1     -11.775   9.719  66.262  1.00  0.00     0.000 HD 
BRANCH  25  27
HETATM   27  C   UNL     1      -9.751   9.320  65.986  1.00  0.00    -0.289 C  
HETATM   28  O   UNL     1      -9.123   9.716  65.005  1.00  0.00    -0.203 OA 
BRANCH  27  29
HETATM   29  N   UNL     1      -9.381   8.171  66.671  1.00  0.00    -0.183 N  
HETATM   30  C   UNL     1      -8.050   8.034  67.232  1.00  0.00    -0.121 C  
HETATM   31  C   UNL     1      -8.080   6.728  68.013  1.00  0.00    -0.114 C  
HETATM   32  C   UNL     1     -10.214   7.169  67.177  1.00  0.00    -0.257 C  
HETATM   33  O   UNL     1     -11.407   7.031  66.964  1.00  0.00    -0.238 OA 
HETATM   34  N   UNL     1      -9.457   6.326  67.972  1.00  0.00    -0.117 NA 
ENDBRANCH  27  29
ENDBRANCH  25  27
ENDBRANCH   1  25
TORSDOF 6
ENDMDL
MODEL       37
REMARK 921   NORMALIZED FREE ENERGY PREDICTED BY IDOCK:   -6.16 KCAL/MOL
REMARK 922        TOTAL FREE ENERGY PREDICTED BY IDOCK:  -10.41 KCAL/MOL
REMARK 923 INTER-LIGAND FREE ENERGY PREDICTED BY IDOCK:   -8.43 KCAL/MOL
REMARK 924 INTRA-LIGAND FREE ENERGY PREDICTED BY IDOCK:   -1.98 KCAL/MOL
REMARK 927      BINDING AFFINITY PREDICTED BY RF-SCORE:    0.00 PKD
ROOT
HETATM    1  CA  UNL     1      -9.854  14.484  67.275  1.00  0.00    -0.236 C  
ENDROOT
BRANCH   1   2
HETATM    2  C   UNL     1      -8.513  14.464  68.015  1.00  0.00    -0.164 A  
HETATM    3  C   UNL     1      -6.123  14.016  67.941  1.00  0.00    -0.155 A  
HETATM    4  C   UNL     1      -5.943  14.724  69.127  1.00  0.00    -0.100 A  
HETATM    5  C   UNL     1      -7.047  15.242  69.797  1.00  0.00    -0.154 A  
HETATM    6  C   UNL     1      -7.398  13.881  67.391  1.00  0.00    -0.129 A  
HETATM    7  C   UNL     1      -8.325  15.102  69.253  1.00  0.00    -0.211 A  
ENDBRANCH   1   2
BRANCH   1   8
HETATM    8  C   UNL     1     -10.817  13.383  67.874  1.00  0.00    -0.247 C  
HETATM    9  N   UNL     1     -10.570  12.081  67.478  1.00  0.00    -0.217 N  
HETATM   10  H   UNL     1      -9.788  11.928  66.841  1.00  0.00     0.000 HD 
HETATM   11  O   UNL     1     -11.737  13.654  68.644  1.00  0.00    -0.308 OA 
BRANCH   9  12
HETATM   12  CA  UNL     1     -11.357  10.864  67.908  1.00  0.00    -0.308 C  
HETATM   13  N   UNL     1     -10.593   9.107  68.878  1.00  0.00    -0.215 N  
HETATM   14  CA  UNL     1      -9.237   8.638  69.287  1.00  0.00    -0.150 C  
HETATM   15  C   UNL     1      -9.123   7.115  69.060  1.00  0.00    -0.132 C  
HETATM   16  O   UNL     1     -11.112  10.710  70.490  1.00  0.00    -0.276 OA 
HETATM   17  C   UNL     1      -8.220   9.477  68.481  1.00  0.00    -0.113 C  
HETATM   18  OXT UNL     1      -8.079   6.480  69.057  1.00  0.00    -0.110 OA 
HETATM   19  O   UNL     1     -10.322   6.486  68.972  1.00  0.00    -0.169 OA 
HETATM   20  C   UNL     1     -11.095  10.300  69.353  1.00  0.00    -0.252 C  
HETATM   21  C   UNL     1      -6.808   8.915  68.295  1.00  0.00    -0.065 C  
HETATM   22  S   UNL     1      -9.010   9.646  66.814  1.00  0.00    -0.140 SA 
HETATM   23  C   UNL     1      -8.013  10.870  69.105  1.00  0.00    -0.114 C  
HETATM   24  C   UNL     1     -10.730   9.509  67.460  1.00  0.00    -0.245 C  
ENDBRANCH   9  12
ENDBRANCH   1   8
BRANCH   1  25
HETATM   25  N   UNL     1      -9.670  14.404  65.823  1.00  0.00    -0.477 N  
HETATM   26  H   UNL     1      -8.800  14.033  65.442  1.00  0.00     0.000 HD 
BRANCH  25  27
HETATM   27  C   UNL     1     -10.665  14.826  64.969  1.00  0.00    -0.433 C  
HETATM   28  O   UNL     1     -10.799  16.003  64.638  1.00  0.00    -0.608 OA 
BRANCH  27  29
HETATM   29  N   UNL     1     -11.484  13.829  64.458  1.00  0.00    -0.374 N  
HETATM   30  C   UNL     1     -10.936  12.755  63.650  1.00  0.00    -0.358 C  
HETATM   31  C   UNL     1     -12.100  11.805  63.409  1.00  0.00    -0.340 C  
HETATM   32  C   UNL     1     -12.792  13.515  64.839  1.00  0.00    -0.210 C  
HETATM   33  O   UNL     1     -13.518  14.166  65.571  1.00  0.00    -0.643 OA 
HETATM   34  N   UNL     1     -13.154  12.324  64.233  1.00  0.00    -0.778 NA 
ENDBRANCH  27  29
ENDBRANCH  25  27
ENDBRANCH   1  25
TORSDOF 6
ENDMDL
MODEL       38
REMARK 921   NORMALIZED FREE ENERGY PREDICTED BY IDOCK:   -6.16 KCAL/MOL
REMARK 922        TOTAL FREE ENERGY PREDICTED BY IDOCK:  -10.41 KCAL/MOL
REMARK 923 INTER-LIGAND FREE ENERGY PREDICTED BY IDOCK:   -9.21 KCAL/MOL
REMARK 924 INTRA-LIGAND FREE ENERGY PREDICTED BY IDOCK:   -1.20 KCAL/MOL
REMARK 927      BINDING AFFINITY PREDICTED BY RF-SCORE:    0.00 PKD
ROOT
HETATM    1  CA  UNL     1      -9.766  10.099  68.542  1.00  0.00    -0.154 C  
ENDROOT
BRANCH   1   2
HETATM    2  C   UNL     1      -8.234  10.113  68.526  1.00  0.00    -0.111 A  
HETATM    3  C   UNL     1      -6.161   8.843  68.438  1.00  0.00    -0.054 A  
HETATM    4  C   UNL     1      -5.454  10.001  68.122  1.00  0.00    -0.038 A  
HETATM    5  C   UNL     1      -6.115  11.224  68.076  1.00  0.00    -0.049 A  
HETATM    6  C   UNL     1      -7.540   8.898  68.644  1.00  0.00    -0.096 A  
HETATM    7  C   UNL     1      -7.493  11.283  68.289  1.00  0.00    -0.099 A  
ENDBRANCH   1   2
BRANCH   1   8
HETATM    8  C   UNL     1     -10.322  10.384  67.090  1.00  0.00    -0.238 C  
HETATM    9  N   UNL     1     -10.964  11.596  66.914  1.00  0.00    -0.277 N  
HETATM   10  H   UNL     1     -11.024  12.213  67.723  1.00  0.00     0.000 HD 
HETATM   11  O   UNL     1     -10.202   9.582  66.164  1.00  0.00    -0.273 OA 
BRANCH   9  12
HETATM   12  CA  UNL     1     -11.584  12.086  65.625  1.00  0.00    -0.296 C  
HETATM   13  N   UNL     1     -11.236  13.973  64.659  1.00  0.00    -0.373 N  
HETATM   14  CA  UNL     1     -10.435  15.188  64.986  1.00  0.00    -0.389 C  
HETATM   15  C   UNL     1     -11.205  16.452  64.544  1.00  0.00    -0.126 C  
HETATM   16  O   UNL     1      -9.622  12.442  63.959  1.00  0.00    -0.057 OA 
HETATM   17  C   UNL     1     -10.137  15.125  66.500  1.00  0.00    -0.269 C  
HETATM   18  OXT UNL     1     -10.941  17.594  64.891  1.00  0.00    -0.886 OA 
HETATM   19  O   UNL     1     -12.164  16.209  63.616  1.00  0.00    -0.756 OA 
HETATM   20  C   UNL     1     -10.629  12.739  64.558  1.00  0.00    -0.360 C  
HETATM   21  C   UNL     1      -9.786  16.428  67.222  1.00  0.00    -0.239 C  
HETATM   22  S   UNL     1     -11.702  14.453  67.231  1.00  0.00    -0.408 SA 
HETATM   23  C   UNL     1      -8.966  14.174  66.808  1.00  0.00    -0.229 C  
HETATM   24  C   UNL     1     -12.177  13.525  65.710  1.00  0.00    -0.461 C  
ENDBRANCH   9  12
ENDBRANCH   1   8
BRANCH   1  25
HETATM   25  N   UNL     1     -10.303  10.981  69.581  1.00  0.00    -0.446 N  
HETATM   26  H   UNL     1      -9.863  11.885  69.756  1.00  0.00     0.000 HD 
BRANCH  25  27
HETATM   27  C   UNL     1     -11.398  10.600  70.325  1.00  0.00    -0.319 C  
HETATM   28  O   UNL     1     -11.727   9.423  70.465  1.00  0.00    -0.262 OA 
BRANCH  27  29
HETATM   29  N   UNL     1     -12.087  11.627  70.953  1.00  0.00    -0.296 N  
HETATM   30  C   UNL     1     -12.080  12.973  70.408  1.00  0.00    -0.314 C  
HETATM   31  C   UNL     1     -13.047  13.760  71.280  1.00  0.00    -0.297 C  
HETATM   32  C   UNL     1     -13.073  11.522  71.940  1.00  0.00    -0.387 C  
HETATM   33  O   UNL     1     -13.389  10.517  72.554  1.00  0.00    -0.136 OA 
HETATM   34  N   UNL     1     -13.644  12.768  72.129  1.00  0.00    -0.514 NA 
ENDBRANCH  27  29
ENDBRANCH  25  27
ENDBRANCH   1  25
TORSDOF 6
ENDMDL
MODEL       39
REMARK 921   NORMALIZED FREE ENERGY PREDICTED BY IDOCK:   -6.15 KCAL/MOL
REMARK 922        TOTAL FREE ENERGY PREDICTED BY IDOCK:  -10.39 KCAL/MOL
REMARK 923 INTER-LIGAND FREE ENERGY PREDICTED BY IDOCK:   -9.11 KCAL/MOL
REMARK 924 INTRA-LIGAND FREE ENERGY PREDICTED BY IDOCK:   -1.29 KCAL/MOL
REMARK 927      BINDING AFFINITY PREDICTED BY RF-SCORE:    0.00 PKD
ROOT
HETATM    1  CA  UNL     1     -11.948  13.066  69.898  1.00  0.00    -0.311 C  
ENDROOT
BRANCH   1   2
HETATM    2  C   UNL     1     -12.444  14.133  70.880  1.00  0.00    -0.436 A  
HETATM    3  C   UNL     1     -14.281  15.025  72.200  1.00  0.00    -0.636 A  
HETATM    4  C   UNL     1     -13.388  15.790  72.946  1.00  0.00    -0.661 A  
HETATM    5  C   UNL     1     -12.035  15.786  72.620  1.00  0.00    -0.597 A  
HETATM    6  C   UNL     1     -13.815  14.206  71.171  1.00  0.00    -0.148 A  
HETATM    7  C   UNL     1     -11.567  14.973  71.586  1.00  0.00    -0.416 A  
ENDBRANCH   1   2
BRANCH   1   8
HETATM    8  C   UNL     1     -12.041  11.636  70.564  1.00  0.00    -0.366 C  
HETATM    9  N   UNL     1     -10.958  10.800  70.359  1.00  0.00    -0.445 N  
HETATM   10  H   UNL     1     -10.185  11.167  69.805  1.00  0.00     0.000 HD 
HETATM   11  O   UNL     1     -13.014  11.273  71.225  1.00  0.00    -0.381 OA 
BRANCH   9  12
HETATM   12  CA  UNL     1     -10.821   9.390  70.886  1.00  0.00    -0.322 C  
HETATM   13  N   UNL     1      -9.466   7.876  70.187  1.00  0.00    -0.160 N  
HETATM   14  CA  UNL     1      -8.459   7.792  69.089  1.00  0.00    -0.138 C  
HETATM   15  C   UNL     1      -8.482   6.378  68.470  1.00  0.00    -0.119 C  
HETATM   16  O   UNL     1      -8.396   9.182  71.795  1.00  0.00    -0.340 OA 
HETATM   17  C   UNL     1      -8.798   8.925  68.095  1.00  0.00    -0.134 C  
HETATM   18  OXT UNL     1      -7.967   6.067  67.406  1.00  0.00    -0.101 OA 
HETATM   19  O   UNL     1      -9.039   5.439  69.276  1.00  0.00    -0.106 OA 
HETATM   20  C   UNL     1      -9.367   8.851  71.157  1.00  0.00    -0.257 C  
HETATM   21  C   UNL     1      -8.290   8.799  66.657  1.00  0.00    -0.108 C  
HETATM   22  S   UNL     1     -10.651   8.946  68.063  1.00  0.00    -0.117 SA 
HETATM   23  C   UNL     1      -8.269  10.286  68.584  1.00  0.00    -0.116 C  
HETATM   24  C   UNL     1     -10.827   8.293  69.778  1.00  0.00    -0.185 C  
ENDBRANCH   9  12
ENDBRANCH   1   8
BRANCH   1  25
HETATM   25  N   UNL     1     -10.626  13.400  69.361  1.00  0.00    -0.432 N  
HETATM   26  H   UNL     1      -9.787  13.135  69.877  1.00  0.00     0.000 HD 
BRANCH  25  27
HETATM   27  C   UNL     1     -10.508  14.069  68.162  1.00  0.00    -0.243 C  
HETATM   28  O   UNL     1     -10.805  13.557  67.085  1.00  0.00    -0.279 OA 
BRANCH  27  29
HETATM   29  N   UNL     1     -10.076  15.386  68.247  1.00  0.00    -0.216 N  
HETATM   30  C   UNL     1     -10.956  16.484  67.893  1.00  0.00    -0.288 C  
HETATM   31  C   UNL     1     -10.184  17.745  68.251  1.00  0.00    -0.382 C  
HETATM   32  C   UNL     1      -8.951  15.878  68.916  1.00  0.00    -0.228 C  
HETATM   33  O   UNL     1      -8.046  15.224  69.407  1.00  0.00    -0.218 OA 
HETATM   34  N   UNL     1      -9.014  17.260  68.928  1.00  0.00    -0.223 NA 
ENDBRANCH  27  29
ENDBRANCH  25  27
ENDBRANCH   1  25
TORSDOF 6
ENDMDL
MODEL       40
REMARK 921   NORMALIZED FREE ENERGY PREDICTED BY IDOCK:   -6.14 KCAL/MOL
REMARK 922        TOTAL FREE ENERGY PREDICTED BY IDOCK:  -10.39 KCAL/MOL
REMARK 923 INTER-LIGAND FREE ENERGY PREDICTED BY IDOCK:   -8.47 KCAL/MOL
REMARK 924 INTRA-LIGAND FREE ENERGY PREDICTED BY IDOCK:   -1.91 KCAL/MOL
REMARK 927      BINDING AFFINITY PREDICTED BY RF-SCORE:    0.00 PKD
ROOT
HETATM    1  CA  UNL     1      -9.925  15.933  67.426  1.00  0.00    -0.239 C  
ENDROOT
BRANCH   1   2
HETATM    2  C   UNL     1      -8.532  15.654  68.000  1.00  0.00    -0.146 A  
HETATM    3  C   UNL     1      -7.183  15.022  69.922  1.00  0.00    -0.088 A  
HETATM    4  C   UNL     1      -6.099  14.761  69.088  1.00  0.00    -0.102 A  
HETATM    5  C   UNL     1      -6.200  15.011  67.723  1.00  0.00    -0.168 A  
HETATM    6  C   UNL     1      -8.390  15.470  69.384  1.00  0.00    -0.249 A  
HETATM    7  C   UNL     1      -7.404  15.467  67.183  1.00  0.00    -0.226 A  
ENDBRANCH   1   2
BRANCH   1   8
HETATM    8  C   UNL     1     -10.902  14.741  67.777  1.00  0.00    -0.278 C  
HETATM    9  N   UNL     1     -10.804  13.620  66.973  1.00  0.00    -0.284 N  
HETATM   10  H   UNL     1     -10.111  13.643  66.225  1.00  0.00     0.000 HD 
HETATM   11  O   UNL     1     -11.708  14.796  68.705  1.00  0.00    -0.302 OA 
BRANCH   9  12
HETATM   12  CA  UNL     1     -11.635  12.365  67.107  1.00  0.00    -0.365 C  
HETATM   13  N   UNL     1     -10.924  10.386  67.550  1.00  0.00    -0.304 N  
HETATM   14  CA  UNL     1      -9.579   9.775  67.759  1.00  0.00    -0.135 C  
HETATM   15  C   UNL     1      -9.549   8.362  67.137  1.00  0.00    -0.179 C  
HETATM   16  O   UNL     1     -11.308  11.529  69.546  1.00  0.00    -0.256 OA 
HETATM   17  C   UNL     1      -8.552  10.756  67.153  1.00  0.00    -0.128 C  
HETATM   18  OXT UNL     1      -8.538   7.710  66.920  1.00  0.00    -0.118 OA 
HETATM   19  O   UNL     1     -10.780   7.824  66.945  1.00  0.00    -0.345 OA 
HETATM   20  C   UNL     1     -11.351  11.431  68.342  1.00  0.00    -0.281 C  
HETATM   21  C   UNL     1      -7.177  10.210  66.761  1.00  0.00    -0.093 C  
HETATM   22  S   UNL     1      -9.390  11.387  65.625  1.00  0.00    -0.200 SA 
HETATM   23  C   UNL     1      -8.255  11.928  68.108  1.00  0.00    -0.158 C  
HETATM   24  C   UNL     1     -11.092  11.151  66.293  1.00  0.00    -0.111 C  
ENDBRANCH   9  12
ENDBRANCH   1   8
BRANCH   1  25
HETATM   25  N   UNL     1      -9.864  16.267  66.000  1.00  0.00    -0.325 N  
HETATM   26  H   UNL     1      -9.405  15.630  65.349  1.00  0.00     0.000 HD 
BRANCH  25  27
HETATM   27  C   UNL     1     -10.423  17.436  65.531  1.00  0.00    -0.101 C  
HETATM   28  O   UNL     1     -11.279  17.454  64.649  1.00  0.00    -0.992 OA 
BRANCH  27  29
HETATM   29  N   UNL     1      -9.995  18.600  66.153  1.00  0.00    -0.357 N  
HETATM   30  C   UNL     1     -10.855  19.308  67.084  1.00  0.00    -0.440 C  
HETATM   31  C   UNL     1      -9.993  20.426  67.652  1.00  0.00    -0.374 C  
HETATM   32  C   UNL     1      -8.690  19.093  66.247  1.00  0.00    -0.295 C  
HETATM   33  O   UNL     1      -7.707  18.681  65.655  1.00  0.00    -0.495 OA 
HETATM   34  N   UNL     1      -8.683  20.158  67.131  1.00  0.00    -0.334 NA 
ENDBRANCH  27  29
ENDBRANCH  25  27
ENDBRANCH   1  25
TORSDOF 6
ENDMDL
MODEL       41
REMARK 921   NORMALIZED FREE ENERGY PREDICTED BY IDOCK:   -6.13 KCAL/MOL
REMARK 922        TOTAL FREE ENERGY PREDICTED BY IDOCK:  -10.38 KCAL/MOL
REMARK 923 INTER-LIGAND FREE ENERGY PREDICTED BY IDOCK:   -9.47 KCAL/MOL
REMARK 924 INTRA-LIGAND FREE ENERGY PREDICTED BY IDOCK:   -0.91 KCAL/MOL
REMARK 927      BINDING AFFINITY PREDICTED BY RF-SCORE:    0.00 PKD
ROOT
HETATM    1  CA  UNL     1     -11.211  11.441  68.754  1.00  0.00    -0.247 C  
ENDROOT
BRANCH   1   2
HETATM    2  C   UNL     1     -11.944  11.848  70.036  1.00  0.00    -0.409 A  
HETATM    3  C   UNL     1     -12.959  13.620  71.357  1.00  0.00    -0.427 A  
HETATM    4  C   UNL     1     -13.603  12.674  72.150  1.00  0.00    -0.510 A  
HETATM    5  C   UNL     1     -13.369  11.319  71.938  1.00  0.00    -0.413 A  
HETATM    6  C   UNL     1     -12.131  13.212  70.311  1.00  0.00    -0.399 A  
HETATM    7  C   UNL     1     -12.535  10.908  70.897  1.00  0.00    -0.507 A  
ENDBRANCH   1   2
BRANCH   1   8
HETATM    8  C   UNL     1      -9.793  10.840  69.111  1.00  0.00    -0.175 C  
HETATM    9  N   UNL     1      -9.799   9.633  69.786  1.00  0.00    -0.214 N  
HETATM   10  H   UNL     1     -10.708   9.221  69.994  1.00  0.00     0.000 HD 
HETATM   11  O   UNL     1      -8.740  11.404  68.815  1.00  0.00    -0.151 OA 
BRANCH   9  12
HETATM   12  CA  UNL     1      -8.575   8.871  70.240  1.00  0.00    -0.167 C  
HETATM   13  N   UNL     1      -8.519   6.886  71.060  1.00  0.00    -0.130 N  
HETATM   14  CA  UNL     1      -9.549   5.867  71.417  1.00  0.00    -0.164 C  
HETATM   15  C   UNL     1      -9.125   5.131  72.706  1.00  0.00    -0.133 C  
HETATM   16  O   UNL     1      -8.427   6.760  68.733  1.00  0.00    -0.123 OA 
HETATM   17  C   UNL     1     -10.892   6.621  71.530  1.00  0.00    -0.239 C  
HETATM   18  OXT UNL     1      -9.856   4.428  73.388  1.00  0.00    -0.126 OA 
HETATM   19  O   UNL     1      -7.799   5.228  72.979  1.00  0.00    -0.096 OA 
HETATM   20  C   UNL     1      -8.433   7.375  69.773  1.00  0.00    -0.136 C  
HETATM   21  C   UNL     1     -12.013   5.979  72.352  1.00  0.00    -0.232 C  
HETATM   22  S   UNL     1     -10.430   8.231  72.323  1.00  0.00    -0.339 SA 
HETATM   23  C   UNL     1     -11.515   6.881  70.146  1.00  0.00    -0.354 C  
HETATM   24  C   UNL     1      -8.713   8.228  71.654  1.00  0.00    -0.163 C  
ENDBRANCH   9  12
ENDBRANCH   1   8
BRANCH   1  25
HETATM   25  N   UNL     1     -11.177  12.537  67.781  1.00  0.00    -0.252 N  
HETATM   26  H   UNL     1     -11.137  13.503  68.106  1.00  0.00     0.000 HD 
BRANCH  25  27
HETATM   27  C   UNL     1     -11.200  12.272  66.429  1.00  0.00    -0.324 C  
HETATM   28  O   UNL     1     -10.906  11.172  65.964  1.00  0.00    -0.243 OA 
BRANCH  27  29
HETATM   29  N   UNL     1     -11.625  13.314  65.617  1.00  0.00    -0.324 N  
HETATM   30  C   UNL     1     -10.851  14.538  65.509  1.00  0.00    -0.336 C  
HETATM   31  C   UNL     1     -11.553  15.358  64.436  1.00  0.00    -0.264 C  
HETATM   32  C   UNL     1     -12.597  13.278  64.613  1.00  0.00    -0.293 C  
HETATM   33  O   UNL     1     -13.372  12.367  64.377  1.00  0.00    -0.789 OA 
HETATM   34  N   UNL     1     -12.552  14.471  63.913  1.00  0.00    -0.789 NA 
ENDBRANCH  27  29
ENDBRANCH  25  27
ENDBRANCH   1  25
TORSDOF 6
ENDMDL
MODEL       42
REMARK 921   NORMALIZED FREE ENERGY PREDICTED BY IDOCK:   -6.11 KCAL/MOL
REMARK 922        TOTAL FREE ENERGY PREDICTED BY IDOCK:  -10.34 KCAL/MOL
REMARK 923 INTER-LIGAND FREE ENERGY PREDICTED BY IDOCK:   -9.21 KCAL/MOL
REMARK 924 INTRA-LIGAND FREE ENERGY PREDICTED BY IDOCK:   -1.13 KCAL/MOL
REMARK 927      BINDING AFFINITY PREDICTED BY RF-SCORE:    0.00 PKD
ROOT
HETATM    1  CA  UNL     1     -10.850  11.288  67.112  1.00  0.00    -0.270 C  
ENDROOT
BRANCH   1   2
HETATM    2  C   UNL     1      -9.811  10.949  66.038  1.00  0.00    -0.280 A  
HETATM    3  C   UNL     1      -7.547  10.231  65.514  1.00  0.00    -0.149 A  
HETATM    4  C   UNL     1      -7.929   9.951  64.203  1.00  0.00    -0.150 A  
HETATM    5  C   UNL     1      -9.226  10.234  63.786  1.00  0.00    -0.312 A  
HETATM    6  C   UNL     1      -8.479  10.731  66.424  1.00  0.00    -0.158 A  
HETATM    7  C   UNL     1     -10.158  10.742  64.693  1.00  0.00    -0.410 A  
ENDBRANCH   1   2
BRANCH   1   8
HETATM    8  C   UNL     1     -11.571  12.648  66.754  1.00  0.00    -0.374 C  
HETATM    9  N   UNL     1     -11.073  13.780  67.373  1.00  0.00    -0.290 N  
HETATM   10  H   UNL     1     -10.280  13.655  68.002  1.00  0.00     0.000 HD 
HETATM   11  O   UNL     1     -12.523  12.710  65.976  1.00  0.00    -0.555 OA 
BRANCH   9  12
HETATM   12  CA  UNL     1     -11.600  15.185  67.197  1.00  0.00    -0.199 C  
HETATM   13  N   UNL     1     -10.472  17.011  67.304  1.00  0.00    -0.316 N  
HETATM   14  CA  UNL     1      -9.051  17.353  67.604  1.00  0.00    -0.234 C  
HETATM   15  C   UNL     1      -8.993  18.662  68.422  1.00  0.00    -0.328 C  
HETATM   16  O   UNL     1     -10.373  16.173  65.130  1.00  0.00    -0.560 OA 
HETATM   17  C   UNL     1      -8.448  16.127  68.326  1.00  0.00    -0.180 C  
HETATM   18  OXT UNL     1      -8.015  19.069  69.030  1.00  0.00    -0.306 OA 
HETATM   19  O   UNL     1     -10.116  19.418  68.321  1.00  0.00    -0.386 OA 
HETATM   20  C   UNL     1     -10.785  16.159  66.267  1.00  0.00    -0.213 C  
HETATM   21  C   UNL     1      -7.203  16.341  69.191  1.00  0.00    -0.213 C  
HETATM   22  S   UNL     1      -9.825  15.534  69.415  1.00  0.00    -0.293 SA 
HETATM   23  C   UNL     1      -8.054  15.020  67.331  1.00  0.00    -0.216 C  
HETATM   24  C   UNL     1     -11.158  16.176  68.317  1.00  0.00    -0.348 C  
ENDBRANCH   9  12
ENDBRANCH   1   8
BRANCH   1  25
HETATM   25  N   UNL     1     -10.270  11.244  68.457  1.00  0.00    -0.198 N  
HETATM   26  H   UNL     1      -9.258  11.181  68.571  1.00  0.00     0.000 HD 
BRANCH  25  27
HETATM   27  C   UNL     1     -11.081  11.288  69.570  1.00  0.00    -0.238 C  
HETATM   28  O   UNL     1     -11.691  12.301  69.905  1.00  0.00    -0.309 OA 
BRANCH  27  29
HETATM   29  N   UNL     1     -11.210  10.096  70.269  1.00  0.00    -0.296 N  
HETATM   30  C   UNL     1     -10.040   9.349  70.691  1.00  0.00    -0.291 C  
HETATM   31  C   UNL     1     -10.581   8.205  71.536  1.00  0.00    -0.228 C  
HETATM   32  C   UNL     1     -12.347   9.597  70.912  1.00  0.00    -0.263 C  
HETATM   33  O   UNL     1     -13.483  10.034  70.834  1.00  0.00    -0.352 OA 
HETATM   34  N   UNL     1     -11.981   8.493  71.662  1.00  0.00    -0.297 NA 
ENDBRANCH  27  29
ENDBRANCH  25  27
ENDBRANCH   1  25
TORSDOF 6
ENDMDL
MODEL       43
REMARK 921   NORMALIZED FREE ENERGY PREDICTED BY IDOCK:   -6.06 KCAL/MOL
REMARK 922        TOTAL FREE ENERGY PREDICTED BY IDOCK:  -10.27 KCAL/MOL
REMARK 923 INTER-LIGAND FREE ENERGY PREDICTED BY IDOCK:   -8.82 KCAL/MOL
REMARK 924 INTRA-LIGAND FREE ENERGY PREDICTED BY IDOCK:   -1.46 KCAL/MOL
REMARK 927      BINDING AFFINITY PREDICTED BY RF-SCORE:    0.00 PKD
ROOT
HETATM    1  CA  UNL     1     -10.896  17.135  66.396  1.00  0.00     0.058 C  
ENDROOT
BRANCH   1   2
HETATM    2  C   UNL     1     -10.794  16.430  67.752  1.00  0.00    -0.306 A  
HETATM    3  C   UNL     1      -9.370  15.544  69.514  1.00  0.00    -0.276 A  
HETATM    4  C   UNL     1     -10.460  15.484  70.379  1.00  0.00    -0.222 A  
HETATM    5  C   UNL     1     -11.727  15.826  69.919  1.00  0.00    -0.365 A  
HETATM    6  C   UNL     1      -9.535  16.008  68.209  1.00  0.00    -0.206 A  
HETATM    7  C   UNL     1     -11.897  16.283  68.611  1.00  0.00     0.024 A  
ENDBRANCH   1   2
BRANCH   1   8
HETATM    8  C   UNL     1     -10.979  16.064  65.237  1.00  0.00    -0.299 C  
HETATM    9  N   UNL     1     -10.616  14.774  65.576  1.00  0.00    -0.333 N  
HETATM   10  H   UNL     1     -10.331  14.608  66.541  1.00  0.00     0.000 HD 
HETATM   11  O   UNL     1     -11.341  16.349  64.095  1.00  0.00    -0.941 OA 
BRANCH   9  12
HETATM   12  CA  UNL     1     -10.606  13.586  64.640  1.00  0.00    -0.427 C  
HETATM   13  N   UNL     1     -10.836  11.518  65.175  1.00  0.00    -0.285 N  
HETATM   14  CA  UNL     1     -10.989  10.776  66.460  1.00  0.00    -0.075 C  
HETATM   15  C   UNL     1     -10.218   9.440  66.383  1.00  0.00    -0.230 C  
HETATM   16  O   UNL     1     -12.942  12.468  64.853  1.00  0.00    -0.821 OA 
HETATM   17  C   UNL     1     -10.502  11.725  67.577  1.00  0.00    -0.202 C  
HETATM   18  OXT UNL     1      -9.940   8.732  67.339  1.00  0.00    -0.176 OA 
HETATM   19  O   UNL     1      -9.958   9.033  65.115  1.00  0.00     0.249 OA 
HETATM   20  C   UNL     1     -11.734  12.504  64.823  1.00  0.00    -0.358 C  
HETATM   21  C   UNL     1     -10.065  11.109  68.908  1.00  0.00    -0.199 C  
HETATM   22  S   UNL     1      -9.045  12.586  66.822  1.00  0.00    -0.195 SA 
HETATM   23  C   UNL     1     -11.582  12.757  67.953  1.00  0.00    -0.400 C  
HETATM   24  C   UNL     1      -9.669  12.425  65.094  1.00  0.00    -0.050 C  
ENDBRANCH   9  12
ENDBRANCH   1   8
BRANCH   1  25
HETATM   25  N   UNL     1      -9.835  18.132  66.225  1.00  0.00    -0.328 N  
HETATM   26  H   UNL     1      -9.177  18.044  65.451  1.00  0.00     0.000 HD 
BRANCH  25  27
HETATM   27  C   UNL     1      -9.721  19.188  67.102  1.00  0.00    -0.327 C  
HETATM   28  O   UNL     1     -10.696  19.726  67.623  1.00  0.00    -0.420 OA 
BRANCH  27  29
HETATM   29  N   UNL     1      -8.425  19.582  67.406  1.00  0.00    -0.292 N  
HETATM   30  C   UNL     1      -7.952  19.594  68.779  1.00  0.00    -0.279 C  
HETATM   31  C   UNL     1      -6.472  19.935  68.686  1.00  0.00    -0.291 C  
HETATM   32  C   UNL     1      -7.343  19.721  66.531  1.00  0.00    -0.259 C  
HETATM   33  O   UNL     1      -7.378  19.687  65.313  1.00  0.00    -0.400 OA 
HETATM   34  N   UNL     1      -6.195  19.920  67.278  1.00  0.00    -0.184 NA 
ENDBRANCH  27  29
ENDBRANCH  25  27
ENDBRANCH   1  25
TORSDOF 6
ENDMDL
MODEL       44
REMARK 921   NORMALIZED FREE ENERGY PREDICTED BY IDOCK:   -6.05 KCAL/MOL
REMARK 922        TOTAL FREE ENERGY PREDICTED BY IDOCK:  -10.27 KCAL/MOL
REMARK 923 INTER-LIGAND FREE ENERGY PREDICTED BY IDOCK:   -8.96 KCAL/MOL
REMARK 924 INTRA-LIGAND FREE ENERGY PREDICTED BY IDOCK:   -1.31 KCAL/MOL
REMARK 927      BINDING AFFINITY PREDICTED BY RF-SCORE:    0.00 PKD
ROOT
HETATM    1  CA  UNL     1     -10.503  10.975  69.057  1.00  0.00    -0.216 C  
ENDROOT
BRANCH   1   2
HETATM    2  C   UNL     1     -11.335  10.517  70.260  1.00  0.00    -0.407 A  
HETATM    3  C   UNL     1     -13.203  10.945  71.757  1.00  0.00    -0.513 A  
HETATM    4  C   UNL     1     -13.160   9.626  72.204  1.00  0.00    -0.520 A  
HETATM    5  C   UNL     1     -12.167   8.770  71.737  1.00  0.00    -0.415 A  
HETATM    6  C   UNL     1     -12.294  11.390  70.797  1.00  0.00    -0.483 A  
HETATM    7  C   UNL     1     -11.252   9.215  70.781  1.00  0.00    -0.336 A  
ENDBRANCH   1   2
BRANCH   1   8
HETATM    8  C   UNL     1     -11.335  11.997  68.184  1.00  0.00    -0.291 C  
HETATM    9  N   UNL     1     -11.105  13.336  68.436  1.00  0.00    -0.257 N  
HETATM   10  H   UNL     1     -10.418  13.564  69.154  1.00  0.00     0.000 HD 
HETATM   11  O   UNL     1     -12.144  11.634  67.330  1.00  0.00    -0.605 OA 
BRANCH   9  12
HETATM   12  CA  UNL     1     -11.784  14.493  67.739  1.00  0.00    -0.374 C  
HETATM   13  N   UNL     1     -10.862  16.310  67.054  1.00  0.00    -0.236 N  
HETATM   14  CA  UNL     1      -9.486  16.882  67.126  1.00  0.00    -0.237 C  
HETATM   15  C   UNL     1      -9.569  18.407  67.349  1.00  0.00    -0.286 C  
HETATM   16  O   UNL     1     -10.679  14.683  65.394  1.00  0.00    -0.322 OA 
HETATM   17  C   UNL     1      -8.750  16.116  68.247  1.00  0.00    -0.180 C  
HETATM   18  OXT UNL     1      -8.638  19.119  67.697  1.00  0.00    -0.287 OA 
HETATM   19  O   UNL     1     -10.768  18.944  67.007  1.00  0.00    -0.430 OA 
HETATM   20  C   UNL     1     -11.083  15.086  66.459  1.00  0.00    -0.329 C  
HETATM   21  C   UNL     1      -7.533  16.780  68.895  1.00  0.00    -0.240 C  
HETATM   22  S   UNL     1     -10.049  15.877  69.547  1.00  0.00    -0.271 SA 
HETATM   23  C   UNL     1      -8.241  14.747  67.760  1.00  0.00    -0.167 C  
HETATM   24  C   UNL     1     -11.449  15.889  68.347  1.00  0.00    -0.348 C  
ENDBRANCH   9  12
ENDBRANCH   1   8
BRANCH   1  25
HETATM   25  N   UNL     1      -9.964   9.836  68.309  1.00  0.00    -0.149 N  
HETATM   26  H   UNL     1     -10.601   9.157  67.890  1.00  0.00     0.000 HD 
BRANCH  25  27
HETATM   27  C   UNL     1      -8.604   9.674  68.165  1.00  0.00    -0.119 C  
HETATM   28  O   UNL     1      -8.063   9.553  67.067  1.00  0.00    -0.111 OA 
BRANCH  27  29
HETATM   29  N   UNL     1      -7.866   9.706  69.340  1.00  0.00    -0.094 N  
HETATM   30  C   UNL     1      -7.703   8.513  70.150  1.00  0.00    -0.086 C  
HETATM   31  C   UNL     1      -6.730   8.909  71.251  1.00  0.00    -0.083 C  
HETATM   32  C   UNL     1      -6.970  10.692  69.764  1.00  0.00    -0.145 C  
HETATM   33  O   UNL     1      -6.798  11.790  69.262  1.00  0.00    -0.108 OA 
HETATM   34  N   UNL     1      -6.296  10.226  70.879  1.00  0.00    -0.320 NA 
ENDBRANCH  27  29
ENDBRANCH  25  27
ENDBRANCH   1  25
TORSDOF 6
ENDMDL
MODEL       45
REMARK 921   NORMALIZED FREE ENERGY PREDICTED BY IDOCK:   -6.05 KCAL/MOL
REMARK 922        TOTAL FREE ENERGY PREDICTED BY IDOCK:  -10.27 KCAL/MOL
REMARK 923 INTER-LIGAND FREE ENERGY PREDICTED BY IDOCK:   -8.48 KCAL/MOL
REMARK 924 INTRA-LIGAND FREE ENERGY PREDICTED BY IDOCK:   -1.79 KCAL/MOL
REMARK 927      BINDING AFFINITY PREDICTED BY RF-SCORE:    0.00 PKD
ROOT
HETATM    1  CA  UNL     1     -10.021  14.288  68.228  1.00  0.00    -0.239 C  
ENDROOT
BRANCH   1   2
HETATM    2  C   UNL     1     -10.702  13.960  66.896  1.00  0.00    -0.284 A  
HETATM    3  C   UNL     1     -10.562  13.897  64.469  1.00  0.00    -0.375 A  
HETATM    4  C   UNL     1     -11.678  13.066  64.416  1.00  0.00    -0.426 A  
HETATM    5  C   UNL     1     -12.351  12.736  65.588  1.00  0.00    -0.444 A  
HETATM    6  C   UNL     1     -10.080  14.346  65.699  1.00  0.00    -0.377 A  
HETATM    7  C   UNL     1     -11.875  13.190  66.819  1.00  0.00    -0.444 A  
ENDBRANCH   1   2
BRANCH   1   8
HETATM    8  C   UNL     1      -8.619  13.562  68.311  1.00  0.00    -0.168 C  
HETATM    9  N   UNL     1      -8.642  12.247  68.738  1.00  0.00    -0.367 N  
HETATM   10  H   UNL     1      -9.553  11.845  68.959  1.00  0.00     0.000 HD 
HETATM   11  O   UNL     1      -7.564  14.123  68.018  1.00  0.00    -0.113 OA 
BRANCH   9  12
HETATM   12  CA  UNL     1      -7.434  11.354  68.905  1.00  0.00    -0.113 C  
HETATM   13  N   UNL     1      -7.130   9.415  68.030  1.00  0.00    -0.080 N  
HETATM   14  CA  UNL     1      -7.950   8.507  67.176  1.00  0.00    -0.101 C  
HETATM   15  C   UNL     1      -7.714   7.041  67.600  1.00  0.00    -0.112 C  
HETATM   16  O   UNL     1      -6.414  11.053  66.534  1.00  0.00    -0.112 OA 
HETATM   17  C   UNL     1      -9.415   8.978  67.314  1.00  0.00    -0.149 C  
HETATM   18  OXT UNL     1      -8.412   6.093  67.274  1.00  0.00    -0.106 OA 
HETATM   19  O   UNL     1      -6.564   6.854  68.297  1.00  0.00    -0.053 OA 
HETATM   20  C   UNL     1      -6.831  10.693  67.609  1.00  0.00    -0.074 C  
HETATM   21  C   UNL     1     -10.528   7.981  66.982  1.00  0.00    -0.410 C  
HETATM   22  S   UNL     1      -9.562   9.449  69.100  1.00  0.00    -0.169 SA 
HETATM   23  C   UNL     1      -9.702  10.203  66.425  1.00  0.00    -0.259 C  
HETATM   24  C   UNL     1      -7.778   9.879  69.278  1.00  0.00    -0.109 C  
ENDBRANCH   9  12
ENDBRANCH   1   8
BRANCH   1  25
HETATM   25  N   UNL     1     -10.907  14.027  69.367  1.00  0.00    -0.416 N  
HETATM   26  H   UNL     1     -10.972  13.085  69.753  1.00  0.00     0.000 HD 
BRANCH  25  27
HETATM   27  C   UNL     1     -11.653  15.045  69.919  1.00  0.00    -0.293 C  
HETATM   28  O   UNL     1     -12.098  15.977  69.253  1.00  0.00    -0.290 OA 
BRANCH  27  29
HETATM   29  N   UNL     1     -11.918  14.929  71.277  1.00  0.00    -0.321 N  
HETATM   30  C   UNL     1     -11.786  16.072  72.162  1.00  0.00    -0.528 C  
HETATM   31  C   UNL     1     -12.295  15.589  73.513  1.00  0.00    -0.547 C  
HETATM   32  C   UNL     1     -12.594  13.897  71.934  1.00  0.00    -0.222 C  
HETATM   33  O   UNL     1     -12.928  12.823  71.462  1.00  0.00    -0.377 OA 
HETATM   34  N   UNL     1     -12.824  14.283  73.243  1.00  0.00    -0.397 NA 
ENDBRANCH  27  29
ENDBRANCH  25  27
ENDBRANCH   1  25
TORSDOF 6
ENDMDL
MODEL       46
REMARK 921   NORMALIZED FREE ENERGY PREDICTED BY IDOCK:   -6.05 KCAL/MOL
REMARK 922        TOTAL FREE ENERGY PREDICTED BY IDOCK:  -10.26 KCAL/MOL
REMARK 923 INTER-LIGAND FREE ENERGY PREDICTED BY IDOCK:   -8.86 KCAL/MOL
REMARK 924 INTRA-LIGAND FREE ENERGY PREDICTED BY IDOCK:   -1.40 KCAL/MOL
REMARK 927      BINDING AFFINITY PREDICTED BY RF-SCORE:    0.00 PKD
ROOT
HETATM    1  CA  UNL     1     -10.459  14.284  66.626  1.00  0.00    -0.278 C  
ENDROOT
BRANCH   1   2
HETATM    2  C   UNL     1     -11.053  13.542  65.424  1.00  0.00    -0.302 A  
HETATM    3  C   UNL     1     -10.667  12.200  63.433  1.00  0.00    -0.461 A  
HETATM    4  C   UNL     1     -12.014  11.846  63.398  1.00  0.00    -0.528 A  
HETATM    5  C   UNL     1     -12.896  12.390  64.327  1.00  0.00    -0.356 A  
HETATM    6  C   UNL     1     -10.190  13.046  64.434  1.00  0.00    -0.335 A  
HETATM    7  C   UNL     1     -12.422  13.243  65.325  1.00  0.00    -0.543 A  
ENDBRANCH   1   2
BRANCH   1   8
HETATM    8  C   UNL     1     -10.504  13.359  67.907  1.00  0.00    -0.240 C  
HETATM    9  N   UNL     1     -10.021  12.073  67.744  1.00  0.00    -0.191 N  
HETATM   10  H   UNL     1      -9.669  11.822  66.820  1.00  0.00     0.000 HD 
HETATM   11  O   UNL     1     -10.943  13.746  68.989  1.00  0.00    -0.251 OA 
BRANCH   9  12
HETATM   12  CA  UNL     1      -9.970  11.008  68.815  1.00  0.00    -0.207 C  
HETATM   13  N   UNL     1      -8.953   9.118  68.711  1.00  0.00    -0.136 N  
HETATM   14  CA  UNL     1      -8.169   8.403  67.663  1.00  0.00    -0.126 C  
HETATM   15  C   UNL     1      -8.473   6.891  67.729  1.00  0.00    -0.123 C  
HETATM   16  O   UNL     1      -7.468  10.749  69.469  1.00  0.00    -0.142 OA 
HETATM   17  C   UNL     1      -8.533   9.065  66.315  1.00  0.00    -0.125 C  
HETATM   18  OXT UNL     1      -8.192   6.078  66.860  1.00  0.00    -0.105 OA 
HETATM   19  O   UNL     1      -8.993   6.491  68.916  1.00  0.00    -0.129 OA 
HETATM   20  C   UNL     1      -8.568  10.370  69.143  1.00  0.00    -0.164 C  
HETATM   21  C   UNL     1      -8.300   8.263  65.032  1.00  0.00    -0.158 C  
HETATM   22  S   UNL     1     -10.346   9.414  66.468  1.00  0.00    -0.146 SA 
HETATM   23  C   UNL     1      -7.763  10.382  66.104  1.00  0.00    -0.129 C  
HETATM   24  C   UNL     1     -10.302   9.573  68.304  1.00  0.00    -0.207 C  
ENDBRANCH   9  12
ENDBRANCH   1   8
BRANCH   1  25
HETATM   25  N   UNL     1     -11.076  15.601  66.807  1.00  0.00    -0.235 N  
HETATM   26  H   UNL     1     -11.779  15.735  67.534  1.00  0.00     0.000 HD 
BRANCH  25  27
HETATM   27  C   UNL     1     -10.715  16.659  66.002  1.00  0.00    -0.151 C  
HETATM   28  O   UNL     1     -10.734  16.595  64.775  1.00  0.00    -0.721 OA 
BRANCH  27  29
HETATM   29  N   UNL     1     -10.371  17.829  66.664  1.00  0.00    -0.352 N  
HETATM   30  C   UNL     1     -10.428  19.113  65.988  1.00  0.00    -0.467 C  
HETATM   31  C   UNL     1     -10.126  20.144  67.065  1.00  0.00    -0.459 C  
HETATM   32  C   UNL     1     -10.227  18.026  68.041  1.00  0.00    -0.382 C  
HETATM   33  O   UNL     1     -10.210  17.166  68.905  1.00  0.00    -0.299 OA 
HETATM   34  N   UNL     1     -10.091  19.382  68.281  1.00  0.00    -0.411 NA 
ENDBRANCH  27  29
ENDBRANCH  25  27
ENDBRANCH   1  25
TORSDOF 6
ENDMDL
MODEL       47
REMARK 921   NORMALIZED FREE ENERGY PREDICTED BY IDOCK:   -6.04 KCAL/MOL
REMARK 922        TOTAL FREE ENERGY PREDICTED BY IDOCK:  -10.25 KCAL/MOL
REMARK 923 INTER-LIGAND FREE ENERGY PREDICTED BY IDOCK:   -8.93 KCAL/MOL
REMARK 924 INTRA-LIGAND FREE ENERGY PREDICTED BY IDOCK:   -1.32 KCAL/MOL
REMARK 927      BINDING AFFINITY PREDICTED BY RF-SCORE:    0.00 PKD
ROOT
HETATM    1  CA  UNL     1     -10.417  13.248  68.035  1.00  0.00    -0.242 C  
ENDROOT
BRANCH   1   2
HETATM    2  C   UNL     1     -10.533  11.808  67.526  1.00  0.00    -0.228 A  
HETATM    3  C   UNL     1     -10.160  10.224  65.718  1.00  0.00    -0.325 A  
HETATM    4  C   UNL     1     -10.343   9.161  66.598  1.00  0.00    -0.289 A  
HETATM    5  C   UNL     1     -10.689   9.411  67.922  1.00  0.00    -0.269 A  
HETATM    6  C   UNL     1     -10.260  11.539  66.175  1.00  0.00    -0.272 A  
HETATM    7  C   UNL     1     -10.796  10.725  68.381  1.00  0.00    -0.276 A  
ENDBRANCH   1   2
BRANCH   1   8
HETATM    8  C   UNL     1      -8.918  13.738  67.934  1.00  0.00    -0.193 C  
HETATM    9  N   UNL     1      -8.724  14.987  67.375  1.00  0.00    -0.183 N  
HETATM   10  H   UNL     1      -9.555  15.499  67.078  1.00  0.00     0.000 HD 
HETATM   11  O   UNL     1      -7.970  13.055  68.323  1.00  0.00    -0.139 OA 
BRANCH   9  12
HETATM   12  CA  UNL     1      -7.387  15.661  67.165  1.00  0.00    -0.212 C  
HETATM   13  N   UNL     1      -6.882  17.699  67.623  1.00  0.00    -0.172 N  
HETATM   14  CA  UNL     1      -7.634  18.875  68.149  1.00  0.00    -0.277 C  
HETATM   15  C   UNL     1      -7.146  20.160  67.446  1.00  0.00    -0.269 C  
HETATM   16  O   UNL     1      -6.555  16.382  69.520  1.00  0.00    -0.205 OA 
HETATM   17  C   UNL     1      -9.133  18.568  67.940  1.00  0.00    -0.290 C  
HETATM   18  OXT UNL     1      -7.723  21.237  67.467  1.00  0.00    -0.322 OA 
HETATM   19  O   UNL     1      -5.922  20.037  66.872  1.00  0.00    -0.172 OA 
HETATM   20  C   UNL     1      -6.814  16.528  68.348  1.00  0.00    -0.145 C  
HETATM   21  C   UNL     1     -10.112  19.744  67.905  1.00  0.00    -0.558 C  
HETATM   22  S   UNL     1      -9.184  17.713  66.297  1.00  0.00    -0.135 SA 
HETATM   23  C   UNL     1      -9.678  17.631  69.033  1.00  0.00    -0.189 C  
HETATM   24  C   UNL     1      -7.475  17.038  66.438  1.00  0.00    -0.301 C  
ENDBRANCH   9  12
ENDBRANCH   1   8
BRANCH   1  25
HETATM   25  N   UNL     1     -11.017  13.401  69.364  1.00  0.00    -0.440 N  
HETATM   26  H   UNL     1     -10.775  12.745  70.107  1.00  0.00     0.000 HD 
BRANCH  25  27
HETATM   27  C   UNL     1     -11.905  14.423  69.617  1.00  0.00    -0.321 C  
HETATM   28  O   UNL     1     -12.123  15.326  68.811  1.00  0.00    -0.273 OA 
BRANCH  27  29
HETATM   29  N   UNL     1     -12.581  14.348  70.826  1.00  0.00    -0.338 N  
HETATM   30  C   UNL     1     -13.157  13.096  71.282  1.00  0.00    -0.193 C  
HETATM   31  C   UNL     1     -13.674  13.383  72.684  1.00  0.00    -0.400 C  
HETATM   32  C   UNL     1     -12.570  15.273  71.875  1.00  0.00    -0.353 C  
HETATM   33  O   UNL     1     -12.099  16.398  71.854  1.00  0.00    -0.430 OA 
HETATM   34  N   UNL     1     -13.202  14.708  72.969  1.00  0.00    -0.524 NA 
ENDBRANCH  27  29
ENDBRANCH  25  27
ENDBRANCH   1  25
TORSDOF 6
ENDMDL
MODEL       48
REMARK 921   NORMALIZED FREE ENERGY PREDICTED BY IDOCK:   -6.02 KCAL/MOL
REMARK 922        TOTAL FREE ENERGY PREDICTED BY IDOCK:  -10.22 KCAL/MOL
REMARK 923 INTER-LIGAND FREE ENERGY PREDICTED BY IDOCK:   -8.96 KCAL/MOL
REMARK 924 INTRA-LIGAND FREE ENERGY PREDICTED BY IDOCK:   -1.26 KCAL/MOL
REMARK 927      BINDING AFFINITY PREDICTED BY RF-SCORE:    0.00 PKD
ROOT
HETATM    1  CA  UNL     1     -10.745  16.132  67.843  1.00  0.00    -0.321 C  
ENDROOT
BRANCH   1   2
HETATM    2  C   UNL     1     -10.232  17.563  68.031  1.00  0.00    -0.354 A  
HETATM    3  C   UNL     1      -8.362  19.033  68.541  1.00  0.00    -0.387 A  
HETATM    4  C   UNL     1      -9.071  20.124  68.045  1.00  0.00    -0.296 A  
HETATM    5  C   UNL     1     -10.382  19.956  67.608  1.00  0.00    -0.557 A  
HETATM    6  C   UNL     1      -8.938  17.762  68.539  1.00  0.00    -0.288 A  
HETATM    7  C   UNL     1     -10.963  18.687  67.613  1.00  0.00    -0.213 A  
ENDBRANCH   1   2
BRANCH   1   8
HETATM    8  C   UNL     1     -10.568  15.689  66.336  1.00  0.00    -0.308 C  
HETATM    9  N   UNL     1     -11.206  14.518  65.969  1.00  0.00    -0.332 N  
HETATM   10  H   UNL     1     -11.744  14.036  66.689  1.00  0.00     0.000 HD 
HETATM   11  O   UNL     1      -9.902  16.336  65.528  1.00  0.00    -0.489 OA 
BRANCH   9  12
HETATM   12  CA  UNL     1     -11.176  13.892  64.594  1.00  0.00    -0.378 C  
HETATM   13  N   UNL     1     -10.819  11.826  64.122  1.00  0.00    -0.331 N  
HETATM   14  CA  UNL     1     -10.484  10.609  64.918  1.00  0.00    -0.212 C  
HETATM   15  C   UNL     1      -9.490   9.730  64.129  1.00  0.00    -0.097 C  
HETATM   16  O   UNL     1     -13.091  12.136  64.549  1.00  0.00    -0.720 OA 
HETATM   17  C   UNL     1      -9.949  11.108  66.279  1.00  0.00    -0.219 C  
HETATM   18  OXT UNL     1      -8.838   8.810  64.600  1.00  0.00    -0.136 OA 
HETATM   19  O   UNL     1      -9.474   9.987  62.797  1.00  0.00    -0.295 OA 
HETATM   20  C   UNL     1     -11.965  12.545  64.389  1.00  0.00    -0.404 C  
HETATM   21  C   UNL     1      -9.072  10.159  67.100  1.00  0.00    -0.149 C  
HETATM   22  S   UNL     1      -8.944  12.601  65.838  1.00  0.00     0.455 SA 
HETATM   23  C   UNL     1     -11.094  11.509  67.226  1.00  0.00    -0.351 C  
HETATM   24  C   UNL     1      -9.930  12.992  64.330  1.00  0.00    -0.105 C  
ENDBRANCH   9  12
ENDBRANCH   1   8
BRANCH   1  25
HETATM   25  N   UNL     1     -12.105  15.973  68.366  1.00  0.00    -0.251 N  
HETATM   26  H   UNL     1     -12.844  16.603  68.055  1.00  0.00     0.000 HD 
BRANCH  25  27
HETATM   27  C   UNL     1     -12.392  14.978  69.275  1.00  0.00    -0.094 C  
HETATM   28  O   UNL     1     -12.406  13.787  68.971  1.00  0.00    -0.302 OA 
BRANCH  27  29
HETATM   29  N   UNL     1     -12.619  15.400  70.577  1.00  0.00    -0.419 N  
HETATM   30  C   UNL     1     -13.886  15.136  71.236  1.00  0.00    -0.472 C  
HETATM   31  C   UNL     1     -13.696  15.613  72.669  1.00  0.00    -0.579 C  
HETATM   32  C   UNL     1     -11.677  15.827  71.518  1.00  0.00    -0.453 C  
HETATM   33  O   UNL     1     -10.500  16.071  71.315  1.00  0.00     0.528 OA 
HETATM   34  N   UNL     1     -12.302  15.945  72.747  1.00  0.00    -0.435 NA 
ENDBRANCH  27  29
ENDBRANCH  25  27
ENDBRANCH   1  25
TORSDOF 6
ENDMDL
MODEL       49
REMARK 921   NORMALIZED FREE ENERGY PREDICTED BY IDOCK:   -5.98 KCAL/MOL
REMARK 922        TOTAL FREE ENERGY PREDICTED BY IDOCK:  -10.18 KCAL/MOL
REMARK 923 INTER-LIGAND FREE ENERGY PREDICTED BY IDOCK:   -9.13 KCAL/MOL
REMARK 924 INTRA-LIGAND FREE ENERGY PREDICTED BY IDOCK:   -1.04 KCAL/MOL
REMARK 927      BINDING AFFINITY PREDICTED BY RF-SCORE:    0.00 PKD
ROOT
HETATM    1  CA  UNL     1     -10.215  11.749  67.393  1.00  0.00    -0.199 C  
ENDROOT
BRANCH   1   2
HETATM    2  C   UNL     1     -10.918  11.878  66.038  1.00  0.00    -0.355 A  
HETATM    3  C   UNL     1     -12.529  13.066  64.657  1.00  0.00    -0.460 A  
HETATM    4  C   UNL     1     -12.009  12.463  63.514  1.00  0.00    -0.627 A  
HETATM    5  C   UNL     1     -10.995  11.517  63.632  1.00  0.00    -0.482 A  
HETATM    6  C   UNL     1     -11.993  12.773  65.911  1.00  0.00    -0.506 A  
HETATM    7  C   UNL     1     -10.462  11.217  64.886  1.00  0.00    -0.372 A  
ENDBRANCH   1   2
BRANCH   1   8
HETATM    8  C   UNL     1      -8.778  12.402  67.320  1.00  0.00    -0.191 C  
HETATM    9  N   UNL     1      -8.693  13.727  67.706  1.00  0.00    -0.170 N  
HETATM   10  H   UNL     1      -9.555  14.178  68.014  1.00  0.00     0.000 HD 
HETATM   11  O   UNL     1      -7.785  11.781  66.940  1.00  0.00    -0.156 OA 
BRANCH   9  12
HETATM   12  CA  UNL     1      -7.435  14.565  67.714  1.00  0.00    -0.169 C  
HETATM   13  N   UNL     1      -7.282  16.662  68.154  1.00  0.00    -0.153 N  
HETATM   14  CA  UNL     1      -8.259  17.743  68.473  1.00  0.00    -0.296 C  
HETATM   15  C   UNL     1      -7.810  19.062  67.807  1.00  0.00    -0.251 C  
HETATM   16  O   UNL     1      -7.160  15.449  70.142  1.00  0.00    -0.063 OA 
HETATM   17  C   UNL     1      -9.642  17.237  68.006  1.00  0.00    -0.274 C  
HETATM   18  OXT UNL     1      -8.510  20.054  67.668  1.00  0.00    -0.320 OA 
HETATM   19  O   UNL     1      -6.494  19.085  67.476  1.00  0.00    -0.193 OA 
HETATM   20  C   UNL     1      -7.208  15.529  68.936  1.00  0.00    -0.142 C  
HETATM   21  C   UNL     1     -10.735  18.273  67.732  1.00  0.00    -0.358 C  
HETATM   22  S   UNL     1      -9.275  16.340  66.426  1.00  0.00    -0.325 SA 
HETATM   23  C   UNL     1     -10.264  16.265  69.026  1.00  0.00    -0.261 C  
HETATM   24  C   UNL     1      -7.553  15.898  66.914  1.00  0.00    -0.219 C  
ENDBRANCH   9  12
ENDBRANCH   1   8
BRANCH   1  25
HETATM   25  N   UNL     1     -10.228  10.366  67.878  1.00  0.00    -0.170 N  
HETATM   26  H   UNL     1     -10.446   9.605  67.234  1.00  0.00     0.000 HD 
BRANCH  25  27
HETATM   27  C   UNL     1      -9.949  10.085  69.198  1.00  0.00    -0.204 C  
HETATM   28  O   UNL     1      -8.813   9.836  69.596  1.00  0.00    -0.178 OA 
BRANCH  27  29
HETATM   29  N   UNL     1     -11.028  10.149  70.069  1.00  0.00    -0.286 N  
HETATM   30  C   UNL     1     -11.250   9.109  71.057  1.00  0.00    -0.312 C  
HETATM   31  C   UNL     1     -12.419   9.603  71.897  1.00  0.00    -0.377 C  
HETATM   32  C   UNL     1     -11.838  11.253  70.352  1.00  0.00    -0.350 C  
HETATM   33  O   UNL     1     -11.854  12.319  69.762  1.00  0.00    -0.313 OA 
HETATM   34  N   UNL     1     -12.649  10.940  71.429  1.00  0.00    -0.402 NA 
ENDBRANCH  27  29
ENDBRANCH  25  27
ENDBRANCH   1  25
TORSDOF 6
ENDMDL
MODEL       50
REMARK 921   NORMALIZED FREE ENERGY PREDICTED BY IDOCK:   -5.95 KCAL/MOL
REMARK 922        TOTAL FREE ENERGY PREDICTED BY IDOCK:  -10.14 KCAL/MOL
REMARK 923 INTER-LIGAND FREE ENERGY PREDICTED BY IDOCK:   -8.32 KCAL/MOL
REMARK 924 INTRA-LIGAND FREE ENERGY PREDICTED BY IDOCK:   -1.82 KCAL/MOL
REMARK 927      BINDING AFFINITY PREDICTED BY RF-SCORE:    0.00 PKD
ROOT
HETATM    1  CA  UNL     1     -10.263  12.243  67.799  1.00  0.00    -0.202 C  
ENDROOT
BRANCH   1   2
HETATM    2  C   UNL     1      -9.411  11.449  66.804  1.00  0.00    -0.197 A  
HETATM    3  C   UNL     1      -7.204  10.674  66.138  1.00  0.00    -0.138 A  
HETATM    4  C   UNL     1      -7.780   9.739  65.281  1.00  0.00    -0.121 A  
HETATM    5  C   UNL     1      -9.162   9.701  65.127  1.00  0.00    -0.305 A  
HETATM    6  C   UNL     1      -8.012  11.527  66.890  1.00  0.00    -0.164 A  
HETATM    7  C   UNL     1      -9.973  10.559  65.873  1.00  0.00    -0.313 A  
ENDBRANCH   1   2
BRANCH   1   8
HETATM    8  C   UNL     1     -11.014  11.253  68.776  1.00  0.00    -0.220 C  
HETATM    9  N   UNL     1     -10.215  10.547  69.656  1.00  0.00    -0.372 N  
HETATM   10  H   UNL     1      -9.211  10.720  69.615  1.00  0.00     0.000 HD 
HETATM   11  O   UNL     1     -12.236  11.108  68.762  1.00  0.00    -0.555 OA 
BRANCH   9  12
HETATM   12  CA  UNL     1     -10.701   9.540  70.674  1.00  0.00    -0.309 C  
HETATM   13  N   UNL     1      -9.943   7.555  70.991  1.00  0.00    -0.186 N  
HETATM   14  CA  UNL     1      -8.902   6.710  70.336  1.00  0.00    -0.152 C  
HETATM   15  C   UNL     1      -9.377   5.242  70.293  1.00  0.00    -0.158 C  
HETATM   16  O   UNL     1      -8.689   9.066  72.249  1.00  0.00    -0.367 OA 
HETATM   17  C   UNL     1      -8.642   7.333  68.946  1.00  0.00    -0.129 C  
HETATM   18  OXT UNL     1      -8.877   4.360  69.610  1.00  0.00    -0.082 OA 
HETATM   19  O   UNL     1     -10.356   4.959  71.190  1.00  0.00    -0.209 OA 
HETATM   20  C   UNL     1      -9.615   8.783  71.525  1.00  0.00    -0.284 C  
HETATM   21  C   UNL     1      -8.027   6.445  67.862  1.00  0.00    -0.111 C  
HETATM   22  S   UNL     1     -10.323   7.870  68.380  1.00  0.00    -0.175 SA 
HETATM   23  C   UNL     1      -7.707   8.553  69.037  1.00  0.00    -0.096 C  
HETATM   24  C   UNL     1     -10.971   8.121  70.088  1.00  0.00    -0.223 C  
ENDBRANCH   9  12
ENDBRANCH   1   8
BRANCH   1  25
HETATM   25  N   UNL     1     -11.137  13.202  67.117  1.00  0.00    -0.272 N  
HETATM   26  H   UNL     1     -11.541  12.964  66.211  1.00  0.00     0.000 HD 
BRANCH  25  27
HETATM   27  C   UNL     1     -11.418  14.422  67.691  1.00  0.00    -0.346 C  
HETATM   28  O   UNL     1     -12.025  14.531  68.754  1.00  0.00    -0.313 OA 
BRANCH  27  29
HETATM   29  N   UNL     1     -10.928  15.532  67.017  1.00  0.00    -0.311 N  
HETATM   30  C   UNL     1     -10.639  16.767  67.724  1.00  0.00    -0.341 C  
HETATM   31  C   UNL     1      -9.996  17.677  66.688  1.00  0.00    -0.328 C  
HETATM   32  C   UNL     1     -10.375  15.582  65.733  1.00  0.00    -0.363 C  
HETATM   33  O   UNL     1     -10.376  14.690  64.901  1.00  0.00    -0.411 OA 
HETATM   34  N   UNL     1      -9.820  16.835  65.540  1.00  0.00    -0.563 NA 
ENDBRANCH  27  29
ENDBRANCH  25  27
ENDBRANCH   1  25
TORSDOF 6
ENDMDL
MODEL       51
REMARK 921   NORMALIZED FREE ENERGY PREDICTED BY IDOCK:   -5.93 KCAL/MOL
REMARK 922        TOTAL FREE ENERGY PREDICTED BY IDOCK:  -10.11 KCAL/MOL
REMARK 923 INTER-LIGAND FREE ENERGY PREDICTED BY IDOCK:   -8.98 KCAL/MOL
REMARK 924 INTRA-LIGAND FREE ENERGY PREDICTED BY IDOCK:   -1.13 KCAL/MOL
REMARK 927      BINDING AFFINITY PREDICTED BY RF-SCORE:    0.00 PKD
ROOT
HETATM    1  CA  UNL     1     -10.539  11.441  66.982  1.00  0.00    -0.248 C  
ENDROOT
BRANCH   1   2
HETATM    2  C   UNL     1     -11.015  10.759  68.268  1.00  0.00    -0.307 A  
HETATM    3  C   UNL     1     -10.637   9.051  69.958  1.00  0.00    -0.246 A  
HETATM    4  C   UNL     1     -11.561   9.664  70.800  1.00  0.00    -0.395 A  
HETATM    5  C   UNL     1     -12.266  10.779  70.357  1.00  0.00    -0.437 A  
HETATM    6  C   UNL     1     -10.368   9.590  68.699  1.00  0.00    -0.229 A  
HETATM    7  C   UNL     1     -12.005  11.316  69.095  1.00  0.00    -0.405 A  
ENDBRANCH   1   2
BRANCH   1   8
HETATM    8  C   UNL     1     -11.365  12.766  66.737  1.00  0.00    -0.313 C  
HETATM    9  N   UNL     1     -10.838  13.920  67.286  1.00  0.00    -0.284 N  
HETATM   10  H   UNL     1      -9.960  13.833  67.798  1.00  0.00     0.000 HD 
HETATM   11  O   UNL     1     -12.418  12.783  66.099  1.00  0.00    -0.512 OA 
BRANCH   9  12
HETATM   12  CA  UNL     1     -11.449  15.300  67.194  1.00  0.00    -0.200 C  
HETATM   13  N   UNL     1     -10.429  17.180  67.389  1.00  0.00    -0.343 N  
HETATM   14  CA  UNL     1      -9.026  17.589  67.692  1.00  0.00    -0.231 C  
HETATM   15  C   UNL     1      -9.033  18.852  68.579  1.00  0.00    -0.351 C  
HETATM   16  O   UNL     1     -10.311  16.469  65.171  1.00  0.00    -0.618 OA 
HETATM   17  C   UNL     1      -8.342  16.364  68.338  1.00  0.00    -0.191 C  
HETATM   18  OXT UNL     1      -8.071  19.283  69.198  1.00  0.00    -0.295 OA 
HETATM   19  O   UNL     1     -10.199  19.545  68.532  1.00  0.00    -0.425 OA 
HETATM   20  C   UNL     1     -10.705  16.369  66.309  1.00  0.00    -0.161 C  
HETATM   21  C   UNL     1      -7.099  16.603  69.200  1.00  0.00    -0.226 C  
HETATM   22  S   UNL     1      -9.666  15.631  69.408  1.00  0.00    -0.299 SA 
HETATM   23  C   UNL     1      -7.898  15.337  67.279  1.00  0.00    -0.240 C  
HETATM   24  C   UNL     1     -11.050  16.253  68.362  1.00  0.00    -0.362 C  
ENDBRANCH   9  12
ENDBRANCH   1   8
BRANCH   1  25
HETATM   25  N   UNL     1     -10.533  10.512  65.849  1.00  0.00    -0.197 N  
HETATM   26  H   UNL     1     -11.022   9.619  65.922  1.00  0.00     0.000 HD 
BRANCH  25  27
HETATM   27  C   UNL     1      -9.872  10.834  64.684  1.00  0.00    -0.307 C  
HETATM   28  O   UNL     1     -10.237  11.747  63.945  1.00  0.00    -0.306 OA 
BRANCH  27  29
HETATM   29  N   UNL     1      -8.729  10.094  64.415  1.00  0.00    -0.186 N  
HETATM   30  C   UNL     1      -8.546   9.447  63.128  1.00  0.00    -0.219 C  
HETATM   31  C   UNL     1      -7.138   8.871  63.170  1.00  0.00    -0.089 C  
HETATM   32  C   UNL     1      -7.524  10.088  65.124  1.00  0.00    -0.139 C  
HETATM   33  O   UNL     1      -7.310  10.603  66.208  1.00  0.00    -0.126 OA 
HETATM   34  N   UNL     1      -6.586   9.379  64.393  1.00  0.00    -0.086 NA 
ENDBRANCH  27  29
ENDBRANCH  25  27
ENDBRANCH   1  25
TORSDOF 6
ENDMDL
MODEL       52
REMARK 921   NORMALIZED FREE ENERGY PREDICTED BY IDOCK:   -5.90 KCAL/MOL
REMARK 922        TOTAL FREE ENERGY PREDICTED BY IDOCK:  -10.06 KCAL/MOL
REMARK 923 INTER-LIGAND FREE ENERGY PREDICTED BY IDOCK:   -8.68 KCAL/MOL
REMARK 924 INTRA-LIGAND FREE ENERGY PREDICTED BY IDOCK:   -1.38 KCAL/MOL
REMARK 927      BINDING AFFINITY PREDICTED BY RF-SCORE:    0.00 PKD
ROOT
HETATM    1  CA  UNL     1     -11.351  12.930  67.906  1.00  0.00    -0.294 C  
ENDROOT
BRANCH   1   2
HETATM    2  C   UNL     1     -11.457  12.561  66.423  1.00  0.00    -0.418 A  
HETATM    3  C   UNL     1     -12.451  13.017  64.251  1.00  0.00    -0.385 A  
HETATM    4  C   UNL     1     -11.477  12.238  63.630  1.00  0.00    -0.572 A  
HETATM    5  C   UNL     1     -10.536  11.563  64.402  1.00  0.00    -0.392 A  
HETATM    6  C   UNL     1     -12.446  13.174  65.637  1.00  0.00    -0.485 A  
HETATM    7  C   UNL     1     -10.533  11.712  65.790  1.00  0.00    -0.308 A  
ENDBRANCH   1   2
BRANCH   1   8
HETATM    8  C   UNL     1     -11.541  11.639  68.798  1.00  0.00    -0.313 C  
HETATM    9  N   UNL     1     -10.380  11.029  69.237  1.00  0.00    -0.361 N  
HETATM   10  H   UNL     1      -9.496  11.457  68.962  1.00  0.00     0.000 HD 
HETATM   11  O   UNL     1     -12.650  11.191  69.089  1.00  0.00    -0.358 OA 
BRANCH   9  12
HETATM   12  CA  UNL     1     -10.307   9.783  70.091  1.00  0.00    -0.282 C  
HETATM   13  N   UNL     1      -9.093   8.046  69.739  1.00  0.00    -0.149 N  
HETATM   14  CA  UNL     1      -8.154   7.621  68.661  1.00  0.00    -0.127 C  
HETATM   15  C   UNL     1      -8.302   6.104  68.412  1.00  0.00    -0.114 C  
HETATM   16  O   UNL     1      -7.855   9.619  70.936  1.00  0.00    -0.317 OA 
HETATM   17  C   UNL     1      -8.471   8.499  67.431  1.00  0.00    -0.127 C  
HETATM   18  OXT UNL     1      -7.866   5.504  67.440  1.00  0.00    -0.099 OA 
HETATM   19  O   UNL     1      -8.875   5.435  69.444  1.00  0.00    -0.104 OA 
HETATM   20  C   UNL     1      -8.879   9.218  70.434  1.00  0.00    -0.234 C  
HETATM   21  C   UNL     1      -8.050   7.987  66.051  1.00  0.00    -0.110 C  
HETATM   22  S   UNL     1     -10.318   8.653  67.461  1.00  0.00    -0.272 SA 
HETATM   23  C   UNL     1      -7.829   9.894  67.549  1.00  0.00    -0.098 C  
HETATM   24  C   UNL     1     -10.444   8.453  69.289  1.00  0.00    -0.215 C  
ENDBRANCH   9  12
ENDBRANCH   1   8
BRANCH   1  25
HETATM   25  N   UNL     1     -12.242  14.041  68.251  1.00  0.00    -0.540 N  
HETATM   26  H   UNL     1     -13.243  13.964  68.068  1.00  0.00     0.000 HD 
BRANCH  25  27
HETATM   27  C   UNL     1     -11.739  15.190  68.820  1.00  0.00    -0.342 C  
HETATM   28  O   UNL     1     -12.191  15.669  69.858  1.00  0.00    -0.362 OA 
BRANCH  27  29
HETATM   29  N   UNL     1     -10.648  15.755  68.173  1.00  0.00    -0.266 N  
HETATM   30  C   UNL     1     -10.826  16.572  66.987  1.00  0.00    -0.113 C  
HETATM   31  C   UNL     1      -9.441  17.116  66.667  1.00  0.00    -0.264 C  
HETATM   32  C   UNL     1      -9.345  15.902  68.658  1.00  0.00    -0.212 C  
HETATM   33  O   UNL     1      -8.881  15.408  69.672  1.00  0.00    -0.256 OA 
HETATM   34  N   UNL     1      -8.636  16.706  67.782  1.00  0.00    -0.190 NA 
ENDBRANCH  27  29
ENDBRANCH  25  27
ENDBRANCH   1  25
TORSDOF 6
ENDMDL
MODEL       53
REMARK 921   NORMALIZED FREE ENERGY PREDICTED BY IDOCK:   -5.85 KCAL/MOL
REMARK 922        TOTAL FREE ENERGY PREDICTED BY IDOCK:  -10.00 KCAL/MOL
REMARK 923 INTER-LIGAND FREE ENERGY PREDICTED BY IDOCK:   -8.38 KCAL/MOL
REMARK 924 INTRA-LIGAND FREE ENERGY PREDICTED BY IDOCK:   -1.62 KCAL/MOL
REMARK 927      BINDING AFFINITY PREDICTED BY RF-SCORE:    0.00 PKD
ROOT
HETATM    1  CA  UNL     1     -11.705  10.711  69.811  1.00  0.00    -0.310 C  
ENDROOT
BRANCH   1   2
HETATM    2  C   UNL     1     -10.545  10.292  68.903  1.00  0.00    -0.242 A  
HETATM    3  C   UNL     1      -8.160   9.884  68.659  1.00  0.00    -0.099 A  
HETATM    4  C   UNL     1      -8.389   9.197  67.469  1.00  0.00    -0.116 A  
HETATM    5  C   UNL     1      -9.679   9.114  66.955  1.00  0.00    -0.245 A  
HETATM    6  C   UNL     1      -9.228  10.433  69.368  1.00  0.00    -0.177 A  
HETATM    7  C   UNL     1     -10.749   9.669  67.660  1.00  0.00    -0.324 A  
ENDBRANCH   1   2
BRANCH   1   8
HETATM    8  C   UNL     1     -12.014  12.249  69.615  1.00  0.00    -0.279 C  
HETATM    9  N   UNL     1     -11.871  12.737  68.330  1.00  0.00    -0.330 N  
HETATM   10  H   UNL     1     -11.585  12.075  67.609  1.00  0.00     0.000 HD 
HETATM   11  O   UNL     1     -12.360  12.980  70.544  1.00  0.00    -0.338 OA 
BRANCH   9  12
HETATM   12  CA  UNL     1     -12.100  14.168  67.900  1.00  0.00    -0.274 C  
HETATM   13  N   UNL     1     -10.714  15.446  66.869  1.00  0.00    -0.311 N  
HETATM   14  CA  UNL     1      -9.302  15.309  66.409  1.00  0.00    -0.296 C  
HETATM   15  C   UNL     1      -8.561  16.650  66.601  1.00  0.00    -0.258 C  
HETATM   16  O   UNL     1     -11.909  14.192  65.308  1.00  0.00    -0.340 OA 
HETATM   17  C   UNL     1      -8.694  14.130  67.200  1.00  0.00    -0.224 C  
HETATM   18  OXT UNL     1      -7.348  16.797  66.558  1.00  0.00    -0.242 OA 
HETATM   19  O   UNL     1      -9.389  17.719  66.712  1.00  0.00    -0.264 OA 
HETATM   20  C   UNL     1     -11.682  14.565  66.435  1.00  0.00    -0.363 C  
HETATM   21  C   UNL     1      -7.170  14.058  67.331  1.00  0.00    -0.117 C  
HETATM   22  S   UNL     1      -9.420  14.313  68.895  1.00  0.00     0.006 SA 
HETATM   23  C   UNL     1      -9.104  12.773  66.599  1.00  0.00    -0.188 C  
HETATM   24  C   UNL     1     -10.953  15.146  68.299  1.00  0.00    -0.276 C  
ENDBRANCH   9  12
ENDBRANCH   1   8
BRANCH   1  25
HETATM   25  N   UNL     1     -11.472  10.312  71.202  1.00  0.00    -0.309 N  
HETATM   26  H   UNL     1     -10.648  10.655  71.697  1.00  0.00     0.000 HD 
BRANCH  25  27
HETATM   27  C   UNL     1     -12.358   9.479  71.848  1.00  0.00    -0.373 C  
HETATM   28  O   UNL     1     -13.507   9.819  72.123  1.00  0.00    -0.431 OA 
BRANCH  27  29
HETATM   29  N   UNL     1     -11.890   8.203  72.129  1.00  0.00    -0.336 N  
HETATM   30  C   UNL     1     -12.653   7.028  71.746  1.00  0.00    -0.350 C  
HETATM   31  C   UNL     1     -11.759   5.845  72.088  1.00  0.00    -0.227 C  
HETATM   32  C   UNL     1     -10.597   7.826  72.502  1.00  0.00    -0.293 C  
HETATM   33  O   UNL     1      -9.680   8.567  72.817  1.00  0.00    -0.257 OA 
HETATM   34  N   UNL     1     -10.513   6.445  72.471  1.00  0.00    -0.196 NA 
ENDBRANCH  27  29
ENDBRANCH  25  27
ENDBRANCH   1  25
TORSDOF 6
ENDMDL
MODEL       54
REMARK 921   NORMALIZED FREE ENERGY PREDICTED BY IDOCK:   -5.82 KCAL/MOL
REMARK 922        TOTAL FREE ENERGY PREDICTED BY IDOCK:   -9.96 KCAL/MOL
REMARK 923 INTER-LIGAND FREE ENERGY PREDICTED BY IDOCK:   -8.84 KCAL/MOL
REMARK 924 INTRA-LIGAND FREE ENERGY PREDICTED BY IDOCK:   -1.12 KCAL/MOL
REMARK 927      BINDING AFFINITY PREDICTED BY RF-SCORE:    0.00 PKD
ROOT
HETATM    1  CA  UNL     1     -10.703  10.738  67.509  1.00  0.00    -0.264 C  
ENDROOT
BRANCH   1   2
HETATM    2  C   UNL     1     -10.673  11.292  66.081  1.00  0.00    -0.307 A  
HETATM    3  C   UNL     1      -9.779  11.129  63.825  1.00  0.00    -0.338 A  
HETATM    4  C   UNL     1     -10.789  11.963  63.353  1.00  0.00    -0.469 A  
HETATM    5  C   UNL     1     -11.699  12.521  64.246  1.00  0.00    -0.450 A  
HETATM    6  C   UNL     1      -9.716  10.799  65.179  1.00  0.00    -0.319 A  
HETATM    7  C   UNL     1     -11.634  12.198  65.603  1.00  0.00    -0.409 A  
ENDBRANCH   1   2
BRANCH   1   8
HETATM    8  C   UNL     1     -10.728   9.158  67.473  1.00  0.00    -0.185 C  
HETATM    9  N   UNL     1     -10.928   8.527  68.687  1.00  0.00    -0.435 N  
HETATM   10  H   UNL     1     -11.051   9.122  69.507  1.00  0.00     0.000 HD 
HETATM   11  O   UNL     1     -10.575   8.515  66.435  1.00  0.00    -0.100 OA 
BRANCH   9  12
HETATM   12  CA  UNL     1     -10.981   7.032  68.906  1.00  0.00    -0.118 C  
HETATM   13  N   UNL     1     -10.194   5.943  70.583  1.00  0.00    -0.198 N  
HETATM   14  CA  UNL     1      -9.424   6.310  71.806  1.00  0.00    -0.150 C  
HETATM   15  C   UNL     1      -8.392   5.205  72.121  1.00  0.00    -0.125 C  
HETATM   16  O   UNL     1     -12.357   6.660  71.079  1.00  0.00    -0.352 OA 
HETATM   17  C   UNL     1      -8.803   7.698  71.534  1.00  0.00    -0.124 C  
HETATM   18  OXT UNL     1      -7.453   5.319  72.895  1.00  0.00    -0.092 OA 
HETATM   19  O   UNL     1      -8.677   4.012  71.541  1.00  0.00    -0.101 OA 
HETATM   20  C   UNL     1     -11.421   6.519  70.328  1.00  0.00    -0.411 C  
HETATM   21  C   UNL     1      -7.581   8.116  72.357  1.00  0.00    -0.153 C  
HETATM   22  S   UNL     1      -8.310   7.621  69.750  1.00  0.00    -0.134 SA 
HETATM   23  C   UNL     1      -9.827   8.829  71.745  1.00  0.00    -0.391 C  
HETATM   24  C   UNL     1      -9.613   6.397  69.299  1.00  0.00    -0.137 C  
ENDBRANCH   9  12
ENDBRANCH   1   8
BRANCH   1  25
HETATM   25  N   UNL     1     -11.779  11.343  68.300  1.00  0.00    -0.305 N  
HETATM   26  H   UNL     1     -12.738  11.015  68.186  1.00  0.00     0.000 HD 
BRANCH  25  27
HETATM   27  C   UNL     1     -11.504  12.352  69.196  1.00  0.00    -0.302 C  
HETATM   28  O   UNL     1     -10.738  13.278  68.937  1.00  0.00    -0.242 OA 
BRANCH  27  29
HETATM   29  N   UNL     1     -12.188  12.290  70.402  1.00  0.00    -0.329 N  
HETATM   30  C   UNL     1     -12.659  13.498  71.056  1.00  0.00    -0.359 C  
HETATM   31  C   UNL     1     -13.469  13.014  72.249  1.00  0.00    -0.547 C  
HETATM   32  C   UNL     1     -12.773  11.169  71.000  1.00  0.00    -0.378 C  
HETATM   33  O   UNL     1     -12.646  10.006  70.656  1.00  0.00    -0.283 OA 
HETATM   34  N   UNL     1     -13.532  11.590  72.078  1.00  0.00    -0.335 NA 
ENDBRANCH  27  29
ENDBRANCH  25  27
ENDBRANCH   1  25
TORSDOF 6
ENDMDL
MODEL       55
REMARK 921   NORMALIZED FREE ENERGY PREDICTED BY IDOCK:   -5.81 KCAL/MOL
REMARK 922        TOTAL FREE ENERGY PREDICTED BY IDOCK:   -9.95 KCAL/MOL
REMARK 923 INTER-LIGAND FREE ENERGY PREDICTED BY IDOCK:   -9.79 KCAL/MOL
REMARK 924 INTRA-LIGAND FREE ENERGY PREDICTED BY IDOCK:   -0.15 KCAL/MOL
REMARK 927      BINDING AFFINITY PREDICTED BY RF-SCORE:    0.00 PKD
ROOT
HETATM    1  CA  UNL     1     -10.648  10.169  68.621  1.00  0.00    -0.210 C  
ENDROOT
BRANCH   1   2
HETATM    2  C   UNL     1     -11.556  10.918  69.600  1.00  0.00    -0.394 A  
HETATM    3  C   UNL     1     -13.004  10.826  71.552  1.00  0.00    -0.562 A  
HETATM    4  C   UNL     1     -12.945  12.212  71.674  1.00  0.00    -0.427 A  
HETATM    5  C   UNL     1     -12.256  12.961  70.725  1.00  0.00    -0.348 A  
HETATM    6  C   UNL     1     -12.320  10.182  70.520  1.00  0.00    -0.330 A  
HETATM    7  C   UNL     1     -11.577  12.320  69.688  1.00  0.00    -0.348 A  
ENDBRANCH   1   2
BRANCH   1   8
HETATM    8  C   UNL     1     -10.912  10.673  67.146  1.00  0.00    -0.247 C  
HETATM    9  N   UNL     1     -11.636  11.845  67.026  1.00  0.00    -0.323 N  
HETATM   10  H   UNL     1     -11.938  12.296  67.890  1.00  0.00     0.000 HD 
HETATM   11  O   UNL     1     -10.505  10.068  66.155  1.00  0.00    -0.185 OA 
BRANCH   9  12
HETATM   12  CA  UNL     1     -12.020  12.515  65.727  1.00  0.00    -0.420 C  
HETATM   13  N   UNL     1     -11.233  14.353  64.940  1.00  0.00    -0.370 N  
HETATM   14  CA  UNL     1     -10.261  15.374  65.427  1.00  0.00    -0.377 C  
HETATM   15  C   UNL     1     -10.736  16.784  65.013  1.00  0.00    -0.100 C  
HETATM   16  O   UNL     1      -9.865  12.585  64.276  1.00  0.00    -0.211 OA 
HETATM   17  C   UNL     1     -10.137  15.170  66.953  1.00  0.00    -0.255 C  
HETATM   18  OXT UNL     1     -10.304  17.833  65.466  1.00  0.00    -0.623 OA 
HETATM   19  O   UNL     1     -11.623  16.780  63.986  1.00  0.00    -1.195 OA 
HETATM   20  C   UNL     1     -10.856  13.034  64.803  1.00  0.00    -0.337 C  
HETATM   21  C   UNL     1      -9.629  16.340  67.799  1.00  0.00    -0.223 C  
HETATM   22  S   UNL     1     -11.865  14.767  67.487  1.00  0.00    -0.210 SA 
HETATM   23  C   UNL     1      -9.198  13.998  67.294  1.00  0.00    -0.231 C  
HETATM   24  C   UNL     1     -12.344  14.034  65.865  1.00  0.00    -0.486 C  
ENDBRANCH   9  12
ENDBRANCH   1   8
BRANCH   1  25
HETATM   25  N   UNL     1     -10.750   8.717  68.792  1.00  0.00    -0.402 N  
HETATM   26  H   UNL     1     -11.377   8.333  69.499  1.00  0.00     0.000 HD 
BRANCH  25  27
HETATM   27  C   UNL     1     -10.006   7.866  68.005  1.00  0.00    -0.177 C  
HETATM   28  O   UNL     1     -10.506   7.175  67.119  1.00  0.00    -0.252 OA 
BRANCH  27  29
HETATM   29  N   UNL     1      -8.638   7.871  68.239  1.00  0.00    -0.124 N  
HETATM   30  C   UNL     1      -7.696   8.060  67.151  1.00  0.00    -0.101 C  
HETATM   31  C   UNL     1      -6.330   8.148  67.817  1.00  0.00    -0.053 C  
HETATM   32  C   UNL     1      -7.977   8.001  69.464  1.00  0.00    -0.115 C  
HETATM   33  O   UNL     1      -8.480   7.963  70.575  1.00  0.00    -0.122 OA 
HETATM   34  N   UNL     1      -6.625   8.172  69.221  1.00  0.00    -0.035 NA 
ENDBRANCH  27  29
ENDBRANCH  25  27
ENDBRANCH   1  25
TORSDOF 6
ENDMDL
MODEL       56
REMARK 921   NORMALIZED FREE ENERGY PREDICTED BY IDOCK:   -5.81 KCAL/MOL
REMARK 922        TOTAL FREE ENERGY PREDICTED BY IDOCK:   -9.94 KCAL/MOL
REMARK 923 INTER-LIGAND FREE ENERGY PREDICTED BY IDOCK:   -8.42 KCAL/MOL
REMARK 924 INTRA-LIGAND FREE ENERGY PREDICTED BY IDOCK:   -1.53 KCAL/MOL
REMARK 927      BINDING AFFINITY PREDICTED BY RF-SCORE:    0.00 PKD
ROOT
HETATM    1  CA  UNL     1     -10.072  16.603  66.594  1.00  0.00    -0.301 C  
ENDROOT
BRANCH   1   2
HETATM    2  C   UNL     1      -8.752  16.276  67.299  1.00  0.00    -0.200 A  
HETATM    3  C   UNL     1      -6.321  16.309  67.242  1.00  0.00    -0.214 A  
HETATM    4  C   UNL     1      -6.275  16.074  68.614  1.00  0.00    -0.115 A  
HETATM    5  C   UNL     1      -7.456  15.868  69.320  1.00  0.00    -0.219 A  
HETATM    6  C   UNL     1      -7.549  16.405  66.587  1.00  0.00    -0.288 A  
HETATM    7  C   UNL     1      -8.687  15.956  68.666  1.00  0.00    -0.199 A  
ENDBRANCH   1   2
BRANCH   1   8
HETATM    8  C   UNL     1     -10.464  15.428  65.612  1.00  0.00    -0.372 C  
HETATM    9  N   UNL     1      -9.838  14.216  65.836  1.00  0.00    -0.399 N  
HETATM   10  H   UNL     1      -9.182  14.168  66.615  1.00  0.00     0.000 HD 
HETATM   11  O   UNL     1     -11.274  15.571  64.696  1.00  0.00    -0.423 OA 
BRANCH   9  12
HETATM   12  CA  UNL     1     -10.042  12.955  65.027  1.00  0.00    -0.215 C  
HETATM   13  N   UNL     1     -10.587  11.015  65.772  1.00  0.00    -0.228 N  
HETATM   14  CA  UNL     1     -10.824  10.439  67.128  1.00  0.00    -0.238 C  
HETATM   15  C   UNL     1     -10.279   8.995  67.180  1.00  0.00    -0.265 C  
HETATM   16  O   UNL     1     -12.521  12.257  65.375  1.00  0.00    -0.596 OA 
HETATM   17  C   UNL     1     -10.162  11.404  68.137  1.00  0.00    -0.187 C  
HETATM   18  OXT UNL     1     -10.093   8.350  68.202  1.00  0.00    -0.185 OA 
HETATM   19  O   UNL     1     -10.120   8.427  65.958  1.00  0.00    -0.104 OA 
HETATM   20  C   UNL     1     -11.324  12.094  65.330  1.00  0.00    -0.338 C  
HETATM   21  C   UNL     1      -9.795  10.860  69.520  1.00  0.00     0.033 C  
HETATM   22  S   UNL     1      -8.606  11.937  67.284  1.00  0.00    -0.177 SA 
HETATM   23  C   UNL     1     -11.052  12.629  68.416  1.00  0.00    -0.297 C  
HETATM   24  C   UNL     1      -9.292  11.709  65.588  1.00  0.00    -0.180 C  
ENDBRANCH   9  12
ENDBRANCH   1   8
BRANCH   1  25
HETATM   25  N   UNL     1     -10.038  17.928  65.971  1.00  0.00    -0.296 N  
HETATM   26  H   UNL     1      -9.942  18.010  64.958  1.00  0.00     0.000 HD 
BRANCH  25  27
HETATM   27  C   UNL     1     -10.133  19.066  66.741  1.00  0.00    -0.379 C  
HETATM   28  O   UNL     1     -11.210  19.590  67.020  1.00  0.00    -0.338 OA 
BRANCH  27  29
HETATM   29  N   UNL     1      -8.934  19.564  67.232  1.00  0.00    -0.297 N  
HETATM   30  C   UNL     1      -8.661  19.580  68.658  1.00  0.00    -0.335 C  
HETATM   31  C   UNL     1      -7.220  20.053  68.782  1.00  0.00    -0.213 C  
HETATM   32  C   UNL     1      -7.758  19.823  66.522  1.00  0.00    -0.289 C  
HETATM   33  O   UNL     1      -7.618  19.820  65.311  1.00  0.00    -0.353 OA 
HETATM   34  N   UNL     1      -6.748  20.102  67.427  1.00  0.00    -0.212 NA 
ENDBRANCH  27  29
ENDBRANCH  25  27
ENDBRANCH   1  25
TORSDOF 6
ENDMDL
MODEL       57
REMARK 921   NORMALIZED FREE ENERGY PREDICTED BY IDOCK:   -5.81 KCAL/MOL
REMARK 922        TOTAL FREE ENERGY PREDICTED BY IDOCK:   -9.93 KCAL/MOL
REMARK 923 INTER-LIGAND FREE ENERGY PREDICTED BY IDOCK:   -8.75 KCAL/MOL
REMARK 924 INTRA-LIGAND FREE ENERGY PREDICTED BY IDOCK:   -1.19 KCAL/MOL
REMARK 927      BINDING AFFINITY PREDICTED BY RF-SCORE:    0.00 PKD
ROOT
HETATM    1  CA  UNL     1     -10.493  11.728  67.177  1.00  0.00    -0.220 C  
ENDROOT
BRANCH   1   2
HETATM    2  C   UNL     1     -11.127  12.083  65.829  1.00  0.00    -0.371 A  
HETATM    3  C   UNL     1     -12.499  13.621  64.537  1.00  0.00    -0.335 A  
HETATM    4  C   UNL     1     -12.043  13.048  63.352  1.00  0.00    -0.591 A  
HETATM    5  C   UNL     1     -11.188  11.951  63.399  1.00  0.00    -0.463 A  
HETATM    6  C   UNL     1     -12.050  13.139  65.767  1.00  0.00    -0.502 A  
HETATM    7  C   UNL     1     -10.743  11.463  64.629  1.00  0.00    -0.378 A  
ENDBRANCH   1   2
BRANCH   1   8
HETATM    8  C   UNL     1      -9.024  12.308  67.251  1.00  0.00    -0.187 C  
HETATM    9  N   UNL     1      -8.917  13.686  67.287  1.00  0.00    -0.215 N  
HETATM   10  H   UNL     1      -9.786  14.221  67.270  1.00  0.00     0.000 HD 
HETATM   11  O   UNL     1      -8.026  11.588  67.273  1.00  0.00    -0.138 OA 
BRANCH   9  12
HETATM   12  CA  UNL     1      -7.626  14.469  67.349  1.00  0.00    -0.184 C  
HETATM   13  N   UNL     1      -7.381  16.511  67.972  1.00  0.00    -0.141 N  
HETATM   14  CA  UNL     1      -8.309  17.597  68.402  1.00  0.00    -0.290 C  
HETATM   15  C   UNL     1      -7.814  18.951  67.851  1.00  0.00    -0.263 C  
HETATM   16  O   UNL     1      -7.284  15.119  69.841  1.00  0.00    -0.180 OA 
HETATM   17  C   UNL     1      -9.717  17.190  67.914  1.00  0.00    -0.270 C  
HETATM   18  OXT UNL     1      -8.474  19.979  67.812  1.00  0.00    -0.307 OA 
HETATM   19  O   UNL     1      -6.503  18.951  67.502  1.00  0.00    -0.193 OA 
HETATM   20  C   UNL     1      -7.344  15.310  68.649  1.00  0.00    -0.120 C  
HETATM   21  C   UNL     1     -10.770  18.289  67.752  1.00  0.00    -0.358 C  
HETATM   22  S   UNL     1      -9.407  16.425  66.255  1.00  0.00    -0.330 SA 
HETATM   23  C   UNL     1     -10.366  16.156  68.853  1.00  0.00    -0.250 C  
HETATM   24  C   UNL     1      -7.698  15.873  66.674  1.00  0.00    -0.164 C  
ENDBRANCH   9  12
ENDBRANCH   1   8
BRANCH   1  25
HETATM   25  N   UNL     1     -10.593  10.294  67.461  1.00  0.00    -0.248 N  
HETATM   26  H   UNL     1     -10.721   9.633  66.694  1.00  0.00     0.000 HD 
BRANCH  25  27
HETATM   27  C   UNL     1     -10.514   9.830  68.755  1.00  0.00    -0.218 C  
HETATM   28  O   UNL     1     -10.374  10.578  69.720  1.00  0.00    -0.232 OA 
BRANCH  27  29
HETATM   29  N   UNL     1     -10.653   8.458  68.913  1.00  0.00    -0.185 N  
HETATM   30  C   UNL     1     -11.115   7.895  70.169  1.00  0.00    -0.201 C  
HETATM   31  C   UNL     1     -11.272   6.405  69.904  1.00  0.00    -0.420 C  
HETATM   32  C   UNL     1     -10.682   7.478  67.916  1.00  0.00    -0.133 C  
HETATM   33  O   UNL     1     -10.421   7.627  66.735  1.00  0.00    -0.314 OA 
HETATM   34  N   UNL     1     -11.053   6.274  68.491  1.00  0.00    -0.347 NA 
ENDBRANCH  27  29
ENDBRANCH  25  27
ENDBRANCH   1  25
TORSDOF 6
ENDMDL
MODEL       58
REMARK 921   NORMALIZED FREE ENERGY PREDICTED BY IDOCK:   -5.80 KCAL/MOL
REMARK 922        TOTAL FREE ENERGY PREDICTED BY IDOCK:   -9.93 KCAL/MOL
REMARK 923 INTER-LIGAND FREE ENERGY PREDICTED BY IDOCK:   -8.65 KCAL/MOL
REMARK 924 INTRA-LIGAND FREE ENERGY PREDICTED BY IDOCK:   -1.28 KCAL/MOL
REMARK 927      BINDING AFFINITY PREDICTED BY RF-SCORE:    0.00 PKD
ROOT
HETATM    1  CA  UNL     1     -11.434  11.257  69.553  1.00  0.00    -0.307 C  
ENDROOT
BRANCH   1   2
HETATM    2  C   UNL     1     -10.633  11.280  68.248  1.00  0.00    -0.228 A  
HETATM    3  C   UNL     1      -8.511  10.892  67.123  1.00  0.00    -0.128 A  
HETATM    4  C   UNL     1      -9.150  10.922  65.886  1.00  0.00    -0.212 A  
HETATM    5  C   UNL     1     -10.511  11.200  65.817  1.00  0.00    -0.305 A  
HETATM    6  C   UNL     1      -9.245  11.075  68.296  1.00  0.00    -0.165 A  
HETATM    7  C   UNL     1     -11.246  11.391  66.989  1.00  0.00    -0.350 A  
ENDBRANCH   1   2
BRANCH   1   8
HETATM    8  C   UNL     1     -11.580  12.725  70.122  1.00  0.00    -0.052 C  
HETATM    9  N   UNL     1     -10.592  13.619  69.753  1.00  0.00    -0.223 N  
HETATM   10  H   UNL     1      -9.854  13.272  69.142  1.00  0.00     0.000 HD 
HETATM   11  O   UNL     1     -12.510  13.063  70.853  1.00  0.00    -0.367 OA 
BRANCH   9  12
HETATM   12  CA  UNL     1     -10.512  15.068  70.177  1.00  0.00    -0.080 C  
HETATM   13  N   UNL     1     -10.833  16.796  68.940  1.00  0.00    -0.320 N  
HETATM   14  CA  UNL     1     -11.125  17.013  67.493  1.00  0.00    -0.004 C  
HETATM   15  C   UNL     1     -10.375  18.267  66.995  1.00  0.00    -0.389 C  
HETATM   16  O   UNL     1     -12.878  16.073  69.795  1.00  0.00    -0.025 OA 
HETATM   17  C   UNL     1     -10.732  15.708  66.765  1.00  0.00    -0.300 C  
HETATM   18  OXT UNL     1     -10.205  18.565  65.822  1.00  0.00    -0.568 OA 
HETATM   19  O   UNL     1      -9.999  19.109  67.990  1.00  0.00    -0.335 OA 
HETATM   20  C   UNL     1     -11.673  16.027  69.718  1.00  0.00    -0.265 C  
HETATM   21  C   UNL     1     -10.440  15.779  65.265  1.00  0.00    -0.427 C  
HETATM   22  S   UNL     1      -9.193  15.160  67.638  1.00  0.00    -0.183 SA 
HETATM   23  C   UNL     1     -11.824  14.631  66.905  1.00  0.00    -0.345 C  
HETATM   24  C   UNL     1      -9.646  15.960  69.236  1.00  0.00    -0.266 C  
ENDBRANCH   9  12
ENDBRANCH   1   8
BRANCH   1  25
HETATM   25  N   UNL     1     -10.884  10.289  70.507  1.00  0.00    -0.408 N  
HETATM   26  H   UNL     1      -9.877  10.135  70.548  1.00  0.00     0.000 HD 
BRANCH  25  27
HETATM   27  C   UNL     1     -11.718   9.586  71.348  1.00  0.00    -0.393 C  
HETATM   28  O   UNL     1     -12.853   9.968  71.627  1.00  0.00    -0.370 OA 
BRANCH  27  29
HETATM   29  N   UNL     1     -11.216   8.385  71.829  1.00  0.00    -0.273 N  
HETATM   30  C   UNL     1     -11.988   7.160  71.724  1.00  0.00    -0.313 C  
HETATM   31  C   UNL     1     -11.058   6.061  72.218  1.00  0.00    -0.278 C  
HETATM   32  C   UNL     1      -9.896   8.084  72.176  1.00  0.00    -0.223 C  
HETATM   33  O   UNL     1      -8.970   8.871  72.284  1.00  0.00    -0.388 OA 
HETATM   34  N   UNL     1      -9.797   6.722  72.397  1.00  0.00    -0.158 NA 
ENDBRANCH  27  29
ENDBRANCH  25  27
ENDBRANCH   1  25
TORSDOF 6
ENDMDL
MODEL       59
REMARK 921   NORMALIZED FREE ENERGY PREDICTED BY IDOCK:   -5.77 KCAL/MOL
REMARK 922        TOTAL FREE ENERGY PREDICTED BY IDOCK:   -9.88 KCAL/MOL
REMARK 923 INTER-LIGAND FREE ENERGY PREDICTED BY IDOCK:   -8.80 KCAL/MOL
REMARK 924 INTRA-LIGAND FREE ENERGY PREDICTED BY IDOCK:   -1.08 KCAL/MOL
REMARK 927      BINDING AFFINITY PREDICTED BY RF-SCORE:    0.00 PKD
ROOT
HETATM    1  CA  UNL     1     -10.477  12.467  67.929  1.00  0.00    -0.217 C  
ENDROOT
BRANCH   1   2
HETATM    2  C   UNL     1     -11.046  13.410  68.994  1.00  0.00    -0.293 A  
HETATM    3  C   UNL     1     -12.474  13.697  70.942  1.00  0.00    -0.448 A  
HETATM    4  C   UNL     1     -11.876  14.926  71.211  1.00  0.00    -0.391 A  
HETATM    5  C   UNL     1     -10.917  15.434  70.341  1.00  0.00    -0.347 A  
HETATM    6  C   UNL     1     -12.067  12.946  69.839  1.00  0.00    -0.335 A  
HETATM    7  C   UNL     1     -10.514  14.688  69.232  1.00  0.00    -0.218 A  
ENDBRANCH   1   2
BRANCH   1   8
HETATM    8  C   UNL     1      -9.144  11.801  68.456  1.00  0.00    -0.144 C  
HETATM    9  N   UNL     1      -9.301  10.713  69.295  1.00  0.00    -0.356 N  
HETATM   10  H   UNL     1     -10.255  10.420  69.504  1.00  0.00     0.000 HD 
HETATM   11  O   UNL     1      -8.028  12.217  68.148  1.00  0.00    -0.138 OA 
BRANCH   9  12
HETATM   12  CA  UNL     1      -8.180   9.920  69.929  1.00  0.00    -0.184 C  
HETATM   13  N   UNL     1      -7.940   7.785  69.916  1.00  0.00    -0.108 N  
HETATM   14  CA  UNL     1      -8.744   6.641  69.397  1.00  0.00    -0.135 C  
HETATM   15  C   UNL     1      -8.653   5.454  70.381  1.00  0.00    -0.124 C  
HETATM   16  O   UNL     1      -6.976   8.678  67.990  1.00  0.00    -0.072 OA 
HETATM   17  C   UNL     1     -10.177   7.174  69.177  1.00  0.00    -0.194 C  
HETATM   18  OXT UNL     1      -9.386   4.476  70.373  1.00  0.00    -0.120 OA 
HETATM   19  O   UNL     1      -7.588   5.520  71.218  1.00  0.00    -0.093 OA 
HETATM   20  C   UNL     1      -7.513   8.784  69.067  1.00  0.00    -0.081 C  
HETATM   21  C   UNL     1     -11.325   6.162  69.137  1.00  0.00    -0.303 C  
HETATM   22  S   UNL     1     -10.450   8.315  70.611  1.00  0.00    -0.207 SA 
HETATM   23  C   UNL     1     -10.294   7.957  67.856  1.00  0.00    -0.281 C  
HETATM   24  C   UNL     1      -8.663   8.724  70.805  1.00  0.00    -0.189 C  
ENDBRANCH   9  12
ENDBRANCH   1   8
BRANCH   1  25
HETATM   25  N   UNL     1     -10.349  13.135  66.630  1.00  0.00    -0.262 N  
HETATM   26  H   UNL     1      -9.426  13.398  66.285  1.00  0.00     0.000 HD 
BRANCH  25  27
HETATM   27  C   UNL     1     -11.466  13.408  65.872  1.00  0.00    -0.321 C  
HETATM   28  O   UNL     1     -12.374  12.595  65.712  1.00  0.00    -0.594 OA 
BRANCH  27  29
HETATM   29  N   UNL     1     -11.531  14.686  65.334  1.00  0.00    -0.346 N  
HETATM   30  C   UNL     1     -10.745  15.771  65.893  1.00  0.00    -0.313 C  
HETATM   31  C   UNL     1     -10.973  16.950  64.958  1.00  0.00    -0.046 C  
HETATM   32  C   UNL     1     -12.055  15.070  64.096  1.00  0.00    -0.223 C  
HETATM   33  O   UNL     1     -12.707  14.380  63.331  1.00  0.00    -0.689 OA 
HETATM   34  N   UNL     1     -11.724  16.395  63.868  1.00  0.00    -1.024 NA 
ENDBRANCH  27  29
ENDBRANCH  25  27
ENDBRANCH   1  25
TORSDOF 6
ENDMDL
MODEL       60
REMARK 921   NORMALIZED FREE ENERGY PREDICTED BY IDOCK:   -5.76 KCAL/MOL
REMARK 922        TOTAL FREE ENERGY PREDICTED BY IDOCK:   -9.87 KCAL/MOL
REMARK 923 INTER-LIGAND FREE ENERGY PREDICTED BY IDOCK:   -9.41 KCAL/MOL
REMARK 924 INTRA-LIGAND FREE ENERGY PREDICTED BY IDOCK:   -0.46 KCAL/MOL
REMARK 927      BINDING AFFINITY PREDICTED BY RF-SCORE:    0.00 PKD
ROOT
HETATM    1  CA  UNL     1     -10.465  10.657  69.745  1.00  0.00    -0.143 C  
ENDROOT
BRANCH   1   2
HETATM    2  C   UNL     1     -11.313   9.932  70.794  1.00  0.00    -0.430 A  
HETATM    3  C   UNL     1     -13.528   9.302  71.577  1.00  0.00    -0.437 A  
HETATM    4  C   UNL     1     -12.969   8.347  72.423  1.00  0.00    -0.297 A  
HETATM    5  C   UNL     1     -11.585   8.227  72.511  1.00  0.00    -0.454 A  
HETATM    6  C   UNL     1     -12.708  10.093  70.772  1.00  0.00    -0.397 A  
HETATM    7  C   UNL     1     -10.762   9.023  71.712  1.00  0.00    -0.437 A  
ENDBRANCH   1   2
BRANCH   1   8
HETATM    8  C   UNL     1     -11.365  11.666  68.927  1.00  0.00    -0.267 C  
HETATM    9  N   UNL     1     -11.116  13.010  69.137  1.00  0.00    -0.381 N  
HETATM   10  H   UNL     1     -10.372  13.248  69.793  1.00  0.00     0.000 HD 
HETATM   11  O   UNL     1     -12.242  11.292  68.148  1.00  0.00    -0.622 OA 
BRANCH   9  12
HETATM   12  CA  UNL     1     -11.849  14.156  68.480  1.00  0.00    -0.355 C  
HETATM   13  N   UNL     1     -11.065  15.525  67.021  1.00  0.00    -0.284 N  
HETATM   14  CA  UNL     1      -9.732  15.732  66.384  1.00  0.00    -0.282 C  
HETATM   15  C   UNL     1      -9.474  17.242  66.198  1.00  0.00    -0.179 C  
HETATM   16  O   UNL     1     -11.889  13.634  65.934  1.00  0.00    -0.344 OA 
HETATM   17  C   UNL     1      -8.699  15.019  67.285  1.00  0.00    -0.203 C  
HETATM   18  OXT UNL     1      -8.389  17.745  65.941  1.00  0.00    -0.524 OA 
HETATM   19  O   UNL     1     -10.602  17.996  66.227  1.00  0.00    -0.347 OA 
HETATM   20  C   UNL     1     -11.711  14.311  66.919  1.00  0.00    -0.408 C  
HETATM   21  C   UNL     1      -7.235  15.457  67.191  1.00  0.00    -0.179 C  
HETATM   22  S   UNL     1      -9.303  15.356  69.004  1.00  0.00    -0.247 SA 
HETATM   23  C   UNL     1      -8.675  13.500  67.028  1.00  0.00    -0.197 C  
HETATM   24  C   UNL     1     -11.071  15.507  68.502  1.00  0.00    -0.307 C  
ENDBRANCH   9  12
ENDBRANCH   1   8
BRANCH   1  25
HETATM   25  N   UNL     1      -9.706   9.714  68.918  1.00  0.00    -0.157 N  
HETATM   26  H   UNL     1      -8.717   9.885  68.733  1.00  0.00     0.000 HD 
BRANCH  25  27
HETATM   27  C   UNL     1     -10.318   8.599  68.389  1.00  0.00    -0.201 C  
HETATM   28  O   UNL     1     -11.009   8.642  67.374  1.00  0.00    -0.114 OA 
BRANCH  27  29
HETATM   29  N   UNL     1     -10.065   7.404  69.048  1.00  0.00    -0.187 N  
HETATM   30  C   UNL     1     -11.136   6.463  69.321  1.00  0.00    -0.373 C  
HETATM   31  C   UNL     1     -10.450   5.240  69.912  1.00  0.00    -0.281 C  
HETATM   32  C   UNL     1      -8.828   6.791  69.270  1.00  0.00    -0.137 C  
HETATM   33  O   UNL     1      -7.726   7.274  69.075  1.00  0.00    -0.107 OA 
HETATM   34  N   UNL     1      -9.049   5.518  69.768  1.00  0.00    -0.130 NA 
ENDBRANCH  27  29
ENDBRANCH  25  27
ENDBRANCH   1  25
TORSDOF 6
ENDMDL
MODEL       61
REMARK 921   NORMALIZED FREE ENERGY PREDICTED BY IDOCK:   -5.75 KCAL/MOL
REMARK 922        TOTAL FREE ENERGY PREDICTED BY IDOCK:   -9.86 KCAL/MOL
REMARK 923 INTER-LIGAND FREE ENERGY PREDICTED BY IDOCK:   -8.46 KCAL/MOL
REMARK 924 INTRA-LIGAND FREE ENERGY PREDICTED BY IDOCK:   -1.41 KCAL/MOL
REMARK 927      BINDING AFFINITY PREDICTED BY RF-SCORE:    0.00 PKD
ROOT
HETATM    1  CA  UNL     1     -11.021  11.690  68.150  1.00  0.00    -0.226 C  
ENDROOT
BRANCH   1   2
HETATM    2  C   UNL     1     -10.978  12.691  66.991  1.00  0.00    -0.300 A  
HETATM    3  C   UNL     1     -12.209  14.007  65.357  1.00  0.00    -0.453 A  
HETATM    4  C   UNL     1     -11.078  14.784  65.117  1.00  0.00    -0.389 A  
HETATM    5  C   UNL     1      -9.880  14.478  65.755  1.00  0.00    -0.343 A  
HETATM    6  C   UNL     1     -12.159  12.964  66.283  1.00  0.00    -0.433 A  
HETATM    7  C   UNL     1      -9.826  13.430  66.676  1.00  0.00    -0.278 A  
ENDBRANCH   1   2
BRANCH   1   8
HETATM    8  C   UNL     1     -10.735  10.231  67.613  1.00  0.00    -0.288 C  
HETATM    9  N   UNL     1     -10.774   9.219  68.555  1.00  0.00    -0.379 N  
HETATM   10  H   UNL     1     -10.988   9.486  69.516  1.00  0.00     0.000 HD 
HETATM   11  O   UNL     1     -10.489   9.995  66.430  1.00  0.00    -0.203 OA 
BRANCH   9  12
HETATM   12  CA  UNL     1     -10.526   7.753  68.285  1.00  0.00    -0.168 C  
HETATM   13  N   UNL     1      -9.430   6.378  69.520  1.00  0.00    -0.145 N  
HETATM   14  CA  UNL     1      -8.659   6.494  70.792  1.00  0.00    -0.135 C  
HETATM   15  C   UNL     1      -7.416   5.579  70.731  1.00  0.00    -0.088 C  
HETATM   16  O   UNL     1     -11.649   6.451  70.233  1.00  0.00    -0.399 OA 
HETATM   17  C   UNL     1      -8.334   7.993  70.975  1.00  0.00    -0.116 C  
HETATM   18  OXT UNL     1      -6.464   5.634  71.495  1.00  0.00    -0.041 OA 
HETATM   19  O   UNL     1      -7.510   4.594  69.802  1.00  0.00    -0.053 OA 
HETATM   20  C   UNL     1     -10.759   6.744  69.470  1.00  0.00    -0.257 C  
HETATM   21  C   UNL     1      -7.160   8.372  71.880  1.00  0.00    -0.103 C  
HETATM   22  S   UNL     1      -7.962   8.578  69.256  1.00  0.00    -0.113 SA 
HETATM   23  C   UNL     1      -9.538   8.769  71.542  1.00  0.00    -0.354 C  
HETATM   24  C   UNL     1      -9.037   7.318  68.446  1.00  0.00    -0.135 C  
ENDBRANCH   9  12
ENDBRANCH   1   8
BRANCH   1  25
HETATM   25  N   UNL     1     -12.256  11.818  68.929  1.00  0.00    -0.169 N  
HETATM   26  H   UNL     1     -13.151  11.908  68.449  1.00  0.00     0.000 HD 
BRANCH  25  27
HETATM   27  C   UNL     1     -12.216  11.818  70.306  1.00  0.00    -0.299 C  
HETATM   28  O   UNL     1     -11.802  10.860  70.957  1.00  0.00    -0.310 OA 
BRANCH  27  29
HETATM   29  N   UNL     1     -12.629  12.991  70.921  1.00  0.00    -0.323 N  
HETATM   30  C   UNL     1     -13.427  12.957  72.134  1.00  0.00    -0.522 C  
HETATM   31  C   UNL     1     -13.550  14.409  72.570  1.00  0.00    -0.500 C  
HETATM   32  C   UNL     1     -12.150  14.287  70.707  1.00  0.00    -0.348 C  
HETATM   33  O   UNL     1     -11.398  14.652  69.819  1.00  0.00    -0.259 OA 
HETATM   34  N   UNL     1     -12.680  15.120  71.677  1.00  0.00    -0.329 NA 
ENDBRANCH  27  29
ENDBRANCH  25  27
ENDBRANCH   1  25
TORSDOF 6
ENDMDL
MODEL       62
REMARK 921   NORMALIZED FREE ENERGY PREDICTED BY IDOCK:   -5.73 KCAL/MOL
REMARK 922        TOTAL FREE ENERGY PREDICTED BY IDOCK:   -9.84 KCAL/MOL
REMARK 923 INTER-LIGAND FREE ENERGY PREDICTED BY IDOCK:   -7.99 KCAL/MOL
REMARK 924 INTRA-LIGAND FREE ENERGY PREDICTED BY IDOCK:   -1.85 KCAL/MOL
REMARK 927      BINDING AFFINITY PREDICTED BY RF-SCORE:    0.00 PKD
ROOT
HETATM    1  CA  UNL     1     -11.011  11.495  69.018  1.00  0.00    -0.234 C  
ENDROOT
BRANCH   1   2
HETATM    2  C   UNL     1     -10.182  10.521  68.174  1.00  0.00    -0.187 A  
HETATM    3  C   UNL     1     -10.150   8.725  66.534  1.00  0.00    -0.349 A  
HETATM    4  C   UNL     1      -8.793   8.942  66.308  1.00  0.00    -0.187 A  
HETATM    5  C   UNL     1      -8.110   9.893  67.060  1.00  0.00    -0.110 A  
HETATM    6  C   UNL     1     -10.840   9.505  67.463  1.00  0.00    -0.239 A  
HETATM    7  C   UNL     1      -8.796  10.669  67.996  1.00  0.00    -0.130 A  
ENDBRANCH   1   2
BRANCH   1   8
HETATM    8  C   UNL     1     -11.624  10.741  70.265  1.00  0.00    -0.338 C  
HETATM    9  N   UNL     1     -10.818   9.781  70.849  1.00  0.00    -0.328 N  
HETATM   10  H   UNL     1      -9.894   9.637  70.441  1.00  0.00     0.000 HD 
HETATM   11  O   UNL     1     -12.750  10.982  70.697  1.00  0.00    -0.324 OA 
BRANCH   9  12
HETATM   12  CA  UNL     1     -11.187   8.928  72.041  1.00  0.00    -0.352 C  
HETATM   13  N   UNL     1     -10.487   6.943  72.475  1.00  0.00    -0.206 N  
HETATM   14  CA  UNL     1      -9.604   5.964  71.777  1.00  0.00    -0.151 C  
HETATM   15  C   UNL     1     -10.151   4.535  71.982  1.00  0.00    -0.196 C  
HETATM   16  O   UNL     1      -8.979   8.497  73.343  1.00  0.00    -0.263 OA 
HETATM   17  C   UNL     1      -9.535   6.411  70.300  1.00  0.00    -0.161 C  
HETATM   18  OXT UNL     1      -9.808   3.552  71.341  1.00  0.00    -0.177 OA 
HETATM   19  O   UNL     1     -10.990   4.418  73.042  1.00  0.00    -0.220 OA 
HETATM   20  C   UNL     1     -10.019   8.198  72.805  1.00  0.00    -0.291 C  
HETATM   21  C   UNL     1      -9.141   5.370  69.249  1.00  0.00    -0.133 C  
HETATM   22  S   UNL     1     -11.255   6.993  69.933  1.00  0.00    -0.215 SA 
HETATM   23  C   UNL     1      -8.538   7.569  70.104  1.00  0.00    -0.141 C  
HETATM   24  C   UNL     1     -11.614   7.474  71.676  1.00  0.00    -0.268 C  
ENDBRANCH   9  12
ENDBRANCH   1   8
BRANCH   1  25
HETATM   25  N   UNL     1     -11.992  12.215  68.202  1.00  0.00    -0.283 N  
HETATM   26  H   UNL     1     -12.972  11.930  68.218  1.00  0.00     0.000 HD 
BRANCH  25  27
HETATM   27  C   UNL     1     -11.603  13.275  67.414  1.00  0.00    -0.353 C  
HETATM   28  O   UNL     1     -11.585  13.216  66.186  1.00  0.00    -0.324 OA 
BRANCH  27  29
HETATM   29  N   UNL     1     -11.276  14.442  68.091  1.00  0.00    -0.269 N  
HETATM   30  C   UNL     1     -10.468  15.469  67.459  1.00  0.00    -0.282 C  
HETATM   31  C   UNL     1     -10.454  16.627  68.446  1.00  0.00    -0.323 C  
HETATM   32  C   UNL     1     -11.856  14.947  69.259  1.00  0.00    -0.318 C  
HETATM   33  O   UNL     1     -12.640  14.372  69.995  1.00  0.00    -0.330 OA 
HETATM   34  N   UNL     1     -11.383  16.231  69.466  1.00  0.00    -0.306 NA 
ENDBRANCH  27  29
ENDBRANCH  25  27
ENDBRANCH   1  25
TORSDOF 6
ENDMDL
MODEL       63
REMARK 921   NORMALIZED FREE ENERGY PREDICTED BY IDOCK:   -5.73 KCAL/MOL
REMARK 922        TOTAL FREE ENERGY PREDICTED BY IDOCK:   -9.84 KCAL/MOL
REMARK 923 INTER-LIGAND FREE ENERGY PREDICTED BY IDOCK:   -8.53 KCAL/MOL
REMARK 924 INTRA-LIGAND FREE ENERGY PREDICTED BY IDOCK:   -1.30 KCAL/MOL
REMARK 927      BINDING AFFINITY PREDICTED BY RF-SCORE:    0.00 PKD
ROOT
HETATM    1  CA  UNL     1      -9.567  10.128  69.017  1.00  0.00    -0.196 C  
ENDROOT
BRANCH   1   2
HETATM    2  C   UNL     1      -9.006   8.937  68.235  1.00  0.00    -0.137 A  
HETATM    3  C   UNL     1      -8.251   8.043  66.103  1.00  0.00    -0.116 A  
HETATM    4  C   UNL     1      -7.644   6.972  66.755  1.00  0.00    -0.090 A  
HETATM    5  C   UNL     1      -7.773   6.840  68.134  1.00  0.00    -0.109 A  
HETATM    6  C   UNL     1      -8.932   9.016  66.835  1.00  0.00    -0.144 A  
HETATM    7  C   UNL     1      -8.461   7.808  68.868  1.00  0.00    -0.129 A  
ENDBRANCH   1   2
BRANCH   1   8
HETATM    8  C   UNL     1      -8.663  11.403  68.781  1.00  0.00    -0.076 C  
HETATM    9  N   UNL     1      -9.321  12.619  68.768  1.00  0.00    -0.405 N  
HETATM   10  H   UNL     1     -10.330  12.605  68.916  1.00  0.00     0.000 HD 
HETATM   11  O   UNL     1      -7.445  11.331  68.616  1.00  0.00    -0.102 OA 
BRANCH   9  12
HETATM   12  CA  UNL     1      -8.674  13.969  68.552  1.00  0.00    -0.156 C  
HETATM   13  N   UNL     1      -9.505  15.645  67.496  1.00  0.00    -0.214 N  
HETATM   14  CA  UNL     1     -10.763  15.887  66.731  1.00  0.00    -0.281 C  
HETATM   15  C   UNL     1     -10.463  16.783  65.509  1.00  0.00    -0.237 C  
HETATM   16  O   UNL     1     -10.211  15.710  69.718  1.00  0.00    -0.273 OA 
HETATM   17  C   UNL     1     -11.333  14.496  66.373  1.00  0.00    -0.349 C  
HETATM   18  OXT UNL     1     -11.215  16.953  64.561  1.00  0.00    -1.057 OA 
HETATM   19  O   UNL     1      -9.308  17.486  65.619  1.00  0.00    -0.467 OA 
HETATM   20  C   UNL     1      -9.552  15.248  68.816  1.00  0.00    -0.214 C  
HETATM   21  C   UNL     1     -12.306  14.397  65.196  1.00  0.00    -0.383 C  
HETATM   22  S   UNL     1      -9.828  13.490  65.977  1.00  0.00    -0.228 SA 
HETATM   23  C   UNL     1     -12.084  13.868  67.561  1.00  0.00    -0.366 C  
HETATM   24  C   UNL     1      -8.715  14.466  67.075  1.00  0.00    -0.223 C  
ENDBRANCH   9  12
ENDBRANCH   1   8
BRANCH   1  25
HETATM   25  N   UNL     1      -9.786   9.793  70.427  1.00  0.00    -0.334 N  
HETATM   26  H   UNL     1      -8.988   9.687  71.053  1.00  0.00     0.000 HD 
BRANCH  25  27
HETATM   27  C   UNL     1     -11.063   9.620  70.914  1.00  0.00    -0.352 C  
HETATM   28  O   UNL     1     -11.966  10.429  70.709  1.00  0.00    -0.304 OA 
BRANCH  27  29
HETATM   29  N   UNL     1     -11.286   8.444  71.616  1.00  0.00    -0.268 N  
HETATM   30  C   UNL     1     -12.367   7.548  71.245  1.00  0.00    -0.327 C  
HETATM   31  C   UNL     1     -12.196   6.327  72.138  1.00  0.00    -0.203 C  
HETATM   32  C   UNL     1     -10.424   7.800  72.509  1.00  0.00    -0.284 C  
HETATM   33  O   UNL     1      -9.384   8.241  72.969  1.00  0.00    -0.264 OA 
HETATM   34  N   UNL     1     -10.949   6.556  72.811  1.00  0.00    -0.246 NA 
ENDBRANCH  27  29
ENDBRANCH  25  27
ENDBRANCH   1  25
TORSDOF 6
ENDMDL
MODEL       64
REMARK 921   NORMALIZED FREE ENERGY PREDICTED BY IDOCK:   -5.71 KCAL/MOL
REMARK 922        TOTAL FREE ENERGY PREDICTED BY IDOCK:   -9.81 KCAL/MOL
REMARK 923 INTER-LIGAND FREE ENERGY PREDICTED BY IDOCK:   -8.30 KCAL/MOL
REMARK 924 INTRA-LIGAND FREE ENERGY PREDICTED BY IDOCK:   -1.50 KCAL/MOL
REMARK 927      BINDING AFFINITY PREDICTED BY RF-SCORE:    0.00 PKD
ROOT
HETATM    1  CA  UNL     1      -9.821  14.711  67.312  1.00  0.00    -0.231 C  
ENDROOT
BRANCH   1   2
HETATM    2  C   UNL     1      -8.497  15.282  67.830  1.00  0.00    -0.151 A  
HETATM    3  C   UNL     1      -6.972  15.580  69.702  1.00  0.00    -0.173 A  
HETATM    4  C   UNL     1      -5.953  15.947  68.826  1.00  0.00    -0.101 A  
HETATM    5  C   UNL     1      -6.217  16.053  67.464  1.00  0.00    -0.194 A  
HETATM    6  C   UNL     1      -8.237  15.254  69.210  1.00  0.00    -0.244 A  
HETATM    7  C   UNL     1      -7.483  15.735  66.970  1.00  0.00    -0.242 A  
ENDBRANCH   1   2
BRANCH   1   8
HETATM    8  C   UNL     1     -10.353  13.599  68.302  1.00  0.00    -0.251 C  
HETATM    9  N   UNL     1      -9.688  12.387  68.266  1.00  0.00    -0.220 N  
HETATM   10  H   UNL     1      -8.907  12.303  67.615  1.00  0.00     0.000 HD 
HETATM   11  O   UNL     1     -11.303  13.786  69.062  1.00  0.00    -0.258 OA 
BRANCH   9  12
HETATM   12  CA  UNL     1     -10.018  11.175  69.108  1.00  0.00    -0.082 C  
HETATM   13  N   UNL     1      -9.434   9.142  68.731  1.00  0.00    -0.146 N  
HETATM   14  CA  UNL     1      -8.689   8.448  67.641  1.00  0.00    -0.137 C  
HETATM   15  C   UNL     1      -9.321   7.064  67.379  1.00  0.00    -0.126 C  
HETATM   16  O   UNL     1      -7.746  10.217  69.930  1.00  0.00    -0.160 OA 
HETATM   17  C   UNL     1      -8.711   9.395  66.421  1.00  0.00    -0.135 C  
HETATM   18  OXT UNL     1      -9.108   6.366  66.399  1.00  0.00    -0.148 OA 
HETATM   19  O   UNL     1     -10.074   6.605  68.411  1.00  0.00    -0.144 OA 
HETATM   20  C   UNL     1      -8.848  10.174  69.434  1.00  0.00    -0.185 C  
HETATM   21  C   UNL     1      -8.486   8.790  65.033  1.00  0.00    -0.193 C  
HETATM   22  S   UNL     1     -10.408  10.138  66.468  1.00  0.00    -0.170 SA 
HETATM   23  C   UNL     1      -7.651  10.505  66.546  1.00  0.00    -0.128 C  
HETATM   24  C   UNL     1     -10.582   9.970  68.296  1.00  0.00    -0.226 C  
ENDBRANCH   9  12
ENDBRANCH   1   8
BRANCH   1  25
HETATM   25  N   UNL     1      -9.712  14.278  65.916  1.00  0.00    -0.451 N  
HETATM   26  H   UNL     1      -8.953  13.658  65.635  1.00  0.00     0.000 HD 
BRANCH  25  27
HETATM   27  C   UNL     1     -10.629  14.702  64.980  1.00  0.00    -0.439 C  
HETATM   28  O   UNL     1     -10.690  15.868  64.593  1.00  0.00    -0.553 OA 
BRANCH  27  29
HETATM   29  N   UNL     1     -11.455  13.718  64.456  1.00  0.00    -0.374 N  
HETATM   30  C   UNL     1     -10.919  12.666  63.611  1.00  0.00    -0.416 C  
HETATM   31  C   UNL     1     -12.086  11.721  63.363  1.00  0.00    -0.340 C  
HETATM   32  C   UNL     1     -12.757  13.392  64.848  1.00  0.00    -0.304 C  
HETATM   33  O   UNL     1     -13.472  14.022  65.609  1.00  0.00    -0.604 OA 
HETATM   34  N   UNL     1     -13.127  12.217  64.217  1.00  0.00    -0.778 NA 
ENDBRANCH  27  29
ENDBRANCH  25  27
ENDBRANCH   1  25
TORSDOF 6
ENDMDL
MODEL       65
REMARK 921   NORMALIZED FREE ENERGY PREDICTED BY IDOCK:   -5.71 KCAL/MOL
REMARK 922        TOTAL FREE ENERGY PREDICTED BY IDOCK:   -9.81 KCAL/MOL
REMARK 923 INTER-LIGAND FREE ENERGY PREDICTED BY IDOCK:   -7.76 KCAL/MOL
REMARK 924 INTRA-LIGAND FREE ENERGY PREDICTED BY IDOCK:   -2.05 KCAL/MOL
REMARK 927      BINDING AFFINITY PREDICTED BY RF-SCORE:    0.00 PKD
ROOT
HETATM    1  CA  UNL     1     -11.435   8.462  71.685  1.00  0.00    -0.287 C  
ENDROOT
BRANCH   1   2
HETATM    2  C   UNL     1     -10.337   8.022  72.658  1.00  0.00    -0.398 A  
HETATM    3  C   UNL     1      -9.629   6.496  74.415  1.00  0.00    -0.295 A  
HETATM    4  C   UNL     1      -8.303   6.877  74.226  1.00  0.00    -0.167 A  
HETATM    5  C   UNL     1      -7.995   7.877  73.308  1.00  0.00    -0.209 A  
HETATM    6  C   UNL     1     -10.640   7.067  73.642  1.00  0.00    -0.383 A  
HETATM    7  C   UNL     1      -9.006   8.455  72.538  1.00  0.00    -0.308 A  
ENDBRANCH   1   2
BRANCH   1   8
HETATM    8  C   UNL     1     -11.604   7.386  70.539  1.00  0.00    -0.229 C  
HETATM    9  N   UNL     1     -10.948   7.656  69.353  1.00  0.00    -0.424 N  
HETATM   10  H   UNL     1     -10.404   8.517  69.307  1.00  0.00     0.000 HD 
HETATM   11  O   UNL     1     -12.279   6.366  70.681  1.00  0.00    -0.238 OA 
BRANCH   9  12
HETATM   12  CA  UNL     1     -10.967   6.785  68.117  1.00  0.00    -0.201 C  
HETATM   13  N   UNL     1      -9.268   5.994  67.067  1.00  0.00    -0.119 N  
HETATM   14  CA  UNL     1      -7.789   6.121  67.215  1.00  0.00    -0.102 C  
HETATM   15  C   UNL     1      -7.130   6.173  65.820  1.00  0.00    -0.073 C  
HETATM   16  O   UNL     1      -9.853   4.536  68.791  1.00  0.00    -0.163 OA 
HETATM   17  C   UNL     1      -7.540   7.376  68.081  1.00  0.00    -0.114 C  
HETATM   18  OXT UNL     1      -5.980   6.522  65.597  1.00  0.00    -0.031 OA 
HETATM   19  O   UNL     1      -7.912   5.677  64.829  1.00  0.00    -0.105 OA 
HETATM   20  C   UNL     1     -10.038   5.514  68.106  1.00  0.00    -0.172 C  
HETATM   21  C   UNL     1      -6.169   8.051  67.996  1.00  0.00    -0.047 C  
HETATM   22  S   UNL     1      -8.824   8.578  67.497  1.00  0.00    -0.135 SA 
HETATM   23  C   UNL     1      -7.744   7.080  69.579  1.00  0.00    -0.107 C  
HETATM   24  C   UNL     1     -10.015   7.269  66.981  1.00  0.00    -0.224 C  
ENDBRANCH   9  12
ENDBRANCH   1   8
BRANCH   1  25
HETATM   25  N   UNL     1     -11.215   9.829  71.205  1.00  0.00    -0.370 N  
HETATM   26  H   UNL     1     -10.291  10.107  70.874  1.00  0.00     0.000 HD 
BRANCH  25  27
HETATM   27  C   UNL     1     -12.247  10.742  71.196  1.00  0.00    -0.352 C  
HETATM   28  O   UNL     1     -13.177  10.698  71.999  1.00  0.00    -0.473 OA 
BRANCH  27  29
HETATM   29  N   UNL     1     -12.149  11.753  70.250  1.00  0.00    -0.351 N  
HETATM   30  C   UNL     1     -12.041  13.143  70.654  1.00  0.00    -0.264 C  
HETATM   31  C   UNL     1     -11.811  13.915  69.363  1.00  0.00    -0.334 C  
HETATM   32  C   UNL     1     -11.847  11.630  68.891  1.00  0.00    -0.329 C  
HETATM   33  O   UNL     1     -11.780  10.597  68.246  1.00  0.00    -0.445 OA 
HETATM   34  N   UNL     1     -11.640  12.895  68.369  1.00  0.00    -0.311 NA 
ENDBRANCH  27  29
ENDBRANCH  25  27
ENDBRANCH   1  25
TORSDOF 6
ENDMDL
MODEL       66
REMARK 921   NORMALIZED FREE ENERGY PREDICTED BY IDOCK:   -5.69 KCAL/MOL
REMARK 922        TOTAL FREE ENERGY PREDICTED BY IDOCK:   -9.78 KCAL/MOL
REMARK 923 INTER-LIGAND FREE ENERGY PREDICTED BY IDOCK:   -8.43 KCAL/MOL
REMARK 924 INTRA-LIGAND FREE ENERGY PREDICTED BY IDOCK:   -1.35 KCAL/MOL
REMARK 927      BINDING AFFINITY PREDICTED BY RF-SCORE:    0.00 PKD
ROOT
HETATM    1  CA  UNL     1      -9.751  12.398  67.777  1.00  0.00    -0.201 C  
ENDROOT
BRANCH   1   2
HETATM    2  C   UNL     1      -9.610  10.876  67.680  1.00  0.00    -0.177 A  
HETATM    3  C   UNL     1      -9.221   8.765  68.823  1.00  0.00    -0.141 A  
HETATM    4  C   UNL     1      -9.692   8.066  67.715  1.00  0.00    -0.191 A  
HETATM    5  C   UNL     1     -10.056   8.758  66.564  1.00  0.00    -0.349 A  
HETATM    6  C   UNL     1      -9.174  10.159  68.806  1.00  0.00    -0.164 A  
HETATM    7  C   UNL     1     -10.003  10.153  66.541  1.00  0.00    -0.283 A  
ENDBRANCH   1   2
BRANCH   1   8
HETATM    8  C   UNL     1      -8.374  13.091  67.424  1.00  0.00    -0.194 C  
HETATM    9  N   UNL     1      -8.318  14.459  67.611  1.00  0.00    -0.165 N  
HETATM   10  H   UNL     1      -9.158  14.915  67.967  1.00  0.00     0.000 HD 
HETATM   11  O   UNL     1      -7.403  12.461  67.003  1.00  0.00    -0.113 OA 
BRANCH   9  12
HETATM   12  CA  UNL     1      -7.120  15.338  67.336  1.00  0.00    -0.191 C  
HETATM   13  N   UNL     1      -6.998  17.470  67.579  1.00  0.00    -0.164 N  
HETATM   14  CA  UNL     1      -7.959  18.539  67.977  1.00  0.00    -0.276 C  
HETATM   15  C   UNL     1      -7.694  19.812  67.145  1.00  0.00    -0.265 C  
HETATM   16  O   UNL     1      -6.482  16.435  69.604  1.00  0.00    -0.210 OA 
HETATM   17  C   UNL     1      -9.374  17.946  67.797  1.00  0.00    -0.262 C  
HETATM   18  OXT UNL     1      -8.456  20.763  67.052  1.00  0.00    -0.226 OA 
HETATM   19  O   UNL     1      -6.456  19.853  66.590  1.00  0.00    -0.189 OA 
HETATM   20  C   UNL     1      -6.737  16.411  68.423  1.00  0.00    -0.141 C  
HETATM   21  C   UNL     1     -10.547  18.916  67.637  1.00  0.00    -0.501 C  
HETATM   22  S   UNL     1      -9.236  16.932  66.252  1.00  0.00    -0.243 SA 
HETATM   23  C   UNL     1      -9.766  17.043  68.981  1.00  0.00    -0.216 C  
HETATM   24  C   UNL     1      -7.437  16.595  66.469  1.00  0.00    -0.271 C  
ENDBRANCH   9  12
ENDBRANCH   1   8
BRANCH   1  25
HETATM   25  N   UNL     1     -10.323  12.807  69.062  1.00  0.00    -0.437 N  
HETATM   26  H   UNL     1      -9.725  12.871  69.886  1.00  0.00     0.000 HD 
BRANCH  25  27
HETATM   27  C   UNL     1     -11.663  13.107  69.167  1.00  0.00    -0.325 C  
HETATM   28  O   UNL     1     -12.315  13.564  68.231  1.00  0.00    -0.215 OA 
BRANCH  27  29
HETATM   29  N   UNL     1     -12.253  12.814  70.389  1.00  0.00    -0.338 N  
HETATM   30  C   UNL     1     -12.869  13.857  71.189  1.00  0.00    -0.351 C  
HETATM   31  C   UNL     1     -13.517  13.131  72.359  1.00  0.00    -0.543 C  
HETATM   32  C   UNL     1     -12.615  11.559  70.888  1.00  0.00    -0.341 C  
HETATM   33  O   UNL     1     -12.326  10.472  70.417  1.00  0.00    -0.301 OA 
HETATM   34  N   UNL     1     -13.363  11.740  72.038  1.00  0.00    -0.438 NA 
ENDBRANCH  27  29
ENDBRANCH  25  27
ENDBRANCH   1  25
TORSDOF 6
ENDMDL
MODEL       67
REMARK 921   NORMALIZED FREE ENERGY PREDICTED BY IDOCK:   -5.68 KCAL/MOL
REMARK 922        TOTAL FREE ENERGY PREDICTED BY IDOCK:   -9.77 KCAL/MOL
REMARK 923 INTER-LIGAND FREE ENERGY PREDICTED BY IDOCK:   -8.27 KCAL/MOL
REMARK 924 INTRA-LIGAND FREE ENERGY PREDICTED BY IDOCK:   -1.50 KCAL/MOL
REMARK 927      BINDING AFFINITY PREDICTED BY RF-SCORE:    0.00 PKD
ROOT
HETATM    1  CA  UNL     1     -11.604  13.358  68.298  1.00  0.00    -0.344 C  
ENDROOT
BRANCH   1   2
HETATM    2  C   UNL     1     -12.089  13.060  69.719  1.00  0.00    -0.325 A  
HETATM    3  C   UNL     1     -13.233  13.849  71.716  1.00  0.00    -0.455 A  
HETATM    4  C   UNL     1     -13.351  12.540  72.178  1.00  0.00    -0.540 A  
HETATM    5  C   UNL     1     -12.781  11.498  71.454  1.00  0.00    -0.469 A  
HETATM    6  C   UNL     1     -12.602  14.109  70.499  1.00  0.00    -0.410 A  
HETATM    7  C   UNL     1     -12.143  11.756  70.240  1.00  0.00    -0.426 A  
ENDBRANCH   1   2
BRANCH   1   8
HETATM    8  C   UNL     1     -10.049  13.092  68.192  1.00  0.00    -0.237 C  
HETATM    9  N   UNL     1      -9.675  11.951  67.506  1.00  0.00    -0.180 N  
HETATM   10  H   UNL     1     -10.422  11.375  67.117  1.00  0.00     0.000 HD 
HETATM   11  O   UNL     1      -9.212  13.845  68.688  1.00  0.00    -0.179 OA 
BRANCH   9  12
HETATM   12  CA  UNL     1      -8.255  11.483  67.282  1.00  0.00    -0.155 C  
HETATM   13  N   UNL     1      -7.544   9.455  67.303  1.00  0.00    -0.091 N  
HETATM   14  CA  UNL     1      -8.167   8.126  67.570  1.00  0.00    -0.123 C  
HETATM   15  C   UNL     1      -7.169   7.230  68.334  1.00  0.00    -0.091 C  
HETATM   16  O   UNL     1      -8.307   9.981  65.162  1.00  0.00    -0.138 OA 
HETATM   17  C   UNL     1      -9.482   8.403  68.332  1.00  0.00    -0.139 C  
HETATM   18  OXT UNL     1      -7.455   6.192  68.913  1.00  0.00    -0.083 OA 
HETATM   19  O   UNL     1      -5.877   7.630  68.218  1.00  0.00    -0.029 OA 
HETATM   20  C   UNL     1      -8.033  10.270  66.303  1.00  0.00    -0.124 C  
HETATM   21  C   UNL     1     -10.081   7.271  69.171  1.00  0.00    -0.183 C  
HETATM   22  S   UNL     1      -9.053   9.807  69.461  1.00  0.00    -0.229 SA 
HETATM   23  C   UNL     1     -10.612   8.828  67.376  1.00  0.00    -0.304 C  
HETATM   24  C   UNL     1      -7.739  10.477  68.356  1.00  0.00    -0.104 C  
ENDBRANCH   9  12
ENDBRANCH   1   8
BRANCH   1  25
HETATM   25  N   UNL     1     -12.022  14.690  67.853  1.00  0.00    -0.544 N  
HETATM   26  H   UNL     1     -12.745  15.193  68.368  1.00  0.00     0.000 HD 
BRANCH  25  27
HETATM   27  C   UNL     1     -11.447  15.269  66.743  1.00  0.00    -0.123 C  
HETATM   28  O   UNL     1     -11.565  14.799  65.613  1.00  0.00    -0.341 OA 
BRANCH  27  29
HETATM   29  N   UNL     1     -10.760  16.454  66.969  1.00  0.00    -0.268 N  
HETATM   30  C   UNL     1     -10.328  17.289  65.863  1.00  0.00    -0.278 C  
HETATM   31  C   UNL     1      -9.754  18.541  66.509  1.00  0.00    -0.343 C  
HETATM   32  C   UNL     1     -10.641  17.161  68.170  1.00  0.00    -0.380 C  
HETATM   33  O   UNL     1     -10.975  16.781  69.279  1.00  0.00    -0.294 OA 
HETATM   34  N   UNL     1     -10.059  18.388  67.903  1.00  0.00    -0.343 NA 
ENDBRANCH  27  29
ENDBRANCH  25  27
ENDBRANCH   1  25
TORSDOF 6
ENDMDL
MODEL       68
REMARK 921   NORMALIZED FREE ENERGY PREDICTED BY IDOCK:   -5.61 KCAL/MOL
REMARK 922        TOTAL FREE ENERGY PREDICTED BY IDOCK:   -9.68 KCAL/MOL
REMARK 923 INTER-LIGAND FREE ENERGY PREDICTED BY IDOCK:   -7.82 KCAL/MOL
REMARK 924 INTRA-LIGAND FREE ENERGY PREDICTED BY IDOCK:   -1.85 KCAL/MOL
REMARK 927      BINDING AFFINITY PREDICTED BY RF-SCORE:    0.00 PKD
ROOT
HETATM    1  CA  UNL     1      -9.608  12.526  66.916  1.00  0.00    -0.229 C  
ENDROOT
BRANCH   1   2
HETATM    2  C   UNL     1     -10.401  12.892  65.657  1.00  0.00    -0.295 A  
HETATM    3  C   UNL     1     -11.680  12.135  63.732  1.00  0.00    -0.576 A  
HETATM    4  C   UNL     1     -12.176  13.422  63.543  1.00  0.00    -0.468 A  
HETATM    5  C   UNL     1     -11.737  14.460  64.359  1.00  0.00    -0.390 A  
HETATM    6  C   UNL     1     -10.794  11.871  64.778  1.00  0.00    -0.359 A  
HETATM    7  C   UNL     1     -10.845  14.200  65.401  1.00  0.00    -0.341 A  
ENDBRANCH   1   2
BRANCH   1   8
HETATM    8  C   UNL     1      -9.855  13.606  68.043  1.00  0.00    -0.244 C  
HETATM    9  N   UNL     1      -8.811  14.480  68.284  1.00  0.00    -0.172 N  
HETATM   10  H   UNL     1      -7.970  14.369  67.718  1.00  0.00     0.000 HD 
HETATM   11  O   UNL     1     -10.907  13.674  68.677  1.00  0.00    -0.250 OA 
BRANCH   9  12
HETATM   12  CA  UNL     1      -8.808  15.586  69.314  1.00  0.00    -0.256 C  
HETATM   13  N   UNL     1      -8.346  17.659  68.983  1.00  0.00    -0.113 N  
HETATM   14  CA  UNL     1      -7.899  18.461  67.807  1.00  0.00    -0.241 C  
HETATM   15  C   UNL     1      -6.891  19.536  68.266  1.00  0.00    -0.285 C  
HETATM   16  O   UNL     1     -10.610  17.298  68.553  1.00  0.00    -0.354 OA 
HETATM   17  C   UNL     1      -7.330  17.456  66.781  1.00  0.00    -0.215 C  
HETATM   18  OXT UNL     1      -6.160  20.178  67.526  1.00  0.00    -0.191 OA 
HETATM   19  O   UNL     1      -6.954  19.813  69.593  1.00  0.00    -0.337 OA 
HETATM   20  C   UNL     1      -9.521  16.938  68.935  1.00  0.00    -0.241 C  
HETATM   21  C   UNL     1      -6.358  17.980  65.721  1.00  0.00    -0.287 C  
HETATM   22  S   UNL     1      -6.444  16.209  67.826  1.00  0.00    -0.162 SA 
HETATM   23  C   UNL     1      -8.452  16.765  65.983  1.00  0.00    -0.201 C  
HETATM   24  C   UNL     1      -7.523  16.469  69.298  1.00  0.00    -0.183 C  
ENDBRANCH   9  12
ENDBRANCH   1   8
BRANCH   1  25
HETATM   25  N   UNL     1      -8.195  12.279  66.611  1.00  0.00    -0.387 N  
HETATM   26  H   UNL     1      -7.620  13.032  66.232  1.00  0.00     0.000 HD 
BRANCH  25  27
HETATM   27  C   UNL     1      -7.638  11.039  66.833  1.00  0.00    -0.133 C  
HETATM   28  O   UNL     1      -7.002  10.435  65.972  1.00  0.00    -0.115 OA 
BRANCH  27  29
HETATM   29  N   UNL     1      -7.797  10.527  68.113  1.00  0.00    -0.107 N  
HETATM   30  C   UNL     1      -8.285   9.176  68.320  1.00  0.00    -0.116 C  
HETATM   31  C   UNL     1      -8.182   8.942  69.821  1.00  0.00    -0.119 C  
HETATM   32  C   UNL     1      -7.278  11.032  69.309  1.00  0.00    -0.124 C  
HETATM   33  O   UNL     1      -6.732  12.110  69.473  1.00  0.00    -0.096 OA 
HETATM   34  N   UNL     1      -7.495  10.102  70.311  1.00  0.00    -0.236 NA 
ENDBRANCH  27  29
ENDBRANCH  25  27
ENDBRANCH   1  25
TORSDOF 6
ENDMDL
MODEL       69
REMARK 921   NORMALIZED FREE ENERGY PREDICTED BY IDOCK:   -5.60 KCAL/MOL
REMARK 922        TOTAL FREE ENERGY PREDICTED BY IDOCK:   -9.66 KCAL/MOL
REMARK 923 INTER-LIGAND FREE ENERGY PREDICTED BY IDOCK:   -8.11 KCAL/MOL
REMARK 924 INTRA-LIGAND FREE ENERGY PREDICTED BY IDOCK:   -1.55 KCAL/MOL
REMARK 927      BINDING AFFINITY PREDICTED BY RF-SCORE:    0.00 PKD
ROOT
HETATM    1  CA  UNL     1     -10.618   9.609  67.933  1.00  0.00    -0.255 C  
ENDROOT
BRANCH   1   2
HETATM    2  C   UNL     1     -10.124   8.164  67.809  1.00  0.00    -0.260 A  
HETATM    3  C   UNL     1      -8.737   6.376  68.700  1.00  0.00    -0.122 A  
HETATM    4  C   UNL     1      -9.421   5.445  67.923  1.00  0.00    -0.137 A  
HETATM    5  C   UNL     1     -10.405   5.872  67.038  1.00  0.00    -0.298 A  
HETATM    6  C   UNL     1      -9.081   7.727  68.641  1.00  0.00    -0.136 A  
HETATM    7  C   UNL     1     -10.747   7.224  66.971  1.00  0.00    -0.406 A  
ENDBRANCH   1   2
BRANCH   1   8
HETATM    8  C   UNL     1      -9.871  10.526  66.883  1.00  0.00    -0.193 C  
HETATM    9  N   UNL     1     -10.293  11.841  66.818  1.00  0.00    -0.214 N  
HETATM   10  H   UNL     1     -11.043  12.121  67.450  1.00  0.00     0.000 HD 
HETATM   11  O   UNL     1      -8.969  10.106  66.160  1.00  0.00    -0.145 OA 
BRANCH   9  12
HETATM   12  CA  UNL     1      -9.740  12.899  65.892  1.00  0.00    -0.184 C  
HETATM   13  N   UNL     1      -9.542  14.999  66.301  1.00  0.00    -0.288 N  
HETATM   14  CA  UNL     1      -9.906  15.886  67.444  1.00  0.00    -0.234 C  
HETATM   15  C   UNL     1     -10.398  17.248  66.907  1.00  0.00    -0.310 C  
HETATM   16  O   UNL     1      -7.646  13.883  67.074  1.00  0.00    -0.020 OA 
HETATM   17  C   UNL     1     -10.954  15.117  68.279  1.00  0.00    -0.276 C  
HETATM   18  OXT UNL     1     -10.998  18.087  67.563  1.00  0.00    -0.314 OA 
HETATM   19  O   UNL     1     -10.004  17.508  65.635  1.00  0.00    -0.561 OA 
HETATM   20  C   UNL     1      -8.702  13.921  66.489  1.00  0.00     0.095 C  
HETATM   21  C   UNL     1     -11.875  15.923  69.199  1.00  0.00    -0.340 C  
HETATM   22  S   UNL     1     -11.995  14.264  67.006  1.00  0.00    -0.392 SA 
HETATM   23  C   UNL     1     -10.291  14.074  69.198  1.00  0.00    -0.064 C  
HETATM   24  C   UNL     1     -10.640  14.165  65.761  1.00  0.00    -0.300 C  
ENDBRANCH   9  12
ENDBRANCH   1   8
BRANCH   1  25
HETATM   25  N   UNL     1     -10.545  10.088  69.316  1.00  0.00    -0.213 N  
HETATM   26  H   UNL     1      -9.656  10.063  69.815  1.00  0.00     0.000 HD 
BRANCH  25  27
HETATM   27  C   UNL     1     -11.670  10.573  69.948  1.00  0.00    -0.294 C  
HETATM   28  O   UNL     1     -12.273  11.569  69.555  1.00  0.00    -0.289 OA 
BRANCH  27  29
HETATM   29  N   UNL     1     -12.115   9.835  71.035  1.00  0.00    -0.324 N  
HETATM   30  C   UNL     1     -13.533   9.623  71.262  1.00  0.00    -0.289 C  
HETATM   31  C   UNL     1     -13.608   8.665  72.442  1.00  0.00    -0.343 C  
HETATM   32  C   UNL     1     -11.372   8.979  71.854  1.00  0.00    -0.368 C  
HETATM   33  O   UNL     1     -10.159   8.852  71.871  1.00  0.00    -0.321 OA 
HETATM   34  N   UNL     1     -12.244   8.285  72.674  1.00  0.00    -0.317 NA 
ENDBRANCH  27  29
ENDBRANCH  25  27
ENDBRANCH   1  25
TORSDOF 6
ENDMDL
MODEL       70
REMARK 921   NORMALIZED FREE ENERGY PREDICTED BY IDOCK:   -5.59 KCAL/MOL
REMARK 922        TOTAL FREE ENERGY PREDICTED BY IDOCK:   -9.65 KCAL/MOL
REMARK 923 INTER-LIGAND FREE ENERGY PREDICTED BY IDOCK:   -9.28 KCAL/MOL
REMARK 924 INTRA-LIGAND FREE ENERGY PREDICTED BY IDOCK:   -0.37 KCAL/MOL
REMARK 927      BINDING AFFINITY PREDICTED BY RF-SCORE:    0.00 PKD
ROOT
HETATM    1  CA  UNL     1      -9.471  17.552  67.906  1.00  0.00    -0.277 C  
ENDROOT
BRANCH   1   2
HETATM    2  C   UNL     1      -8.257  17.117  68.733  1.00  0.00    -0.238 A  
HETATM    3  C   UNL     1      -7.035  15.310  69.808  1.00  0.00    -0.168 A  
HETATM    4  C   UNL     1      -5.910  16.124  69.920  1.00  0.00    -0.182 A  
HETATM    5  C   UNL     1      -5.973  17.451  69.507  1.00  0.00    -0.246 A  
HETATM    6  C   UNL     1      -8.202  15.803  69.224  1.00  0.00    -0.247 A  
HETATM    7  C   UNL     1      -7.142  17.949  68.929  1.00  0.00    -0.264 A  
ENDBRANCH   1   2
BRANCH   1   8
HETATM    8  C   UNL     1      -9.500  16.765  66.535  1.00  0.00    -0.266 C  
HETATM    9  N   UNL     1     -10.614  15.978  66.311  1.00  0.00    -0.304 N  
HETATM   10  H   UNL     1     -11.331  15.968  67.037  1.00  0.00     0.000 HD 
HETATM   11  O   UNL     1      -8.590  16.838  65.710  1.00  0.00    -0.485 OA 
BRANCH   9  12
HETATM   12  CA  UNL     1     -10.862  15.131  65.084  1.00  0.00    -0.422 C  
HETATM   13  N   UNL     1     -11.227  13.014  65.028  1.00  0.00    -0.291 N  
HETATM   14  CA  UNL     1     -11.269  11.927  66.050  1.00  0.00    -0.324 C  
HETATM   15  C   UNL     1     -10.660  10.637  65.460  1.00  0.00    -0.110 C  
HETATM   16  O   UNL     1     -13.247  14.133  65.355  1.00  0.00    -0.741 OA 
HETATM   17  C   UNL     1     -10.530  12.466  67.295  1.00  0.00    -0.222 C  
HETATM   18  OXT UNL     1     -10.322   9.658  66.109  1.00  0.00    -0.230 OA 
HETATM   19  O   UNL     1     -10.629  10.619  64.104  1.00  0.00    -0.283 OA 
HETATM   20  C   UNL     1     -12.059  14.109  65.134  1.00  0.00    -0.414 C  
HETATM   21  C   UNL     1      -9.972  11.452  68.297  1.00  0.00    -0.203 C  
HETATM   22  S   UNL     1      -9.116  13.431  66.587  1.00  0.00    -0.109 SA 
HETATM   23  C   UNL     1     -11.430  13.395  68.130  1.00  0.00    -0.339 C  
HETATM   24  C   UNL     1      -9.996  13.836  65.018  1.00  0.00    -0.180 C  
ENDBRANCH   9  12
ENDBRANCH   1   8
BRANCH   1  25
HETATM   25  N   UNL     1      -9.538  19.010  67.771  1.00  0.00    -0.303 N  
HETATM   26  H   UNL     1      -9.861  19.577  68.554  1.00  0.00     0.000 HD 
BRANCH  25  27
HETATM   27  C   UNL     1      -9.168  19.620  66.592  1.00  0.00    -0.364 C  
HETATM   28  O   UNL     1      -9.924  19.712  65.628  1.00  0.00    -0.392 OA 
BRANCH  27  29
HETATM   29  N   UNL     1      -7.895  20.173  66.575  1.00  0.00    -0.295 N  
HETATM   30  C   UNL     1      -7.448  21.050  67.643  1.00  0.00    -0.119 C  
HETATM   31  C   UNL     1      -5.982  21.326  67.343  1.00  0.00    -0.357 C  
HETATM   32  C   UNL     1      -6.804  19.792  65.788  1.00  0.00    -0.282 C  
HETATM   33  O   UNL     1      -6.815  19.013  64.850  1.00  0.00    -0.446 OA 
HETATM   34  N   UNL     1      -5.679  20.459  66.240  1.00  0.00    -0.173 NA 
ENDBRANCH  27  29
ENDBRANCH  25  27
ENDBRANCH   1  25
TORSDOF 6
ENDMDL
MODEL       71
REMARK 921   NORMALIZED FREE ENERGY PREDICTED BY IDOCK:   -5.58 KCAL/MOL
REMARK 922        TOTAL FREE ENERGY PREDICTED BY IDOCK:   -9.63 KCAL/MOL
REMARK 923 INTER-LIGAND FREE ENERGY PREDICTED BY IDOCK:   -8.09 KCAL/MOL
REMARK 924 INTRA-LIGAND FREE ENERGY PREDICTED BY IDOCK:   -1.54 KCAL/MOL
REMARK 927      BINDING AFFINITY PREDICTED BY RF-SCORE:    0.00 PKD
ROOT
HETATM    1  CA  UNL     1     -11.376  10.583  70.393  1.00  0.00    -0.328 C  
ENDROOT
BRANCH   1   2
HETATM    2  C   UNL     1     -10.520  10.415  69.134  1.00  0.00    -0.248 A  
HETATM    3  C   UNL     1     -10.405  10.406  66.704  1.00  0.00    -0.292 A  
HETATM    4  C   UNL     1      -9.016  10.497  66.760  1.00  0.00    -0.149 A  
HETATM    5  C   UNL     1      -8.370  10.477  67.992  1.00  0.00    -0.116 A  
HETATM    6  C   UNL     1     -11.152  10.359  67.882  1.00  0.00    -0.363 A  
HETATM    7  C   UNL     1      -9.115  10.423  69.171  1.00  0.00    -0.197 A  
ENDBRANCH   1   2
BRANCH   1   8
HETATM    8  C   UNL     1     -11.820   9.167  70.936  1.00  0.00    -0.270 C  
HETATM    9  N   UNL     1     -11.427   8.077  70.181  1.00  0.00    -0.466 N  
HETATM   10  H   UNL     1     -10.880   8.266  69.341  1.00  0.00     0.000 HD 
HETATM   11  O   UNL     1     -12.478   9.028  71.967  1.00  0.00    -0.347 OA 
BRANCH   9  12
HETATM   12  CA  UNL     1     -11.738   6.631  70.492  1.00  0.00    -0.394 C  
HETATM   13  N   UNL     1     -10.331   5.085  70.989  1.00  0.00    -0.212 N  
HETATM   14  CA  UNL     1      -8.844   5.010  71.090  1.00  0.00    -0.129 C  
HETATM   15  C   UNL     1      -8.357   3.641  70.568  1.00  0.00    -0.057 C  
HETATM   16  O   UNL     1     -10.943   6.221  72.932  1.00  0.00    -0.244 OA 
HETATM   17  C   UNL     1      -8.289   6.221  70.309  1.00  0.00    -0.126 C  
HETATM   18  OXT UNL     1      -7.199   3.367  70.287  1.00  0.00    -0.040 OA 
HETATM   19  O   UNL     1      -9.323   2.689  70.550  1.00  0.00    -0.125 OA 
HETATM   20  C   UNL     1     -11.041   5.989  71.749  1.00  0.00    -0.276 C  
HETATM   21  C   UNL     1      -6.845   6.155  69.807  1.00  0.00    -0.068 C  
HETATM   22  S   UNL     1      -9.414   6.356  68.843  1.00  0.00    -0.127 SA 
HETATM   23  C   UNL     1      -8.360   7.514  71.142  1.00  0.00    -0.109 C  
HETATM   24  C   UNL     1     -10.860   5.608  69.708  1.00  0.00    -0.300 C  
ENDBRANCH   9  12
ENDBRANCH   1   8
BRANCH   1  25
HETATM   25  N   UNL     1     -12.481  11.521  70.173  1.00  0.00    -0.206 N  
HETATM   26  H   UNL     1     -13.029  11.466  69.314  1.00  0.00     0.000 HD 
BRANCH  25  27
HETATM   27  C   UNL     1     -12.785  12.476  71.117  1.00  0.00    -0.245 C  
HETATM   28  O   UNL     1     -13.289  12.198  72.203  1.00  0.00    -0.522 OA 
BRANCH  27  29
HETATM   29  N   UNL     1     -12.441  13.780  70.788  1.00  0.00    -0.360 N  
HETATM   30  C   UNL     1     -12.101  14.744  71.819  1.00  0.00    -0.348 C  
HETATM   31  C   UNL     1     -11.650  15.988  71.068  1.00  0.00    -0.431 C  
HETATM   32  C   UNL     1     -12.082  14.282  69.534  1.00  0.00    -0.330 C  
HETATM   33  O   UNL     1     -12.168  13.706  68.463  1.00  0.00    -0.342 OA 
HETATM   34  N   UNL     1     -11.610  15.574  69.694  1.00  0.00    -0.323 NA 
ENDBRANCH  27  29
ENDBRANCH  25  27
ENDBRANCH   1  25
TORSDOF 6
ENDMDL
MODEL       72
REMARK 921   NORMALIZED FREE ENERGY PREDICTED BY IDOCK:   -5.57 KCAL/MOL
REMARK 922        TOTAL FREE ENERGY PREDICTED BY IDOCK:   -9.62 KCAL/MOL
REMARK 923 INTER-LIGAND FREE ENERGY PREDICTED BY IDOCK:   -7.95 KCAL/MOL
REMARK 924 INTRA-LIGAND FREE ENERGY PREDICTED BY IDOCK:   -1.66 KCAL/MOL
REMARK 927      BINDING AFFINITY PREDICTED BY RF-SCORE:    0.00 PKD
ROOT
HETATM    1  CA  UNL     1     -10.604  11.374  67.723  1.00  0.00    -0.195 C  
ENDROOT
BRANCH   1   2
HETATM    2  C   UNL     1     -10.866  11.854  66.292  1.00  0.00    -0.323 A  
HETATM    3  C   UNL     1     -10.145  11.905  63.970  1.00  0.00    -0.361 A  
HETATM    4  C   UNL     1     -11.406  12.348  63.577  1.00  0.00    -0.553 A  
HETATM    5  C   UNL     1     -12.376  12.614  64.539  1.00  0.00    -0.537 A  
HETATM    6  C   UNL     1      -9.874  11.664  65.317  1.00  0.00    -0.279 A  
HETATM    7  C   UNL     1     -12.104  12.381  65.889  1.00  0.00    -0.352 A  
ENDBRANCH   1   2
BRANCH   1   8
HETATM    8  C   UNL     1     -11.016  12.500  68.753  1.00  0.00    -0.253 C  
HETATM    9  N   UNL     1     -10.135  13.558  68.879  1.00  0.00    -0.425 N  
HETATM   10  H   UNL     1      -9.297  13.538  68.299  1.00  0.00     0.000 HD 
HETATM   11  O   UNL     1     -12.054  12.448  69.413  1.00  0.00    -0.265 OA 
BRANCH   9  12
HETATM   12  CA  UNL     1     -10.306  14.743  69.802  1.00  0.00    -0.012 C  
HETATM   13  N   UNL     1     -10.625  16.790  69.232  1.00  0.00    -0.335 N  
HETATM   14  CA  UNL     1     -10.694  17.520  67.933  1.00  0.00    -0.339 C  
HETATM   15  C   UNL     1     -10.032  18.907  68.080  1.00  0.00    -0.376 C  
HETATM   16  O   UNL     1     -12.680  15.693  69.338  1.00  0.00     0.023 OA 
HETATM   17  C   UNL     1     -10.027  16.608  66.880  1.00  0.00    -0.271 C  
HETATM   18  OXT UNL     1      -9.706  19.634  67.154  1.00  0.00    -0.320 OA 
HETATM   19  O   UNL     1      -9.935  19.331  69.366  1.00  0.00    -0.316 OA 
HETATM   20  C   UNL     1     -11.483  15.743  69.494  1.00  0.00    -0.353 C  
HETATM   21  C   UNL     1      -9.497  17.254  65.597  1.00  0.00     0.251 C  
HETATM   22  S   UNL     1      -8.600  15.853  67.789  1.00  0.00    -0.160 SA 
HETATM   23  C   UNL     1     -10.985  15.502  66.399  1.00  0.00    -0.238 C  
HETATM   24  C   UNL     1      -9.412  15.968  69.440  1.00  0.00    -0.226 C  
ENDBRANCH   9  12
ENDBRANCH   1   8
BRANCH   1  25
HETATM   25  N   UNL     1      -9.235  10.877  67.883  1.00  0.00    -0.149 N  
HETATM   26  H   UNL     1      -8.538  11.069  67.163  1.00  0.00     0.000 HD 
BRANCH  25  27
HETATM   27  C   UNL     1      -8.880  10.153  69.000  1.00  0.00    -0.166 C  
HETATM   28  O   UNL     1      -7.952  10.482  69.736  1.00  0.00    -0.127 OA 
BRANCH  27  29
HETATM   29  N   UNL     1      -9.671   9.047  69.277  1.00  0.00    -0.165 N  
HETATM   30  C   UNL     1      -9.386   7.756  68.676  1.00  0.00    -0.148 C  
HETATM   31  C   UNL     1     -10.364   6.789  69.326  1.00  0.00    -0.200 C  
HETATM   32  C   UNL     1     -10.597   8.891  70.314  1.00  0.00    -0.218 C  
HETATM   33  O   UNL     1     -11.006   9.759  71.066  1.00  0.00    -0.320 OA 
HETATM   34  N   UNL     1     -10.999   7.567  70.352  1.00  0.00    -0.249 NA 
ENDBRANCH  27  29
ENDBRANCH  25  27
ENDBRANCH   1  25
TORSDOF 6
ENDMDL
MODEL       73
REMARK 921   NORMALIZED FREE ENERGY PREDICTED BY IDOCK:   -5.57 KCAL/MOL
REMARK 922        TOTAL FREE ENERGY PREDICTED BY IDOCK:   -9.62 KCAL/MOL
REMARK 923 INTER-LIGAND FREE ENERGY PREDICTED BY IDOCK:   -8.03 KCAL/MOL
REMARK 924 INTRA-LIGAND FREE ENERGY PREDICTED BY IDOCK:   -1.59 KCAL/MOL
REMARK 927      BINDING AFFINITY PREDICTED BY RF-SCORE:    0.00 PKD
ROOT
HETATM    1  CA  UNL     1      -8.845   9.728  69.612  1.00  0.00    -0.211 C  
ENDROOT
BRANCH   1   2
HETATM    2  C   UNL     1      -9.071   8.856  68.374  1.00  0.00    -0.137 A  
HETATM    3  C   UNL     1      -8.168   7.234  66.802  1.00  0.00    -0.121 A  
HETATM    4  C   UNL     1      -9.452   6.941  66.350  1.00  0.00    -0.170 A  
HETATM    5  C   UNL     1     -10.540   7.649  66.853  1.00  0.00    -0.359 A  
HETATM    6  C   UNL     1      -7.976   8.188  67.802  1.00  0.00    -0.127 A  
HETATM    7  C   UNL     1     -10.350   8.609  67.848  1.00  0.00    -0.286 A  
ENDBRANCH   1   2
BRANCH   1   8
HETATM    8  C   UNL     1      -8.133  11.077  69.199  1.00  0.00    -0.061 C  
HETATM    9  N   UNL     1      -8.965  12.099  68.782  1.00  0.00    -0.383 N  
HETATM   10  H   UNL     1      -9.967  11.911  68.778  1.00  0.00     0.000 HD 
HETATM   11  O   UNL     1      -6.911  11.222  69.239  1.00  0.00    -0.104 OA 
BRANCH   9  12
HETATM   12  CA  UNL     1      -8.519  13.471  68.331  1.00  0.00    -0.143 C  
HETATM   13  N   UNL     1      -9.678  14.913  67.237  1.00  0.00    -0.226 N  
HETATM   14  CA  UNL     1     -11.047  14.929  66.644  1.00  0.00    -0.329 C  
HETATM   15  C   UNL     1     -11.023  15.694  65.304  1.00  0.00    -0.364 C  
HETATM   16  O   UNL     1     -10.080  15.175  69.519  1.00  0.00    -0.231 OA 
HETATM   17  C   UNL     1     -11.491  13.454  66.524  1.00  0.00    -0.341 C  
HETATM   18  OXT UNL     1     -11.911  15.670  64.464  1.00  0.00    -0.325 OA 
HETATM   19  O   UNL     1      -9.956  16.521  65.167  1.00  0.00    -0.481 OA 
HETATM   20  C   UNL     1      -9.499  14.677  68.584  1.00  0.00    -0.211 C  
HETATM   21  C   UNL     1     -12.595  13.113  65.521  1.00  0.00    -0.468 C  
HETATM   22  S   UNL     1      -9.945  12.566  66.020  1.00  0.00    -0.255 SA 
HETATM   23  C   UNL     1     -11.994  12.902  67.871  1.00  0.00    -0.333 C  
HETATM   24  C   UNL     1      -8.817  13.778  66.831  1.00  0.00    -0.188 C  
ENDBRANCH   9  12
ENDBRANCH   1   8
BRANCH   1  25
HETATM   25  N   UNL     1      -8.167   8.986  70.679  1.00  0.00    -0.163 N  
HETATM   26  H   UNL     1      -7.169   8.786  70.602  1.00  0.00     0.000 HD 
BRANCH  25  27
HETATM   27  C   UNL     1      -8.865   8.558  71.786  1.00  0.00    -0.211 C  
HETATM   28  O   UNL     1      -8.548   8.871  72.932  1.00  0.00    -0.335 OA 
BRANCH  27  29
HETATM   29  N   UNL     1      -9.989   7.785  71.528  1.00  0.00    -0.170 N  
HETATM   30  C   UNL     1     -11.324   8.328  71.706  1.00  0.00    -0.288 C  
HETATM   31  C   UNL     1     -12.264   7.247  71.192  1.00  0.00    -0.340 C  
HETATM   32  C   UNL     1     -10.058   6.580  70.822  1.00  0.00    -0.185 C  
HETATM   33  O   UNL     1      -9.120   5.896  70.448  1.00  0.00    -0.144 OA 
HETATM   34  N   UNL     1     -11.390   6.265  70.616  1.00  0.00    -0.342 NA 
ENDBRANCH  27  29
ENDBRANCH  25  27
ENDBRANCH   1  25
TORSDOF 6
ENDMDL
MODEL       74
REMARK 921   NORMALIZED FREE ENERGY PREDICTED BY IDOCK:   -5.55 KCAL/MOL
REMARK 922        TOTAL FREE ENERGY PREDICTED BY IDOCK:   -9.59 KCAL/MOL
REMARK 923 INTER-LIGAND FREE ENERGY PREDICTED BY IDOCK:   -7.82 KCAL/MOL
REMARK 924 INTRA-LIGAND FREE ENERGY PREDICTED BY IDOCK:   -1.77 KCAL/MOL
REMARK 927      BINDING AFFINITY PREDICTED BY RF-SCORE:    0.00 PKD
ROOT
HETATM    1  CA  UNL     1     -10.622  11.401  67.622  1.00  0.00    -0.202 C  
ENDROOT
BRANCH   1   2
HETATM    2  C   UNL     1     -10.957  11.974  66.241  1.00  0.00    -0.340 A  
HETATM    3  C   UNL     1     -10.327  12.227  63.906  1.00  0.00    -0.455 A  
HETATM    4  C   UNL     1     -11.618  12.645  63.592  1.00  0.00    -0.575 A  
HETATM    5  C   UNL     1     -12.560  12.798  64.605  1.00  0.00    -0.491 A  
HETATM    6  C   UNL     1      -9.996  11.899  65.221  1.00  0.00    -0.280 A  
HETATM    7  C   UNL     1     -12.229  12.477  65.923  1.00  0.00    -0.310 A  
ENDBRANCH   1   2
BRANCH   1   8
HETATM    8  C   UNL     1     -10.980  12.455  68.745  1.00  0.00    -0.246 C  
HETATM    9  N   UNL     1     -10.180  13.581  68.797  1.00  0.00    -0.383 N  
HETATM   10  H   UNL     1      -9.430  13.652  68.110  1.00  0.00     0.000 HD 
HETATM   11  O   UNL     1     -11.911  12.292  69.533  1.00  0.00    -0.302 OA 
BRANCH   9  12
HETATM   12  CA  UNL     1     -10.321  14.717  69.784  1.00  0.00    -0.012 C  
HETATM   13  N   UNL     1     -10.695  16.784  69.331  1.00  0.00    -0.327 N  
HETATM   14  CA  UNL     1     -10.839  17.574  68.074  1.00  0.00    -0.258 C  
HETATM   15  C   UNL     1     -10.188  18.963  68.256  1.00  0.00    -0.380 C  
HETATM   16  O   UNL     1     -12.728  15.651  69.485  1.00  0.00    -0.038 OA 
HETATM   17  C   UNL     1     -10.213  16.724  66.946  1.00  0.00    -0.290 C  
HETATM   18  OXT UNL     1      -9.918  19.738  67.351  1.00  0.00    -0.351 OA 
HETATM   19  O   UNL     1     -10.033  19.326  69.554  1.00  0.00    -0.241 OA 
HETATM   20  C   UNL     1     -11.525  15.712  69.584  1.00  0.00    -0.340 C  
HETATM   21  C   UNL     1      -9.757  17.439  65.672  1.00  0.00     0.177 C  
HETATM   22  S   UNL     1      -8.733  15.949  67.746  1.00  0.00    -0.171 SA 
HETATM   23  C   UNL     1     -11.179  15.628  66.460  1.00  0.00    -0.048 C  
HETATM   24  C   UNL     1      -9.462  15.971  69.439  1.00  0.00    -0.226 C  
ENDBRANCH   9  12
ENDBRANCH   1   8
BRANCH   1  25
HETATM   25  N   UNL     1      -9.246  10.899  67.679  1.00  0.00    -0.151 N  
HETATM   26  H   UNL     1      -8.525  11.330  67.099  1.00  0.00     0.000 HD 
BRANCH  25  27
HETATM   27  C   UNL     1      -8.918   9.850  68.509  1.00  0.00    -0.122 C  
HETATM   28  O   UNL     1      -8.192   9.984  69.492  1.00  0.00    -0.138 OA 
BRANCH  27  29
HETATM   29  N   UNL     1      -9.501   8.630  68.197  1.00  0.00    -0.140 N  
HETATM   30  C   UNL     1     -10.288   7.906  69.180  1.00  0.00    -0.219 C  
HETATM   31  C   UNL     1     -10.865   6.715  68.428  1.00  0.00    -0.255 C  
HETATM   32  C   UNL     1      -9.697   8.071  66.930  1.00  0.00    -0.225 C  
HETATM   33  O   UNL     1      -9.239   8.473  65.874  1.00  0.00    -0.203 OA 
HETATM   34  N   UNL     1     -10.503   6.953  67.060  1.00  0.00    -0.277 NA 
ENDBRANCH  27  29
ENDBRANCH  25  27
ENDBRANCH   1  25
TORSDOF 6
ENDMDL
MODEL       75
REMARK 921   NORMALIZED FREE ENERGY PREDICTED BY IDOCK:   -5.51 KCAL/MOL
REMARK 922        TOTAL FREE ENERGY PREDICTED BY IDOCK:   -9.53 KCAL/MOL
REMARK 923 INTER-LIGAND FREE ENERGY PREDICTED BY IDOCK:   -8.60 KCAL/MOL
REMARK 924 INTRA-LIGAND FREE ENERGY PREDICTED BY IDOCK:   -0.94 KCAL/MOL
REMARK 927      BINDING AFFINITY PREDICTED BY RF-SCORE:    0.00 PKD
ROOT
HETATM    1  CA  UNL     1      -9.761   9.619  67.453  1.00  0.00    -0.156 C  
ENDROOT
BRANCH   1   2
HETATM    2  C   UNL     1      -9.687   8.148  67.033  1.00  0.00    -0.275 A  
HETATM    3  C   UNL     1      -8.300   6.214  66.531  1.00  0.00    -0.113 A  
HETATM    4  C   UNL     1      -9.410   5.379  66.633  1.00  0.00    -0.143 A  
HETATM    5  C   UNL     1     -10.668   5.926  66.863  1.00  0.00    -0.395 A  
HETATM    6  C   UNL     1      -8.436   7.589  66.724  1.00  0.00    -0.124 A  
HETATM    7  C   UNL     1     -10.809   7.302  67.049  1.00  0.00    -0.350 A  
ENDBRANCH   1   2
BRANCH   1   8
HETATM    8  C   UNL     1      -9.608   9.741  69.021  1.00  0.00    -0.177 C  
HETATM    9  N   UNL     1     -10.571   9.098  69.776  1.00  0.00    -0.224 N  
HETATM   10  H   UNL     1     -11.298   8.592  69.271  1.00  0.00     0.000 HD 
HETATM   11  O   UNL     1      -8.693  10.371  69.552  1.00  0.00    -0.157 OA 
BRANCH   9  12
HETATM   12  CA  UNL     1     -10.641   9.080  71.286  1.00  0.00    -0.308 C  
HETATM   13  N   UNL     1      -9.941   7.524  72.593  1.00  0.00    -0.190 N  
HETATM   14  CA  UNL     1      -9.328   6.179  72.392  1.00  0.00    -0.145 C  
HETATM   15  C   UNL     1      -9.864   5.200  73.458  1.00  0.00    -0.156 C  
HETATM   16  O   UNL     1      -8.184   8.986  72.130  1.00  0.00    -0.359 OA 
HETATM   17  C   UNL     1      -9.643   5.766  70.937  1.00  0.00    -0.168 C  
HETATM   18  OXT UNL     1      -9.755   3.983  73.415  1.00  0.00    -0.113 OA 
HETATM   19  O   UNL     1     -10.387   5.814  74.549  1.00  0.00    -0.271 OA 
HETATM   20  C   UNL     1      -9.345   8.652  72.071  1.00  0.00    -0.292 C  
HETATM   21  C   UNL     1      -9.598   4.278  70.584  1.00  0.00    -0.260 C  
HETATM   22  S   UNL     1     -11.370   6.382  70.666  1.00  0.00    -0.356 SA 
HETATM   23  C   UNL     1      -8.685   6.440  69.937  1.00  0.00    -0.142 C  
HETATM   24  C   UNL     1     -11.218   7.760  71.882  1.00  0.00    -0.265 C  
ENDBRANCH   9  12
ENDBRANCH   1   8
BRANCH   1  25
HETATM   25  N   UNL     1     -10.951  10.277  66.907  1.00  0.00    -0.139 N  
HETATM   26  H   UNL     1     -11.862  10.118  67.339  1.00  0.00     0.000 HD 
BRANCH  25  27
HETATM   27  C   UNL     1     -10.851  11.110  65.814  1.00  0.00    -0.151 C  
HETATM   28  O   UNL     1     -10.153  10.840  64.838  1.00  0.00    -0.278 OA 
BRANCH  27  29
HETATM   29  N   UNL     1     -11.629  12.258  65.857  1.00  0.00    -0.385 N  
HETATM   30  C   UNL     1     -11.301  13.347  66.761  1.00  0.00    -0.325 C  
HETATM   31  C   UNL     1     -12.280  14.459  66.414  1.00  0.00    -0.340 C  
HETATM   32  C   UNL     1     -12.580  12.686  64.927  1.00  0.00    -0.450 C  
HETATM   33  O   UNL     1     -13.027  12.046  63.990  1.00  0.00    -0.622 OA 
HETATM   34  N   UNL     1     -12.959  13.979  65.244  1.00  0.00    -0.767 NA 
ENDBRANCH  27  29
ENDBRANCH  25  27
ENDBRANCH   1  25
TORSDOF 6
ENDMDL
MODEL       76
REMARK 921   NORMALIZED FREE ENERGY PREDICTED BY IDOCK:   -5.50 KCAL/MOL
REMARK 922        TOTAL FREE ENERGY PREDICTED BY IDOCK:   -9.53 KCAL/MOL
REMARK 923 INTER-LIGAND FREE ENERGY PREDICTED BY IDOCK:   -7.97 KCAL/MOL
REMARK 924 INTRA-LIGAND FREE ENERGY PREDICTED BY IDOCK:   -1.55 KCAL/MOL
REMARK 927      BINDING AFFINITY PREDICTED BY RF-SCORE:    0.00 PKD
ROOT
HETATM    1  CA  UNL     1     -11.413  10.628  69.359  1.00  0.00    -0.286 C  
ENDROOT
BRANCH   1   2
HETATM    2  C   UNL     1     -10.566   9.407  69.728  1.00  0.00    -0.247 A  
HETATM    3  C   UNL     1      -8.668   8.508  70.955  1.00  0.00    -0.209 A  
HETATM    4  C   UNL     1      -9.152   7.214  70.776  1.00  0.00    -0.153 A  
HETATM    5  C   UNL     1     -10.299   7.004  70.017  1.00  0.00    -0.217 A  
HETATM    6  C   UNL     1      -9.366   9.597  70.431  1.00  0.00    -0.268 A  
HETATM    7  C   UNL     1     -10.994   8.091  69.485  1.00  0.00    -0.062 A  
ENDBRANCH   1   2
BRANCH   1   8
HETATM    8  C   UNL     1     -10.972  11.184  67.946  1.00  0.00    -0.253 C  
HETATM    9  N   UNL     1      -9.636  11.031  67.625  1.00  0.00    -0.167 N  
HETATM   10  H   UNL     1      -9.041  10.570  68.313  1.00  0.00     0.000 HD 
HETATM   11  O   UNL     1     -11.760  11.726  67.171  1.00  0.00    -0.547 OA 
BRANCH   9  12
HETATM   12  CA  UNL     1      -8.980  11.489  66.342  1.00  0.00    -0.197 C  
HETATM   13  N   UNL     1      -8.097  10.247  64.828  1.00  0.00    -0.156 N  
HETATM   14  CA  UNL     1      -7.863   8.781  64.676  1.00  0.00    -0.127 C  
HETATM   15  C   UNL     1      -6.502   8.541  63.987  1.00  0.00    -0.072 C  
HETATM   16  O   UNL     1     -10.379  10.471  64.403  1.00  0.00    -0.341 OA 
HETATM   17  C   UNL     1      -7.976   8.169  66.090  1.00  0.00    -0.102 C  
HETATM   18  OXT UNL     1      -5.914   7.471  63.946  1.00  0.00    -0.047 OA 
HETATM   19  O   UNL     1      -6.039   9.618  63.305  1.00  0.00    -0.095 OA 
HETATM   20  C   UNL     1      -9.371  10.738  65.015  1.00  0.00    -0.223 C  
HETATM   21  C   UNL     1      -7.309   6.815  66.344  1.00  0.00    -0.073 C  
HETATM   22  S   UNL     1      -7.176   9.432  67.183  1.00  0.00    -0.087 SA 
HETATM   23  C   UNL     1      -9.445   7.972  66.507  1.00  0.00    -0.278 C  
HETATM   24  C   UNL     1      -7.582  10.851  66.078  1.00  0.00    -0.094 C  
ENDBRANCH   9  12
ENDBRANCH   1   8
BRANCH   1  25
HETATM   25  N   UNL     1     -11.414  11.628  70.431  1.00  0.00    -0.471 N  
HETATM   26  H   UNL     1     -10.559  12.142  70.645  1.00  0.00     0.000 HD 
BRANCH  25  27
HETATM   27  C   UNL     1     -12.561  11.879  71.152  1.00  0.00    -0.288 C  
HETATM   28  O   UNL     1     -13.235  10.984  71.657  1.00  0.00    -0.414 OA 
BRANCH  27  29
HETATM   29  N   UNL     1     -12.887  13.218  71.318  1.00  0.00    -0.345 N  
HETATM   30  C   UNL     1     -13.509  13.686  72.543  1.00  0.00    -0.570 C  
HETATM   31  C   UNL     1     -13.573  15.200  72.403  1.00  0.00    -0.470 C  
HETATM   32  C   UNL     1     -12.444  14.309  70.565  1.00  0.00    -0.361 C  
HETATM   33  O   UNL     1     -11.824  14.271  69.516  1.00  0.00    -0.287 OA 
HETATM   34  N   UNL     1     -12.837  15.473  71.202  1.00  0.00    -0.465 NA 
ENDBRANCH  27  29
ENDBRANCH  25  27
ENDBRANCH   1  25
TORSDOF 6
ENDMDL
MODEL       77
REMARK 921   NORMALIZED FREE ENERGY PREDICTED BY IDOCK:   -5.47 KCAL/MOL
REMARK 922        TOTAL FREE ENERGY PREDICTED BY IDOCK:   -9.48 KCAL/MOL
REMARK 923 INTER-LIGAND FREE ENERGY PREDICTED BY IDOCK:   -7.64 KCAL/MOL
REMARK 924 INTRA-LIGAND FREE ENERGY PREDICTED BY IDOCK:   -1.84 KCAL/MOL
REMARK 927      BINDING AFFINITY PREDICTED BY RF-SCORE:    0.00 PKD
ROOT
HETATM    1  CA  UNL     1      -9.602  11.867  66.948  1.00  0.00    -0.200 C  
ENDROOT
BRANCH   1   2
HETATM    2  C   UNL     1      -9.151  11.036  65.743  1.00  0.00    -0.219 A  
HETATM    3  C   UNL     1      -9.615  10.256  63.487  1.00  0.00    -0.321 A  
HETATM    4  C   UNL     1      -8.287   9.862  63.339  1.00  0.00    -0.168 A  
HETATM    5  C   UNL     1      -7.406   9.986  64.409  1.00  0.00    -0.138 A  
HETATM    6  C   UNL     1     -10.047  10.834  64.681  1.00  0.00    -0.410 A  
HETATM    7  C   UNL     1      -7.838  10.557  65.607  1.00  0.00    -0.150 A  
ENDBRANCH   1   2
BRANCH   1   8
HETATM    8  C   UNL     1      -8.927  11.316  68.267  1.00  0.00    -0.172 C  
HETATM    9  N   UNL     1      -9.605  10.301  68.916  1.00  0.00    -0.180 N  
HETATM   10  H   UNL     1     -10.478   9.981  68.497  1.00  0.00     0.000 HD 
HETATM   11  O   UNL     1      -7.864  11.758  68.702  1.00  0.00    -0.135 OA 
BRANCH   9  12
HETATM   12  CA  UNL     1      -9.164   9.623  70.193  1.00  0.00    -0.246 C  
HETATM   13  N   UNL     1      -8.785   7.528  70.480  1.00  0.00    -0.145 N  
HETATM   14  CA  UNL     1      -8.898   6.312  69.622  1.00  0.00    -0.136 C  
HETATM   15  C   UNL     1      -9.401   5.124  70.469  1.00  0.00    -0.158 C  
HETATM   16  O   UNL     1      -6.846   8.559  69.693  1.00  0.00    -0.042 OA 
HETATM   17  C   UNL     1      -9.825   6.690  68.445  1.00  0.00    -0.138 C  
HETATM   18  OXT UNL     1      -9.832   4.072  70.020  1.00  0.00    -0.210 OA 
HETATM   19  O   UNL     1      -9.219   5.290  71.804  1.00  0.00    -0.137 OA 
HETATM   20  C   UNL     1      -7.985   8.584  70.098  1.00  0.00    -0.105 C  
HETATM   21  C   UNL     1     -10.528   5.560  67.690  1.00  0.00    -0.256 C  
HETATM   22  S   UNL     1     -11.115   7.766  69.226  1.00  0.00     0.224 SA 
HETATM   23  C   UNL     1      -9.070   7.482  67.361  1.00  0.00    -0.135 C  
HETATM   24  C   UNL     1     -10.003   8.364  70.569  1.00  0.00    -0.185 C  
ENDBRANCH   9  12
ENDBRANCH   1   8
BRANCH   1  25
HETATM   25  N   UNL     1     -11.063  11.974  67.014  1.00  0.00    -0.280 N  
HETATM   26  H   UNL     1     -11.638  11.140  66.898  1.00  0.00     0.000 HD 
BRANCH  25  27
HETATM   27  C   UNL     1     -11.665  13.194  67.231  1.00  0.00    -0.374 C  
HETATM   28  O   UNL     1     -11.902  13.624  68.358  1.00  0.00    -0.339 OA 
BRANCH  27  29
HETATM   29  N   UNL     1     -11.947  13.938  66.094  1.00  0.00    -0.400 N  
HETATM   30  C   UNL     1     -11.258  15.188  65.831  1.00  0.00    -0.280 C  
HETATM   31  C   UNL     1     -11.727  15.618  64.449  1.00  0.00    -0.218 C  
HETATM   32  C   UNL     1     -12.635  13.527  64.948  1.00  0.00    -0.342 C  
HETATM   33  O   UNL     1     -13.262  12.491  64.803  1.00  0.00    -0.839 OA 
HETATM   34  N   UNL     1     -12.501  14.505  63.978  1.00  0.00    -0.811 NA 
ENDBRANCH  27  29
ENDBRANCH  25  27
ENDBRANCH   1  25
TORSDOF 6
ENDMDL
MODEL       78
REMARK 921   NORMALIZED FREE ENERGY PREDICTED BY IDOCK:   -5.45 KCAL/MOL
REMARK 922        TOTAL FREE ENERGY PREDICTED BY IDOCK:   -9.45 KCAL/MOL
REMARK 923 INTER-LIGAND FREE ENERGY PREDICTED BY IDOCK:   -7.87 KCAL/MOL
REMARK 924 INTRA-LIGAND FREE ENERGY PREDICTED BY IDOCK:   -1.58 KCAL/MOL
REMARK 927      BINDING AFFINITY PREDICTED BY RF-SCORE:    0.00 PKD
ROOT
HETATM    1  CA  UNL     1      -9.203  11.685  66.240  1.00  0.00    -0.217 C  
ENDROOT
BRANCH   1   2
HETATM    2  C   UNL     1     -10.324  12.128  65.295  1.00  0.00    -0.310 A  
HETATM    3  C   UNL     1     -11.151  12.299  63.014  1.00  0.00     0.030 A  
HETATM    4  C   UNL     1     -12.436  12.549  63.488  1.00  0.00    -0.561 A  
HETATM    5  C   UNL     1     -12.659  12.660  64.856  1.00  0.00    -0.525 A  
HETATM    6  C   UNL     1     -10.100  12.095  63.909  1.00  0.00    -0.387 A  
HETATM    7  C   UNL     1     -11.609  12.464  65.754  1.00  0.00    -0.449 A  
ENDBRANCH   1   2
BRANCH   1   8
HETATM    8  C   UNL     1      -9.195  10.110  66.367  1.00  0.00    -0.158 C  
HETATM    9  N   UNL     1      -8.838   9.603  67.603  1.00  0.00    -0.125 N  
HETATM   10  H   UNL     1      -8.615  10.276  68.336  1.00  0.00     0.000 HD 
HETATM   11  O   UNL     1      -9.484   9.367  65.429  1.00  0.00    -0.261 OA 
BRANCH   9  12
HETATM   12  CA  UNL     1      -8.750   8.137  67.962  1.00  0.00    -0.128 C  
HETATM   13  N   UNL     1      -9.995   7.070  69.351  1.00  0.00    -0.160 N  
HETATM   14  CA  UNL     1     -11.108   7.448  70.269  1.00  0.00    -0.258 C  
HETATM   15  C   UNL     1     -10.996   6.640  71.580  1.00  0.00    -0.241 C  
HETATM   16  O   UNL     1     -11.011   7.073  67.251  1.00  0.00    -0.325 OA 
HETATM   17  C   UNL     1     -11.020   8.978  70.459  1.00  0.00    -0.252 C  
HETATM   18  OXT UNL     1     -11.594   6.892  72.616  1.00  0.00    -0.235 OA 
HETATM   19  O   UNL     1     -10.244   5.516  71.465  1.00  0.00    -0.197 OA 
HETATM   20  C   UNL     1     -10.090   7.313  67.996  1.00  0.00    -0.172 C  
HETATM   21  C   UNL     1     -11.677   9.590  71.699  1.00  0.00    -0.460 C  
HETATM   22  S   UNL     1      -9.199   9.312  70.534  1.00  0.00    -0.264 SA 
HETATM   23  C   UNL     1     -11.641   9.733  69.269  1.00  0.00     0.113 C  
HETATM   24  C   UNL     1      -8.749   7.856  69.496  1.00  0.00    -0.134 C  
ENDBRANCH   9  12
ENDBRANCH   1   8
BRANCH   1  25
HETATM   25  N   UNL     1      -9.264  12.396  67.520  1.00  0.00    -0.177 N  
HETATM   26  H   UNL     1      -9.661  11.934  68.338  1.00  0.00     0.000 HD 
BRANCH  25  27
HETATM   27  C   UNL     1      -8.788  13.685  67.628  1.00  0.00    -0.194 C  
HETATM   28  O   UNL     1      -7.651  14.002  67.285  1.00  0.00    -0.171 OA 
BRANCH  27  29
HETATM   29  N   UNL     1      -9.693  14.623  68.104  1.00  0.00    -0.214 N  
HETATM   30  C   UNL     1      -9.688  15.985  67.601  1.00  0.00    -0.224 C  
HETATM   31  C   UNL     1     -10.894  16.652  68.246  1.00  0.00    -0.356 C  
HETATM   32  C   UNL     1     -10.860  14.395  68.839  1.00  0.00    -0.256 C  
HETATM   33  O   UNL     1     -11.211  13.343  69.346  1.00  0.00    -0.244 OA 
HETATM   34  N   UNL     1     -11.571  15.579  68.918  1.00  0.00    -0.354 NA 
ENDBRANCH  27  29
ENDBRANCH  25  27
ENDBRANCH   1  25
TORSDOF 6
ENDMDL
MODEL       79
REMARK 921   NORMALIZED FREE ENERGY PREDICTED BY IDOCK:   -5.43 KCAL/MOL
REMARK 922        TOTAL FREE ENERGY PREDICTED BY IDOCK:   -9.43 KCAL/MOL
REMARK 923 INTER-LIGAND FREE ENERGY PREDICTED BY IDOCK:   -8.34 KCAL/MOL
REMARK 924 INTRA-LIGAND FREE ENERGY PREDICTED BY IDOCK:   -1.09 KCAL/MOL
REMARK 927      BINDING AFFINITY PREDICTED BY RF-SCORE:    0.00 PKD
ROOT
HETATM    1  CA  UNL     1     -10.958  10.912  68.401  1.00  0.00    -0.237 C  
ENDROOT
BRANCH   1   2
HETATM    2  C   UNL     1     -11.809  11.548  69.504  1.00  0.00    -0.419 A  
HETATM    3  C   UNL     1     -13.033  11.262  71.587  1.00  0.00    -0.537 A  
HETATM    4  C   UNL     1     -13.059  12.642  71.773  1.00  0.00    -0.461 A  
HETATM    5  C   UNL     1     -12.527  13.481  70.799  1.00  0.00    -0.428 A  
HETATM    6  C   UNL     1     -12.418  10.717  70.459  1.00  0.00    -0.447 A  
HETATM    7  C   UNL     1     -11.918  12.939  69.666  1.00  0.00    -0.358 A  
ENDBRANCH   1   2
BRANCH   1   8
HETATM    8  C   UNL     1      -9.748  10.122  69.040  1.00  0.00    -0.206 C  
HETATM    9  N   UNL     1      -9.934   8.762  69.211  1.00  0.00    -0.188 N  
HETATM   10  H   UNL     1     -10.827   8.373  68.909  1.00  0.00     0.000 HD 
HETATM   11  O   UNL     1      -8.698  10.672  69.373  1.00  0.00    -0.128 OA 
BRANCH   9  12
HETATM   12  CA  UNL     1      -8.929   7.803  69.808  1.00  0.00    -0.146 C  
HETATM   13  N   UNL     1      -8.172   6.003  68.911  1.00  0.00    -0.103 N  
HETATM   14  CA  UNL     1      -8.442   5.267  67.642  1.00  0.00    -0.105 C  
HETATM   15  C   UNL     1      -8.391   3.746  67.902  1.00  0.00    -0.092 C  
HETATM   16  O   UNL     1      -6.876   7.813  68.215  1.00  0.00    -0.063 OA 
HETATM   17  C   UNL     1      -9.804   5.776  67.120  1.00  0.00    -0.146 C  
HETATM   18  OXT UNL     1      -8.810   2.887  67.141  1.00  0.00    -0.121 OA 
HETATM   19  O   UNL     1      -7.719   3.409  69.032  1.00  0.00    -0.052 OA 
HETATM   20  C   UNL     1      -7.751   7.316  68.885  1.00  0.00    -0.116 C  
HETATM   21  C   UNL     1     -10.581   4.888  66.145  1.00  0.00    -0.322 C  
HETATM   22  S   UNL     1     -10.817   5.984  68.658  1.00  0.00    -0.280 SA 
HETATM   23  C   UNL     1      -9.666   7.129  66.399  1.00  0.00    -0.139 C  
HETATM   24  C   UNL     1      -9.361   6.306  69.741  1.00  0.00    -0.145 C  
ENDBRANCH   9  12
ENDBRANCH   1   8
BRANCH   1  25
HETATM   25  N   UNL     1     -10.571  11.895  67.384  1.00  0.00    -0.219 N  
HETATM   26  H   UNL     1      -9.836  12.572  67.588  1.00  0.00     0.000 HD 
BRANCH  25  27
HETATM   27  C   UNL     1     -11.193  11.911  66.155  1.00  0.00    -0.333 C  
HETATM   28  O   UNL     1     -12.365  12.253  66.010  1.00  0.00    -0.609 OA 
BRANCH  27  29
HETATM   29  N   UNL     1     -10.397  11.562  65.073  1.00  0.00    -0.267 N  
HETATM   30  C   UNL     1      -9.433  10.481  65.173  1.00  0.00    -0.233 C  
HETATM   31  C   UNL     1      -8.875  10.314  63.767  1.00  0.00    -0.221 C  
HETATM   32  C   UNL     1     -10.566  11.922  63.732  1.00  0.00    -0.422 C  
HETATM   33  O   UNL     1     -11.346  12.748  63.289  1.00  0.00    -0.446 OA 
HETATM   34  N   UNL     1      -9.682  11.187  62.963  1.00  0.00    -0.350 NA 
ENDBRANCH  27  29
ENDBRANCH  25  27
ENDBRANCH   1  25
TORSDOF 6
ENDMDL
MODEL       80
REMARK 921   NORMALIZED FREE ENERGY PREDICTED BY IDOCK:   -5.42 KCAL/MOL
REMARK 922        TOTAL FREE ENERGY PREDICTED BY IDOCK:   -9.42 KCAL/MOL
REMARK 923 INTER-LIGAND FREE ENERGY PREDICTED BY IDOCK:   -8.13 KCAL/MOL
REMARK 924 INTRA-LIGAND FREE ENERGY PREDICTED BY IDOCK:   -1.29 KCAL/MOL
REMARK 927      BINDING AFFINITY PREDICTED BY RF-SCORE:    0.00 PKD
ROOT
HETATM    1  CA  UNL     1     -11.624  10.025  70.081  1.00  0.00    -0.252 C  
ENDROOT
BRANCH   1   2
HETATM    2  C   UNL     1     -11.262   8.798  70.922  1.00  0.00    -0.320 A  
HETATM    3  C   UNL     1     -10.066   7.889  72.835  1.00  0.00    -0.376 A  
HETATM    4  C   UNL     1     -10.813   6.716  72.759  1.00  0.00    -0.283 A  
HETATM    5  C   UNL     1     -11.734   6.549  71.729  1.00  0.00    -0.373 A  
HETATM    6  C   UNL     1     -10.283   8.921  71.921  1.00  0.00    -0.403 A  
HETATM    7  C   UNL     1     -11.948   7.577  70.808  1.00  0.00    -0.224 A  
ENDBRANCH   1   2
BRANCH   1   8
HETATM    8  C   UNL     1     -10.666  10.122  68.827  1.00  0.00    -0.220 C  
HETATM    9  N   UNL     1      -9.560   9.293  68.845  1.00  0.00    -0.153 N  
HETATM   10  H   UNL     1      -9.448   8.682  69.654  1.00  0.00     0.000 HD 
HETATM   11  O   UNL     1     -10.879  10.887  67.887  1.00  0.00    -0.207 OA 
BRANCH   9  12
HETATM   12  CA  UNL     1      -8.501   9.213  67.769  1.00  0.00    -0.117 C  
HETATM   13  N   UNL     1      -8.232   7.637  66.334  1.00  0.00    -0.119 N  
HETATM   14  CA  UNL     1      -8.895   6.325  66.078  1.00  0.00    -0.151 C  
HETATM   15  C   UNL     1      -7.838   5.285  65.647  1.00  0.00    -0.100 C  
HETATM   16  O   UNL     1      -9.766   9.182  65.499  1.00  0.00    -0.247 OA 
HETATM   17  C   UNL     1      -9.655   5.957  67.372  1.00  0.00    -0.113 C  
HETATM   18  OXT UNL     1      -8.015   4.076  65.610  1.00  0.00    -0.092 OA 
HETATM   19  O   UNL     1      -6.688   5.836  65.184  1.00  0.00    -0.042 OA 
HETATM   20  C   UNL     1      -8.963   8.806  66.320  1.00  0.00    -0.173 C  
HETATM   21  C   UNL     1     -10.005   4.486  67.609  1.00  0.00    -0.138 C  
HETATM   22  S   UNL     1      -8.521   6.516  68.726  1.00  0.00    -0.121 SA 
HETATM   23  C   UNL     1     -10.998   6.705  67.473  1.00  0.00    -0.416 C  
HETATM   24  C   UNL     1      -7.747   7.850  67.717  1.00  0.00    -0.121 C  
ENDBRANCH   9  12
ENDBRANCH   1   8
BRANCH   1  25
HETATM   25  N   UNL     1     -11.679  11.242  70.897  1.00  0.00    -0.315 N  
HETATM   26  H   UNL     1     -10.835  11.797  71.036  1.00  0.00     0.000 HD 
BRANCH  25  27
HETATM   27  C   UNL     1     -12.863  11.641  71.477  1.00  0.00    -0.364 C  
HETATM   28  O   UNL     1     -13.646  10.849  71.998  1.00  0.00    -0.279 OA 
BRANCH  27  29
HETATM   29  N   UNL     1     -13.100  13.009  71.484  1.00  0.00    -0.355 N  
HETATM   30  C   UNL     1     -13.868  13.628  72.549  1.00  0.00    -0.515 C  
HETATM   31  C   UNL     1     -13.784  15.123  72.283  1.00  0.00    -0.491 C  
HETATM   32  C   UNL     1     -12.455  13.995  70.731  1.00  0.00    -0.372 C  
HETATM   33  O   UNL     1     -11.681  13.820  69.805  1.00  0.00    -0.282 OA 
HETATM   34  N   UNL     1     -12.846  15.236  71.202  1.00  0.00    -0.391 NA 
ENDBRANCH  27  29
ENDBRANCH  25  27
ENDBRANCH   1  25
TORSDOF 6
ENDMDL
MODEL       81
REMARK 921   NORMALIZED FREE ENERGY PREDICTED BY IDOCK:   -5.41 KCAL/MOL
REMARK 922        TOTAL FREE ENERGY PREDICTED BY IDOCK:   -9.40 KCAL/MOL
REMARK 923 INTER-LIGAND FREE ENERGY PREDICTED BY IDOCK:   -8.26 KCAL/MOL
REMARK 924 INTRA-LIGAND FREE ENERGY PREDICTED BY IDOCK:   -1.14 KCAL/MOL
REMARK 927      BINDING AFFINITY PREDICTED BY RF-SCORE:    0.00 PKD
ROOT
HETATM    1  CA  UNL     1     -11.259  10.588  68.911  1.00  0.00    -0.266 C  
ENDROOT
BRANCH   1   2
HETATM    2  C   UNL     1     -12.017  11.580  69.797  1.00  0.00    -0.415 A  
HETATM    3  C   UNL     1     -13.237  11.986  71.862  1.00  0.00    -0.469 A  
HETATM    4  C   UNL     1     -13.104  13.360  71.683  1.00  0.00    -0.463 A  
HETATM    5  C   UNL     1     -12.494  13.852  70.533  1.00  0.00    -0.422 A  
HETATM    6  C   UNL     1     -12.703  11.101  70.925  1.00  0.00    -0.438 A  
HETATM    7  C   UNL     1     -11.965  12.969  69.590  1.00  0.00    -0.367 A  
ENDBRANCH   1   2
BRANCH   1   8
HETATM    8  C   UNL     1      -9.859  10.244  69.561  1.00  0.00    -0.220 C  
HETATM    9  N   UNL     1      -9.863   9.244  70.515  1.00  0.00    -0.234 N  
HETATM   10  H   UNL     1     -10.758   8.801  70.722  1.00  0.00     0.000 HD 
HETATM   11  O   UNL     1      -8.821  10.827  69.247  1.00  0.00    -0.128 OA 
BRANCH   9  12
HETATM   12  CA  UNL     1      -8.656   8.749  71.278  1.00  0.00    -0.203 C  
HETATM   13  N   UNL     1      -8.393   6.809  72.164  1.00  0.00    -0.107 N  
HETATM   14  CA  UNL     1      -9.247   5.593  72.304  1.00  0.00    -0.145 C  
HETATM   15  C   UNL     1      -9.005   4.946  73.685  1.00  0.00    -0.107 C  
HETATM   16  O   UNL     1      -7.718   6.732  69.933  1.00  0.00    -0.104 OA 
HETATM   17  C   UNL     1     -10.703   6.049  72.064  1.00  0.00    -0.235 C  
HETATM   18  OXT UNL     1      -9.720   4.098  74.199  1.00  0.00    -0.109 OA 
HETATM   19  O   UNL     1      -7.834   5.315  74.263  1.00  0.00    -0.096 OA 
HETATM   20  C   UNL     1      -8.101   7.320  70.917  1.00  0.00    -0.106 C  
HETATM   21  C   UNL     1     -11.833   5.178  72.619  1.00  0.00    -0.056 C  
HETATM   22  S   UNL     1     -10.787   7.710  72.881  1.00  0.00    -0.402 SA 
HETATM   23  C   UNL     1     -11.013   6.190  70.562  1.00  0.00    -0.384 C  
HETATM   24  C   UNL     1      -8.996   8.074  72.642  1.00  0.00    -0.218 C  
ENDBRANCH   9  12
ENDBRANCH   1   8
BRANCH   1  25
HETATM   25  N   UNL     1     -11.185  11.051  67.522  1.00  0.00    -0.309 N  
HETATM   26  H   UNL     1     -11.449  12.009  67.293  1.00  0.00     0.000 HD 
BRANCH  25  27
HETATM   27  C   UNL     1     -10.760  10.203  66.524  1.00  0.00    -0.048 C  
HETATM   28  O   UNL     1     -10.684   8.985  66.677  1.00  0.00    -0.159 OA 
BRANCH  27  29
HETATM   29  N   UNL     1     -10.467  10.803  65.307  1.00  0.00    -0.248 N  
HETATM   30  C   UNL     1      -9.535  10.189  64.378  1.00  0.00    -0.308 C  
HETATM   31  C   UNL     1      -9.593  11.054  63.128  1.00  0.00    -0.361 C  
HETATM   32  C   UNL     1     -11.168  11.829  64.666  1.00  0.00    -0.286 C  
HETATM   33  O   UNL     1     -12.068  12.505  65.134  1.00  0.00    -0.417 OA 
HETATM   34  N   UNL     1     -10.664  11.974  63.385  1.00  0.00    -0.429 NA 
ENDBRANCH  27  29
ENDBRANCH  25  27
ENDBRANCH   1  25
TORSDOF 6
ENDMDL
MODEL       82
REMARK 921   NORMALIZED FREE ENERGY PREDICTED BY IDOCK:   -5.36 KCAL/MOL
REMARK 922        TOTAL FREE ENERGY PREDICTED BY IDOCK:   -9.33 KCAL/MOL
REMARK 923 INTER-LIGAND FREE ENERGY PREDICTED BY IDOCK:   -7.71 KCAL/MOL
REMARK 924 INTRA-LIGAND FREE ENERGY PREDICTED BY IDOCK:   -1.62 KCAL/MOL
REMARK 927      BINDING AFFINITY PREDICTED BY RF-SCORE:    0.00 PKD
ROOT
HETATM    1  CA  UNL     1     -11.009   9.687  69.533  1.00  0.00    -0.208 C  
ENDROOT
BRANCH   1   2
HETATM    2  C   UNL     1     -11.035   8.651  70.661  1.00  0.00    -0.274 A  
HETATM    3  C   UNL     1     -10.243   7.976  72.860  1.00  0.00    -0.384 A  
HETATM    4  C   UNL     1     -11.264   7.033  72.949  1.00  0.00    -0.273 A  
HETATM    5  C   UNL     1     -12.128   6.844  71.874  1.00  0.00    -0.370 A  
HETATM    6  C   UNL     1     -10.125   8.776  71.723  1.00  0.00    -0.403 A  
HETATM    7  C   UNL     1     -12.006   7.638  70.732  1.00  0.00    -0.192 A  
ENDBRANCH   1   2
BRANCH   1   8
HETATM    8  C   UNL     1      -9.930   9.280  68.452  1.00  0.00    -0.176 C  
HETATM    9  N   UNL     1      -9.043   8.287  68.824  1.00  0.00    -0.144 N  
HETATM   10  H   UNL     1      -9.153   7.890  69.757  1.00  0.00     0.000 HD 
HETATM   11  O   UNL     1      -9.871   9.810  67.342  1.00  0.00    -0.160 OA 
BRANCH   9  12
HETATM   12  CA  UNL     1      -7.924   7.739  67.969  1.00  0.00    -0.122 C  
HETATM   13  N   UNL     1      -7.532   5.675  67.520  1.00  0.00    -0.080 N  
HETATM   14  CA  UNL     1      -8.144   4.377  67.928  1.00  0.00    -0.094 C  
HETATM   15  C   UNL     1      -7.037   3.316  68.109  1.00  0.00    -0.050 C  
HETATM   16  O   UNL     1      -9.058   6.522  65.973  1.00  0.00    -0.151 OA 
HETATM   17  C   UNL     1      -8.965   4.660  69.205  1.00  0.00    -0.097 C  
HETATM   18  OXT UNL     1      -7.178   2.240  68.672  1.00  0.00    -0.043 OA 
HETATM   19  O   UNL     1      -5.878   3.623  67.474  1.00  0.00    -0.022 OA 
HETATM   20  C   UNL     1      -8.292   6.644  66.900  1.00  0.00    -0.114 C  
HETATM   21  C   UNL     1      -9.288   3.485  70.131  1.00  0.00    -0.244 C  
HETATM   22  S   UNL     1      -7.924   5.875  70.140  1.00  0.00    -0.103 SA 
HETATM   23  C   UNL     1     -10.331   5.289  68.873  1.00  0.00    -0.228 C  
HETATM   24  C   UNL     1      -7.131   6.570  68.629  1.00  0.00    -0.083 C  
ENDBRANCH   9  12
ENDBRANCH   1   8
BRANCH   1  25
HETATM   25  N   UNL     1     -10.861  11.049  70.055  1.00  0.00    -0.463 N  
HETATM   26  H   UNL     1     -10.095  11.267  70.693  1.00  0.00     0.000 HD 
BRANCH  25  27
HETATM   27  C   UNL     1     -11.748  12.038  69.689  1.00  0.00    -0.335 C  
HETATM   28  O   UNL     1     -12.018  12.284  68.516  1.00  0.00    -0.317 OA 
BRANCH  27  29
HETATM   29  N   UNL     1     -12.362  12.713  70.735  1.00  0.00    -0.353 N  
HETATM   30  C   UNL     1     -12.516  14.156  70.702  1.00  0.00    -0.362 C  
HETATM   31  C   UNL     1     -13.349  14.495  71.930  1.00  0.00    -0.365 C  
HETATM   32  C   UNL     1     -13.149  12.176  71.758  1.00  0.00    -0.352 C  
HETATM   33  O   UNL     1     -13.303  10.995  72.021  1.00  0.00    -0.455 OA 
HETATM   34  N   UNL     1     -13.736  13.217  72.456  1.00  0.00    -0.695 NA 
ENDBRANCH  27  29
ENDBRANCH  25  27
ENDBRANCH   1  25
TORSDOF 6
ENDMDL
MODEL       83
REMARK 921   NORMALIZED FREE ENERGY PREDICTED BY IDOCK:   -5.36 KCAL/MOL
REMARK 922        TOTAL FREE ENERGY PREDICTED BY IDOCK:   -9.33 KCAL/MOL
REMARK 923 INTER-LIGAND FREE ENERGY PREDICTED BY IDOCK:   -7.85 KCAL/MOL
REMARK 924 INTRA-LIGAND FREE ENERGY PREDICTED BY IDOCK:   -1.48 KCAL/MOL
REMARK 927      BINDING AFFINITY PREDICTED BY RF-SCORE:    0.00 PKD
ROOT
HETATM    1  CA  UNL     1      -9.727  10.846  66.789  1.00  0.00    -0.190 C  
ENDROOT
BRANCH   1   2
HETATM    2  C   UNL     1      -9.431  10.213  65.425  1.00  0.00    -0.296 A  
HETATM    3  C   UNL     1      -9.268  10.492  63.014  1.00  0.00    -0.313 A  
HETATM    4  C   UNL     1      -8.568   9.292  62.913  1.00  0.00    -0.220 A  
HETATM    5  C   UNL     1      -8.358   8.516  64.048  1.00  0.00    -0.099 A  
HETATM    6  C   UNL     1      -9.702  10.948  64.260  1.00  0.00    -0.347 A  
HETATM    7  C   UNL     1      -8.798   8.966  65.295  1.00  0.00    -0.227 A  
ENDBRANCH   1   2
BRANCH   1   8
HETATM    8  C   UNL     1      -8.597  10.453  67.822  1.00  0.00    -0.122 C  
HETATM    9  N   UNL     1      -8.986   9.626  68.859  1.00  0.00    -0.139 N  
HETATM   10  H   UNL     1      -9.961   9.328  68.877  1.00  0.00     0.000 HD 
HETATM   11  O   UNL     1      -7.438  10.854  67.722  1.00  0.00    -0.091 OA 
BRANCH   9  12
HETATM   12  CA  UNL     1      -8.091   9.124  69.970  1.00  0.00    -0.128 C  
HETATM   13  N   UNL     1      -8.462   7.458  71.275  1.00  0.00    -0.113 N  
HETATM   14  CA  UNL     1      -9.589   6.499  71.460  1.00  0.00    -0.161 C  
HETATM   15  C   UNL     1      -9.765   6.188  72.962  1.00  0.00    -0.158 C  
HETATM   16  O   UNL     1      -7.425   6.695  69.330  1.00  0.00    -0.090 OA 
HETATM   17  C   UNL     1     -10.827   7.142  70.796  1.00  0.00    -0.244 C  
HETATM   18  OXT UNL     1     -10.742   5.647  73.459  1.00  0.00    -0.250 OA 
HETATM   19  O   UNL     1      -8.667   6.467  73.709  1.00  0.00    -0.122 OA 
HETATM   20  C   UNL     1      -7.832   7.574  70.053  1.00  0.00    -0.099 C  
HETATM   21  C   UNL     1     -12.212   6.665  71.239  1.00  0.00    -0.369 C  
HETATM   22  S   UNL     1     -10.665   8.941  71.208  1.00  0.00    -0.316 SA 
HETATM   23  C   UNL     1     -10.813   6.953  69.268  1.00  0.00    -0.270 C  
HETATM   24  C   UNL     1      -8.826   8.892  71.325  1.00  0.00    -0.231 C  
ENDBRANCH   9  12
ENDBRANCH   1   8
BRANCH   1  25
HETATM   25  N   UNL     1     -11.090  10.549  67.238  1.00  0.00    -0.268 N  
HETATM   26  H   UNL     1     -11.503   9.638  67.035  1.00  0.00     0.000 HD 
BRANCH  25  27
HETATM   27  C   UNL     1     -11.818  11.490  67.932  1.00  0.00    -0.184 C  
HETATM   28  O   UNL     1     -12.369  11.243  69.003  1.00  0.00    -0.446 OA 
BRANCH  27  29
HETATM   29  N   UNL     1     -11.852  12.759  67.372  1.00  0.00    -0.364 N  
HETATM   30  C   UNL     1     -11.185  13.877  68.015  1.00  0.00    -0.271 C  
HETATM   31  C   UNL     1     -11.324  15.038  67.041  1.00  0.00    -0.318 C  
HETATM   32  C   UNL     1     -12.216  13.113  66.069  1.00  0.00    -0.414 C  
HETATM   33  O   UNL     1     -12.735  12.392  65.233  1.00  0.00    -0.617 OA 
HETATM   34  N   UNL     1     -11.901  14.445  65.868  1.00  0.00    -0.374 NA 
ENDBRANCH  27  29
ENDBRANCH  25  27
ENDBRANCH   1  25
TORSDOF 6
ENDMDL
MODEL       84
REMARK 921   NORMALIZED FREE ENERGY PREDICTED BY IDOCK:   -5.35 KCAL/MOL
REMARK 922        TOTAL FREE ENERGY PREDICTED BY IDOCK:   -9.32 KCAL/MOL
REMARK 923 INTER-LIGAND FREE ENERGY PREDICTED BY IDOCK:   -8.28 KCAL/MOL
REMARK 924 INTRA-LIGAND FREE ENERGY PREDICTED BY IDOCK:   -1.03 KCAL/MOL
REMARK 927      BINDING AFFINITY PREDICTED BY RF-SCORE:    0.00 PKD
ROOT
HETATM    1  CA  UNL     1     -10.263  12.711  68.333  1.00  0.00    -0.232 C  
ENDROOT
BRANCH   1   2
HETATM    2  C   UNL     1     -10.674  12.987  66.883  1.00  0.00    -0.273 A  
HETATM    3  C   UNL     1     -12.293  12.650  65.100  1.00  0.00    -0.547 A  
HETATM    4  C   UNL     1     -11.733  13.702  64.379  1.00  0.00    -0.444 A  
HETATM    5  C   UNL     1     -10.605  14.352  64.868  1.00  0.00    -0.456 A  
HETATM    6  C   UNL     1     -11.765  12.290  66.340  1.00  0.00    -0.431 A  
HETATM    7  C   UNL     1     -10.070  13.989  66.106  1.00  0.00    -0.319 A  
ENDBRANCH   1   2
BRANCH   1   8
HETATM    8  C   UNL     1      -9.325  11.440  68.395  1.00  0.00    -0.194 C  
HETATM    9  N   UNL     1      -9.965  10.214  68.395  1.00  0.00    -0.152 N  
HETATM   10  H   UNL     1     -10.984  10.220  68.348  1.00  0.00     0.000 HD 
HETATM   11  O   UNL     1      -8.098  11.523  68.444  1.00  0.00    -0.136 OA 
BRANCH   9  12
HETATM   12  CA  UNL     1      -9.285   8.865  68.458  1.00  0.00    -0.137 C  
HETATM   13  N   UNL     1      -9.856   7.186  69.671  1.00  0.00    -0.162 N  
HETATM   14  CA  UNL     1     -10.910   6.942  70.698  1.00  0.00    -0.245 C  
HETATM   15  C   UNL     1     -10.343   6.045  71.820  1.00  0.00    -0.215 C  
HETATM   16  O   UNL     1     -11.043   7.124  67.664  1.00  0.00    -0.175 OA 
HETATM   17  C   UNL     1     -11.386   8.331  71.177  1.00  0.00    -0.263 C  
HETATM   18  OXT UNL     1     -10.862   5.872  72.913  1.00  0.00    -0.229 OA 
HETATM   19  O   UNL     1      -9.241   5.343  71.452  1.00  0.00    -0.143 OA 
HETATM   20  C   UNL     1     -10.199   7.585  68.396  1.00  0.00    -0.185 C  
HETATM   21  C   UNL     1     -12.070   8.427  72.543  1.00  0.00    -0.403 C  
HETATM   22  S   UNL     1      -9.832   9.339  71.227  1.00  0.00    -0.182 SA 
HETATM   23  C   UNL     1     -12.385   8.960  70.189  1.00  0.00     0.681 C  
HETATM   24  C   UNL     1      -8.993   8.366  69.906  1.00  0.00    -0.142 C  
ENDBRANCH   9  12
ENDBRANCH   1   8
BRANCH   1  25
HETATM   25  N   UNL     1     -11.427  12.650  69.222  1.00  0.00    -0.317 N  
HETATM   26  H   UNL     1     -11.743  11.749  69.581  1.00  0.00     0.000 HD 
BRANCH  25  27
HETATM   27  C   UNL     1     -12.096  13.800  69.576  1.00  0.00    -0.334 C  
HETATM   28  O   UNL     1     -12.384  14.677  68.763  1.00  0.00    -0.165 OA 
BRANCH  27  29
HETATM   29  N   UNL     1     -12.474  13.891  70.908  1.00  0.00    -0.356 N  
HETATM   30  C   UNL     1     -12.649  15.183  71.547  1.00  0.00    -0.353 C  
HETATM   31  C   UNL     1     -13.196  14.871  72.933  1.00  0.00    -0.492 C  
HETATM   32  C   UNL     1     -13.012  12.886  71.719  1.00  0.00    -0.315 C  
HETATM   33  O   UNL     1     -13.090  11.698  71.456  1.00  0.00    -0.412 OA 
HETATM   34  N   UNL     1     -13.444  13.458  72.903  1.00  0.00    -0.555 NA 
ENDBRANCH  27  29
ENDBRANCH  25  27
ENDBRANCH   1  25
TORSDOF 6
ENDMDL
MODEL       85
REMARK 921   NORMALIZED FREE ENERGY PREDICTED BY IDOCK:   -5.32 KCAL/MOL
REMARK 922        TOTAL FREE ENERGY PREDICTED BY IDOCK:   -9.27 KCAL/MOL
REMARK 923 INTER-LIGAND FREE ENERGY PREDICTED BY IDOCK:   -7.66 KCAL/MOL
REMARK 924 INTRA-LIGAND FREE ENERGY PREDICTED BY IDOCK:   -1.61 KCAL/MOL
REMARK 927      BINDING AFFINITY PREDICTED BY RF-SCORE:    0.00 PKD
ROOT
HETATM    1  CA  UNL     1      -9.655   9.169  70.778  1.00  0.00    -0.275 C  
ENDROOT
BRANCH   1   2
HETATM    2  C   UNL     1     -11.063   9.274  71.370  1.00  0.00    -0.437 A  
HETATM    3  C   UNL     1     -13.214  10.410  71.388  1.00  0.00    -0.459 A  
HETATM    4  C   UNL     1     -13.779   9.352  72.096  1.00  0.00    -0.490 A  
HETATM    5  C   UNL     1     -12.979   8.289  72.505  1.00  0.00    -0.156 A  
HETATM    6  C   UNL     1     -11.865  10.375  71.032  1.00  0.00    -0.458 A  
HETATM    7  C   UNL     1     -11.628   8.255  72.156  1.00  0.00    -0.428 A  
ENDBRANCH   1   2
BRANCH   1   8
HETATM    8  C   UNL     1      -9.743   8.877  69.227  1.00  0.00    -0.165 C  
HETATM    9  N   UNL     1      -9.339   9.903  68.393  1.00  0.00    -0.132 N  
HETATM   10  H   UNL     1      -9.011  10.761  68.835  1.00  0.00     0.000 HD 
HETATM   11  O   UNL     1     -10.148   7.806  68.775  1.00  0.00    -0.185 OA 
BRANCH   9  12
HETATM   12  CA  UNL     1      -9.341   9.863  66.881  1.00  0.00    -0.152 C  
HETATM   13  N   UNL     1      -9.555  11.532  65.545  1.00  0.00    -0.226 N  
HETATM   14  CA  UNL     1      -9.793  12.994  65.720  1.00  0.00    -0.209 C  
HETATM   15  C   UNL     1     -10.731  13.505  64.605  1.00  0.00    -0.416 C  
HETATM   16  O   UNL     1      -7.306  11.284  66.110  1.00  0.00    -0.070 OA 
HETATM   17  C   UNL     1     -10.346  13.182  67.150  1.00  0.00    -0.247 C  
HETATM   18  OXT UNL     1     -11.310  14.581  64.611  1.00  0.00    -0.382 OA 
HETATM   19  O   UNL     1     -10.782  12.691  63.520  1.00  0.00    -0.417 OA 
HETATM   20  C   UNL     1      -8.460  10.925  66.123  1.00  0.00    -0.171 C  
HETATM   21  C   UNL     1     -11.142  14.453  67.454  1.00  0.00    -0.317 C  
HETATM   22  S   UNL     1     -11.459  11.720  67.389  1.00  0.00    -0.280 SA 
HETATM   23  C   UNL     1      -9.220  13.158  68.201  1.00  0.00    -0.215 C  
HETATM   24  C   UNL     1     -10.522  10.640  66.225  1.00  0.00    -0.203 C  
ENDBRANCH   9  12
ENDBRANCH   1   8
BRANCH   1  25
HETATM   25  N   UNL     1      -8.823   8.223  71.527  1.00  0.00    -0.152 N  
HETATM   26  H   UNL     1      -9.181   7.292  71.739  1.00  0.00     0.000 HD 
BRANCH  25  27
HETATM   27  C   UNL     1      -7.561   8.582  71.945  1.00  0.00    -0.103 C  
HETATM   28  O   UNL     1      -7.261   8.684  73.133  1.00  0.00    -0.316 OA 
BRANCH  27  29
HETATM   29  N   UNL     1      -6.624   8.775  70.940  1.00  0.00    -0.048 N  
HETATM   30  C   UNL     1      -6.286   7.704  70.019  1.00  0.00    -0.034 C  
HETATM   31  C   UNL     1      -5.354   8.337  68.997  1.00  0.00    -0.027 C  
HETATM   32  C   UNL     1      -6.114   9.987  70.463  1.00  0.00    -0.100 C  
HETATM   33  O   UNL     1      -6.269  11.091  70.957  1.00  0.00    -0.356 OA 
HETATM   34  N   UNL     1      -5.376   9.735  69.320  1.00  0.00    -0.036 NA 
ENDBRANCH  27  29
ENDBRANCH  25  27
ENDBRANCH   1  25
TORSDOF 6
ENDMDL
MODEL       86
REMARK 921   NORMALIZED FREE ENERGY PREDICTED BY IDOCK:   -5.31 KCAL/MOL
REMARK 922        TOTAL FREE ENERGY PREDICTED BY IDOCK:   -9.27 KCAL/MOL
REMARK 923 INTER-LIGAND FREE ENERGY PREDICTED BY IDOCK:   -8.00 KCAL/MOL
REMARK 924 INTRA-LIGAND FREE ENERGY PREDICTED BY IDOCK:   -1.26 KCAL/MOL
REMARK 927      BINDING AFFINITY PREDICTED BY RF-SCORE:    0.00 PKD
ROOT
HETATM    1  CA  UNL     1     -10.657  15.130  69.712  1.00  0.00    -0.252 C  
ENDROOT
BRANCH   1   2
HETATM    2  C   UNL     1     -11.925  14.696  70.455  1.00  0.00    -0.376 A  
HETATM    3  C   UNL     1     -13.124  12.941  71.637  1.00  0.00    -0.430 A  
HETATM    4  C   UNL     1     -14.018  13.880  72.145  1.00  0.00    -0.639 A  
HETATM    5  C   UNL     1     -13.916  15.212  71.759  1.00  0.00    -0.627 A  
HETATM    6  C   UNL     1     -12.088  13.344  70.794  1.00  0.00    -0.333 A  
HETATM    7  C   UNL     1     -12.884  15.617  70.909  1.00  0.00    -0.498 A  
ENDBRANCH   1   2
BRANCH   1   8
HETATM    8  C   UNL     1     -10.952  16.423  68.852  1.00  0.00    -0.332 C  
HETATM    9  N   UNL     1      -9.981  17.407  68.885  1.00  0.00    -0.316 N  
HETATM   10  H   UNL     1      -9.152  17.225  69.451  1.00  0.00     0.000 HD 
HETATM   11  O   UNL     1     -11.981  16.559  68.191  1.00  0.00     0.209 OA 
BRANCH   9  12
HETATM   12  CA  UNL     1     -10.042  18.729  68.156  1.00  0.00    -0.379 C  
HETATM   13  N   UNL     1      -8.646  19.465  66.697  1.00  0.00    -0.313 N  
HETATM   14  CA  UNL     1      -7.365  18.963  66.122  1.00  0.00    -0.266 C  
HETATM   15  C   UNL     1      -6.396  20.145  65.901  1.00  0.00    -0.211 C  
HETATM   16  O   UNL     1     -10.258  18.161  65.629  1.00  0.00    -0.578 OA 
HETATM   17  C   UNL     1      -6.838  17.886  67.096  1.00  0.00    -0.178 C  
HETATM   18  OXT UNL     1      -5.198  20.042  65.685  1.00  0.00    -0.161 OA 
HETATM   19  O   UNL     1      -7.013  21.353  65.850  1.00  0.00     0.200 OA 
HETATM   20  C   UNL     1      -9.800  18.716  66.600  1.00  0.00    -0.354 C  
HETATM   21  C   UNL     1      -5.345  17.551  67.063  1.00  0.00    -0.169 C  
HETATM   22  S   UNL     1      -7.251  18.564  68.770  1.00  0.00    -0.285 SA 
HETATM   23  C   UNL     1      -7.552  16.537  66.888  1.00  0.00    -0.272 C  
HETATM   24  C   UNL     1      -8.704  19.530  68.175  1.00  0.00    -0.324 C  
ENDBRANCH   9  12
ENDBRANCH   1   8
BRANCH   1  25
HETATM   25  N   UNL     1     -10.069  14.020  68.957  1.00  0.00    -0.418 N  
HETATM   26  H   UNL     1     -10.676  13.339  68.500  1.00  0.00     0.000 HD 
BRANCH  25  27
HETATM   27  C   UNL     1      -8.701  13.890  68.859  1.00  0.00     0.106 C  
HETATM   28  O   UNL     1      -7.923  14.489  69.598  1.00  0.00     0.046 OA 
BRANCH  27  29
HETATM   29  N   UNL     1      -8.248  12.995  67.899  1.00  0.00    -0.152 N  
HETATM   30  C   UNL     1      -6.833  12.878  67.597  1.00  0.00    -0.149 C  
HETATM   31  C   UNL     1      -6.729  11.715  66.621  1.00  0.00    -0.028 C  
HETATM   32  C   UNL     1      -8.944  11.925  67.327  1.00  0.00    -0.176 C  
HETATM   33  O   UNL     1     -10.134  11.683  67.438  1.00  0.00    -0.195 OA 
HETATM   34  N   UNL     1      -8.055  11.168  66.584  1.00  0.00    -0.154 NA 
ENDBRANCH  27  29
ENDBRANCH  25  27
ENDBRANCH   1  25
TORSDOF 6
ENDMDL
MODEL       87
REMARK 921   NORMALIZED FREE ENERGY PREDICTED BY IDOCK:   -5.30 KCAL/MOL
REMARK 922        TOTAL FREE ENERGY PREDICTED BY IDOCK:   -9.25 KCAL/MOL
REMARK 923 INTER-LIGAND FREE ENERGY PREDICTED BY IDOCK:   -8.43 KCAL/MOL
REMARK 924 INTRA-LIGAND FREE ENERGY PREDICTED BY IDOCK:   -0.81 KCAL/MOL
REMARK 927      BINDING AFFINITY PREDICTED BY RF-SCORE:    0.00 PKD
ROOT
HETATM    1  CA  UNL     1     -10.127  15.570  68.644  1.00  0.00    -0.210 C  
ENDROOT
BRANCH   1   2
HETATM    2  C   UNL     1      -9.652  17.019  68.505  1.00  0.00    -0.273 A  
HETATM    3  C   UNL     1      -7.789  18.583  68.462  1.00  0.00    -0.341 A  
HETATM    4  C   UNL     1      -8.610  19.561  67.906  1.00  0.00    -0.357 A  
HETATM    5  C   UNL     1      -9.963  19.301  67.714  1.00  0.00    -0.460 A  
HETATM    6  C   UNL     1      -8.305  17.323  68.765  1.00  0.00    -0.228 A  
HETATM    7  C   UNL     1     -10.484  18.043  68.024  1.00  0.00    -0.388 A  
ENDBRANCH   1   2
BRANCH   1   8
HETATM    8  C   UNL     1      -9.673  14.731  67.384  1.00  0.00    -0.214 C  
HETATM    9  N   UNL     1      -9.220  13.449  67.640  1.00  0.00    -0.202 N  
HETATM   10  H   UNL     1      -9.220  13.141  68.612  1.00  0.00     0.000 HD 
HETATM   11  O   UNL     1      -9.712  15.180  66.238  1.00  0.00    -0.252 OA 
BRANCH   9  12
HETATM   12  CA  UNL     1      -8.727  12.465  66.604  1.00  0.00    -0.119 C  
HETATM   13  N   UNL     1      -8.605  10.330  66.805  1.00  0.00    -0.126 N  
HETATM   14  CA  UNL     1      -8.882   9.360  67.904  1.00  0.00    -0.124 C  
HETATM   15  C   UNL     1      -7.835   8.226  67.873  1.00  0.00    -0.114 C  
HETATM   16  O   UNL     1     -10.736  10.911  66.057  1.00  0.00    -0.224 OA 
HETATM   17  C   UNL     1      -8.894  10.176  69.216  1.00  0.00    -0.183 C  
HETATM   18  OXT UNL     1      -7.635   7.427  68.775  1.00  0.00    -0.101 OA 
HETATM   19  O   UNL     1      -7.203   8.101  66.678  1.00  0.00    -0.078 OA 
HETATM   20  C   UNL     1      -9.595  11.177  66.351  1.00  0.00    -0.200 C  
HETATM   21  C   UNL     1      -8.651   9.431  70.531  1.00  0.00    -0.265 C  
HETATM   22  S   UNL     1      -7.532  11.411  68.982  1.00  0.00    -0.055 SA 
HETATM   23  C   UNL     1     -10.234  10.907  69.417  1.00  0.00    -0.151 C  
HETATM   24  C   UNL     1      -7.686  11.439  67.145  1.00  0.00    -0.152 C  
ENDBRANCH   9  12
ENDBRANCH   1   8
BRANCH   1  25
HETATM   25  N   UNL     1     -11.562  15.498  68.935  1.00  0.00    -0.354 N  
HETATM   26  H   UNL     1     -12.141  16.332  68.837  1.00  0.00     0.000 HD 
BRANCH  25  27
HETATM   27  C   UNL     1     -12.134  14.312  69.340  1.00  0.00    -0.318 C  
HETATM   28  O   UNL     1     -12.089  13.289  68.661  1.00  0.00    -0.337 OA 
BRANCH  27  29
HETATM   29  N   UNL     1     -12.728  14.327  70.594  1.00  0.00    -0.345 N  
HETATM   30  C   UNL     1     -13.307  15.546  71.131  1.00  0.00    -0.480 C  
HETATM   31  C   UNL     1     -13.974  15.130  72.433  1.00  0.00    -0.516 C  
HETATM   32  C   UNL     1     -13.130  13.233  71.367  1.00  0.00    -0.277 C  
HETATM   33  O   UNL     1     -12.878  12.058  71.159  1.00  0.00    -0.337 OA 
HETATM   34  N   UNL     1     -13.867  13.699  72.442  1.00  0.00    -0.651 NA 
ENDBRANCH  27  29
ENDBRANCH  25  27
ENDBRANCH   1  25
TORSDOF 6
ENDMDL
MODEL       88
REMARK 921   NORMALIZED FREE ENERGY PREDICTED BY IDOCK:   -5.29 KCAL/MOL
REMARK 922        TOTAL FREE ENERGY PREDICTED BY IDOCK:   -9.23 KCAL/MOL
REMARK 923 INTER-LIGAND FREE ENERGY PREDICTED BY IDOCK:   -8.36 KCAL/MOL
REMARK 924 INTRA-LIGAND FREE ENERGY PREDICTED BY IDOCK:   -0.88 KCAL/MOL
REMARK 927      BINDING AFFINITY PREDICTED BY RF-SCORE:    0.00 PKD
ROOT
HETATM    1  CA  UNL     1     -11.152  12.445  69.041  1.00  0.00    -0.235 C  
ENDROOT
BRANCH   1   2
HETATM    2  C   UNL     1     -12.008  12.587  70.303  1.00  0.00    -0.364 A  
HETATM    3  C   UNL     1     -13.434  13.997  71.680  1.00  0.00    -0.438 A  
HETATM    4  C   UNL     1     -13.891  12.877  72.371  1.00  0.00    -0.443 A  
HETATM    5  C   UNL     1     -13.360  11.623  72.084  1.00  0.00    -0.310 A  
HETATM    6  C   UNL     1     -12.496  13.855  70.657  1.00  0.00    -0.436 A  
HETATM    7  C   UNL     1     -12.415  11.480  71.066  1.00  0.00    -0.458 A  
ENDBRANCH   1   2
BRANCH   1   8
HETATM    8  C   UNL     1     -11.535  13.572  68.000  1.00  0.00    -0.307 C  
HETATM    9  N   UNL     1     -10.938  14.804  68.193  1.00  0.00    -0.260 N  
HETATM   10  H   UNL     1     -10.296  14.892  68.981  1.00  0.00     0.000 HD 
HETATM   11  O   UNL     1     -12.319  13.378  67.071  1.00  0.00    -0.311 OA 
BRANCH   9  12
HETATM   12  CA  UNL     1     -11.154  16.032  67.339  1.00  0.00    -0.167 C  
HETATM   13  N   UNL     1      -9.658  17.139  66.265  1.00  0.00    -0.265 N  
HETATM   14  CA  UNL     1      -8.175  17.047  66.135  1.00  0.00    -0.249 C  
HETATM   15  C   UNL     1      -7.570  18.466  66.072  1.00  0.00    -0.195 C  
HETATM   16  O   UNL     1     -10.421  15.384  64.931  1.00  0.00    -0.396 OA 
HETATM   17  C   UNL     1      -7.680  16.199  67.328  1.00  0.00    -0.180 C  
HETATM   18  OXT UNL     1      -6.387  18.734  66.217  1.00  0.00    -0.171 OA 
HETATM   19  O   UNL     1      -8.464  19.424  65.718  1.00  0.00    -0.419 OA 
HETATM   20  C   UNL     1     -10.459  16.069  65.927  1.00  0.00    -0.359 C  
HETATM   21  C   UNL     1      -6.218  16.340  67.756  1.00  0.00    -0.155 C  
HETATM   22  S   UNL     1      -8.758  16.744  68.734  1.00  0.00    -0.235 SA 
HETATM   23  C   UNL     1      -7.875  14.693  67.073  1.00  0.00    -0.056 C  
HETATM   24  C   UNL     1     -10.177  17.205  67.650  1.00  0.00    -0.329 C  
ENDBRANCH   9  12
ENDBRANCH   1   8
BRANCH   1  25
HETATM   25  N   UNL     1     -11.203  11.082  68.505  1.00  0.00    -0.244 N  
HETATM   26  H   UNL     1     -12.044  10.755  68.030  1.00  0.00     0.000 HD 
BRANCH  25  27
HETATM   27  C   UNL     1     -10.122  10.238  68.637  1.00  0.00    -0.174 C  
HETATM   28  O   UNL     1      -9.391  10.247  69.625  1.00  0.00    -0.205 OA 
BRANCH  27  29
HETATM   29  N   UNL     1      -9.933   9.335  67.601  1.00  0.00    -0.183 N  
HETATM   30  C   UNL     1      -9.318   9.749  66.352  1.00  0.00    -0.171 C  
HETATM   31  C   UNL     1      -9.157   8.470  65.544  1.00  0.00    -0.091 C  
HETATM   32  C   UNL     1      -9.993   7.939  67.658  1.00  0.00    -0.181 C  
HETATM   33  O   UNL     1     -10.390   7.261  68.590  1.00  0.00    -0.184 OA 
HETATM   34  N   UNL     1      -9.531   7.428  66.457  1.00  0.00    -0.184 NA 
ENDBRANCH  27  29
ENDBRANCH  25  27
ENDBRANCH   1  25
TORSDOF 6
ENDMDL
MODEL       89
REMARK 921   NORMALIZED FREE ENERGY PREDICTED BY IDOCK:   -5.23 KCAL/MOL
REMARK 922        TOTAL FREE ENERGY PREDICTED BY IDOCK:   -9.16 KCAL/MOL
REMARK 923 INTER-LIGAND FREE ENERGY PREDICTED BY IDOCK:   -7.55 KCAL/MOL
REMARK 924 INTRA-LIGAND FREE ENERGY PREDICTED BY IDOCK:   -1.61 KCAL/MOL
REMARK 927      BINDING AFFINITY PREDICTED BY RF-SCORE:    0.00 PKD
ROOT
HETATM    1  CA  UNL     1      -9.665  11.414  67.928  1.00  0.00    -0.180 C  
ENDROOT
BRANCH   1   2
HETATM    2  C   UNL     1      -8.140  11.524  68.015  1.00  0.00    -0.136 A  
HETATM    3  C   UNL     1      -6.006  11.561  66.848  1.00  0.00    -0.136 A  
HETATM    4  C   UNL     1      -5.383  12.076  67.982  1.00  0.00    -0.053 A  
HETATM    5  C   UNL     1      -6.114  12.250  69.153  1.00  0.00    -0.083 A  
HETATM    6  C   UNL     1      -7.372  11.281  66.864  1.00  0.00    -0.145 A  
HETATM    7  C   UNL     1      -7.480  11.964  69.174  1.00  0.00     0.066 A  
ENDBRANCH   1   2
BRANCH   1   8
HETATM    8  C   UNL     1     -10.238  12.569  67.014  1.00  0.00    -0.221 C  
HETATM    9  N   UNL     1     -10.540  13.756  67.655  1.00  0.00    -0.241 N  
HETATM   10  H   UNL     1     -10.366  13.801  68.659  1.00  0.00     0.000 HD 
HETATM   11  O   UNL     1     -10.413  12.432  65.803  1.00  0.00    -0.248 OA 
BRANCH   9  12
HETATM   12  CA  UNL     1     -11.105  14.994  66.997  1.00  0.00    -0.334 C  
HETATM   13  N   UNL     1     -10.053  16.811  66.543  1.00  0.00    -0.303 N  
HETATM   14  CA  UNL     1      -8.666  17.309  66.777  1.00  0.00    -0.251 C  
HETATM   15  C   UNL     1      -8.706  18.815  67.114  1.00  0.00    -0.277 C  
HETATM   16  O   UNL     1      -9.789  15.309  64.779  1.00  0.00    -0.129 OA 
HETATM   17  C   UNL     1      -8.065  16.426  67.893  1.00  0.00    -0.158 C  
HETATM   18  OXT UNL     1      -7.782  19.453  67.597  1.00  0.00    -0.254 OA 
HETATM   19  O   UNL     1      -9.846  19.434  66.715  1.00  0.00    -0.318 OA 
HETATM   20  C   UNL     1     -10.270  15.648  65.834  1.00  0.00    -0.351 C  
HETATM   21  C   UNL     1      -6.885  16.980  68.695  1.00  0.00    -0.187 C  
HETATM   22  S   UNL     1      -9.484  16.151  69.053  1.00  0.00    -0.250 SA 
HETATM   23  C   UNL     1      -7.571  15.075  67.343  1.00  0.00    -0.233 C  
HETATM   24  C   UNL     1     -10.770  16.322  67.742  1.00  0.00    -0.325 C  
ENDBRANCH   9  12
ENDBRANCH   1   8
BRANCH   1  25
HETATM   25  N   UNL     1     -10.276  11.333  69.258  1.00  0.00    -0.419 N  
HETATM   26  H   UNL     1      -9.773  11.689  70.070  1.00  0.00     0.000 HD 
BRANCH  25  27
HETATM   27  C   UNL     1     -11.528  10.779  69.419  1.00  0.00    -0.295 C  
HETATM   28  O   UNL     1     -12.509  11.165  68.788  1.00  0.00    -0.468 OA 
BRANCH  27  29
HETATM   29  N   UNL     1     -11.606   9.717  70.308  1.00  0.00    -0.233 N  
HETATM   30  C   UNL     1     -12.629   9.681  71.338  1.00  0.00    -0.371 C  
HETATM   31  C   UNL     1     -12.480   8.319  72.000  1.00  0.00    -0.351 C  
HETATM   32  C   UNL     1     -10.995   8.463  70.205  1.00  0.00    -0.215 C  
HETATM   33  O   UNL     1     -10.142   8.129  69.399  1.00  0.00    -0.185 OA 
HETATM   34  N   UNL     1     -11.510   7.638  71.189  1.00  0.00    -0.270 NA 
ENDBRANCH  27  29
ENDBRANCH  25  27
ENDBRANCH   1  25
TORSDOF 6
ENDMDL
MODEL       90
REMARK 921   NORMALIZED FREE ENERGY PREDICTED BY IDOCK:   -5.23 KCAL/MOL
REMARK 922        TOTAL FREE ENERGY PREDICTED BY IDOCK:   -9.15 KCAL/MOL
REMARK 923 INTER-LIGAND FREE ENERGY PREDICTED BY IDOCK:   -7.77 KCAL/MOL
REMARK 924 INTRA-LIGAND FREE ENERGY PREDICTED BY IDOCK:   -1.38 KCAL/MOL
REMARK 927      BINDING AFFINITY PREDICTED BY RF-SCORE:    0.00 PKD
ROOT
HETATM    1  CA  UNL     1      -9.856  10.292  67.526  1.00  0.00    -0.173 C  
ENDROOT
BRANCH   1   2
HETATM    2  C   UNL     1      -9.925  10.354  65.997  1.00  0.00    -0.301 A  
HETATM    3  C   UNL     1     -10.877  11.398  64.017  1.00  0.00    -0.450 A  
HETATM    4  C   UNL     1      -9.881  10.830  63.227  1.00  0.00    -0.394 A  
HETATM    5  C   UNL     1      -8.949   9.970  63.800  1.00  0.00    -0.274 A  
HETATM    6  C   UNL     1     -10.904  11.158  65.391  1.00  0.00    -0.212 A  
HETATM    7  C   UNL     1      -8.978   9.723  65.174  1.00  0.00    -0.237 A  
ENDBRANCH   1   2
BRANCH   1   8
HETATM    8  C   UNL     1      -9.092  11.559  68.084  1.00  0.00    -0.181 C  
HETATM    9  N   UNL     1      -9.840  12.716  68.200  1.00  0.00    -0.222 N  
HETATM   10  H   UNL     1     -10.822  12.665  67.926  1.00  0.00     0.000 HD 
HETATM   11  O   UNL     1      -7.902  11.531  68.396  1.00  0.00    -0.122 OA 
BRANCH   9  12
HETATM   12  CA  UNL     1      -9.330  14.049  68.697  1.00  0.00    -0.130 C  
HETATM   13  N   UNL     1      -9.908  15.996  67.995  1.00  0.00    -0.221 N  
HETATM   14  CA  UNL     1     -10.810  16.501  66.920  1.00  0.00    -0.083 C  
HETATM   15  C   UNL     1     -10.190  17.756  66.269  1.00  0.00    -0.364 C  
HETATM   16  O   UNL     1     -11.391  15.307  69.658  1.00  0.00    -0.251 OA 
HETATM   17  C   UNL     1     -11.032  15.324  65.944  1.00  0.00    -0.325 C  
HETATM   18  OXT UNL     1     -10.550  18.250  65.210  1.00  0.00    -0.562 OA 
HETATM   19  O   UNL     1      -9.254  18.364  67.040  1.00  0.00    -0.263 OA 
HETATM   20  C   UNL     1     -10.393  15.173  68.990  1.00  0.00    -0.244 C  
HETATM   21  C   UNL     1     -11.478  15.645  64.516  1.00  0.00    -0.304 C  
HETATM   22  S   UNL     1      -9.377  14.494  65.869  1.00  0.00     0.036 SA 
HETATM   23  C   UNL     1     -12.088  14.337  66.477  1.00  0.00    -0.454 C  
HETATM   24  C   UNL     1      -8.880  15.021  67.564  1.00  0.00    -0.185 C  
ENDBRANCH   9  12
ENDBRANCH   1   8
BRANCH   1  25
HETATM   25  N   UNL     1      -9.322   9.009  67.991  1.00  0.00    -0.141 N  
HETATM   26  H   UNL     1      -8.335   8.791  67.853  1.00  0.00     0.000 HD 
BRANCH  25  27
HETATM   27  C   UNL     1     -10.143   8.094  68.613  1.00  0.00    -0.196 C  
HETATM   28  O   UNL     1     -10.742   7.215  67.997  1.00  0.00    -0.207 OA 
BRANCH  27  29
HETATM   29  N   UNL     1     -10.217   8.193  69.995  1.00  0.00    -0.198 N  
HETATM   30  C   UNL     1     -11.295   8.926  70.634  1.00  0.00    -0.259 C  
HETATM   31  C   UNL     1     -11.111   8.684  72.125  1.00  0.00    -0.364 C  
HETATM   32  C   UNL     1      -9.534   7.430  70.948  1.00  0.00    -0.165 C  
HETATM   33  O   UNL     1      -8.618   6.651  70.743  1.00  0.00    -0.133 OA 
HETATM   34  N   UNL     1     -10.061   7.709  72.197  1.00  0.00    -0.188 NA 
ENDBRANCH  27  29
ENDBRANCH  25  27
ENDBRANCH   1  25
TORSDOF 6
ENDMDL
MODEL       91
REMARK 921   NORMALIZED FREE ENERGY PREDICTED BY IDOCK:   -5.21 KCAL/MOL
REMARK 922        TOTAL FREE ENERGY PREDICTED BY IDOCK:   -9.14 KCAL/MOL
REMARK 923 INTER-LIGAND FREE ENERGY PREDICTED BY IDOCK:   -7.82 KCAL/MOL
REMARK 924 INTRA-LIGAND FREE ENERGY PREDICTED BY IDOCK:   -1.32 KCAL/MOL
REMARK 927      BINDING AFFINITY PREDICTED BY RF-SCORE:    0.00 PKD
ROOT
HETATM    1  CA  UNL     1      -9.402  14.317  66.488  1.00  0.00    -0.271 C  
ENDROOT
BRANCH   1   2
HETATM    2  C   UNL     1     -10.272  13.383  65.641  1.00  0.00    -0.300 A  
HETATM    3  C   UNL     1     -12.486  12.494  65.167  1.00  0.00    -0.451 A  
HETATM    4  C   UNL     1     -12.038  12.003  63.943  1.00  0.00    -0.557 A  
HETATM    5  C   UNL     1     -10.697  12.135  63.594  1.00  0.00    -0.518 A  
HETATM    6  C   UNL     1     -11.610  13.174  66.013  1.00  0.00    -0.393 A  
HETATM    7  C   UNL     1      -9.817  12.809  64.442  1.00  0.00    -0.052 A  
ENDBRANCH   1   2
BRANCH   1   8
HETATM    8  C   UNL     1      -8.230  13.498  67.163  1.00  0.00    -0.112 C  
HETATM    9  N   UNL     1      -8.611  12.398  67.908  1.00  0.00    -0.161 N  
HETATM   10  H   UNL     1      -9.609  12.194  67.961  1.00  0.00     0.000 HD 
HETATM   11  O   UNL     1      -7.046  13.812  67.042  1.00  0.00     0.006 OA 
BRANCH   9  12
HETATM   12  CA  UNL     1      -7.676  11.470  68.651  1.00  0.00    -0.139 C  
HETATM   13  N   UNL     1      -7.575   9.331  68.483  1.00  0.00    -0.084 N  
HETATM   14  CA  UNL     1      -8.344   8.299  67.728  1.00  0.00    -0.128 C  
HETATM   15  C   UNL     1      -8.508   7.034  68.598  1.00  0.00    -0.121 C  
HETATM   16  O   UNL     1      -6.224  10.295  66.845  1.00  0.00    -0.064 OA 
HETATM   17  C   UNL     1      -9.677   8.960  67.312  1.00  0.00    -0.181 C  
HETATM   18  OXT UNL     1      -9.289   6.121  68.372  1.00  0.00    -0.118 OA 
HETATM   19  O   UNL     1      -7.609   6.948  69.610  1.00  0.00    -0.096 OA 
HETATM   20  C   UNL     1      -6.939  10.357  67.818  1.00  0.00    -0.083 C  
HETATM   21  C   UNL     1     -10.861   8.049  66.979  1.00  0.00    -0.113 C  
HETATM   22  S   UNL     1     -10.130  10.001  68.776  1.00  0.00    -0.196 SA 
HETATM   23  C   UNL     1      -9.503   9.853  66.070  1.00  0.00    -0.258 C  
HETATM   24  C   UNL     1      -8.384  10.250  69.315  1.00  0.00    -0.163 C  
ENDBRANCH   9  12
ENDBRANCH   1   8
BRANCH   1  25
HETATM   25  N   UNL     1     -10.208  15.105  67.424  1.00  0.00    -0.234 N  
HETATM   26  H   UNL     1     -11.113  14.752  67.736  1.00  0.00     0.000 HD 
BRANCH  25  27
HETATM   27  C   UNL     1      -9.753  16.321  67.886  1.00  0.00    -0.233 C  
HETATM   28  O   UNL     1      -8.952  16.419  68.813  1.00  0.00    -0.224 OA 
BRANCH  27  29
HETATM   29  N   UNL     1     -10.220  17.437  67.206  1.00  0.00    -0.315 N  
HETATM   30  C   UNL     1     -10.231  18.744  67.838  1.00  0.00    -0.396 C  
HETATM   31  C   UNL     1     -10.665  19.710  66.745  1.00  0.00    -0.447 C  
HETATM   32  C   UNL     1     -10.445  17.573  65.833  1.00  0.00    -0.249 C  
HETATM   33  O   UNL     1     -10.435  16.685  64.998  1.00  0.00    -0.664 OA 
HETATM   34  N   UNL     1     -10.698  18.906  65.557  1.00  0.00    -0.505 NA 
ENDBRANCH  27  29
ENDBRANCH  25  27
ENDBRANCH   1  25
TORSDOF 6
ENDMDL
MODEL       92
REMARK 921   NORMALIZED FREE ENERGY PREDICTED BY IDOCK:   -5.21 KCAL/MOL
REMARK 922        TOTAL FREE ENERGY PREDICTED BY IDOCK:   -9.12 KCAL/MOL
REMARK 923 INTER-LIGAND FREE ENERGY PREDICTED BY IDOCK:   -7.91 KCAL/MOL
REMARK 924 INTRA-LIGAND FREE ENERGY PREDICTED BY IDOCK:   -1.21 KCAL/MOL
REMARK 927      BINDING AFFINITY PREDICTED BY RF-SCORE:    0.00 PKD
ROOT
HETATM    1  CA  UNL     1      -9.812  10.572  66.208  1.00  0.00    -0.217 C  
ENDROOT
BRANCH   1   2
HETATM    2  C   UNL     1     -10.292  11.413  67.396  1.00  0.00    -0.232 A  
HETATM    3  C   UNL     1     -10.025  13.420  68.742  1.00  0.00    -0.063 A  
HETATM    4  C   UNL     1     -11.286  13.226  69.301  1.00  0.00    -0.311 A  
HETATM    5  C   UNL     1     -12.023  12.094  68.967  1.00  0.00    -0.302 A  
HETATM    6  C   UNL     1      -9.528  12.519  67.801  1.00  0.00    -0.197 A  
HETATM    7  C   UNL     1     -11.525  11.186  68.030  1.00  0.00    -0.366 A  
ENDBRANCH   1   2
BRANCH   1   8
HETATM    8  C   UNL     1      -8.769   9.491  66.699  1.00  0.00    -0.134 C  
HETATM    9  N   UNL     1      -8.997   8.955  67.953  1.00  0.00    -0.139 N  
HETATM   10  H   UNL     1      -9.816   9.288  68.461  1.00  0.00     0.000 HD 
HETATM   11  O   UNL     1      -7.806   9.140  66.018  1.00  0.00    -0.100 OA 
BRANCH   9  12
HETATM   12  CA  UNL     1      -8.136   7.917  68.638  1.00  0.00    -0.126 C  
HETATM   13  N   UNL     1      -8.675   6.701  70.325  1.00  0.00    -0.146 N  
HETATM   14  CA  UNL     1      -9.872   6.602  71.210  1.00  0.00    -0.177 C  
HETATM   15  C   UNL     1      -9.423   6.326  72.661  1.00  0.00    -0.148 C  
HETATM   16  O   UNL     1      -9.373   5.648  68.364  1.00  0.00    -0.116 OA 
HETATM   17  C   UNL     1     -10.661   7.918  71.030  1.00  0.00    -0.220 C  
HETATM   18  OXT UNL     1     -10.132   6.440  73.651  1.00  0.00    -0.194 OA 
HETATM   19  O   UNL     1      -8.169   5.817  72.757  1.00  0.00    -0.111 OA 
HETATM   20  C   UNL     1      -8.794   6.524  68.963  1.00  0.00    -0.130 C  
HETATM   21  C   UNL     1     -11.631   8.335  72.138  1.00  0.00    -0.428 C  
HETATM   22  S   UNL     1      -9.340   9.210  70.890  1.00  0.00    -0.256 SA 
HETATM   23  C   UNL     1     -11.511   7.899  69.746  1.00  0.00     0.216 C  
HETATM   24  C   UNL     1      -8.087   8.053  70.190  1.00  0.00    -0.114 C  
ENDBRANCH   9  12
ENDBRANCH   1   8
BRANCH   1  25
HETATM   25  N   UNL     1      -9.338  11.415  65.107  1.00  0.00    -0.331 N  
HETATM   26  H   UNL     1      -8.391  11.793  65.129  1.00  0.00     0.000 HD 
BRANCH  25  27
HETATM   27  C   UNL     1     -10.163  11.701  64.041  1.00  0.00    -0.346 C  
HETATM   28  O   UNL     1     -10.227  10.986  63.043  1.00  0.00    -0.305 OA 
BRANCH  27  29
HETATM   29  N   UNL     1     -10.961  12.828  64.181  1.00  0.00    -0.372 N  
HETATM   30  C   UNL     1     -10.405  14.080  64.663  1.00  0.00    -0.309 C  
HETATM   31  C   UNL     1     -11.535  15.091  64.540  1.00  0.00    -0.318 C  
HETATM   32  C   UNL     1     -12.234  13.050  63.647  1.00  0.00    -0.491 C  
HETATM   33  O   UNL     1     -12.952  12.229  63.101  1.00  0.00    -0.634 OA 
HETATM   34  N   UNL     1     -12.571  14.377  63.848  1.00  0.00    -0.793 NA 
ENDBRANCH  27  29
ENDBRANCH  25  27
ENDBRANCH   1  25
TORSDOF 6
ENDMDL
MODEL       93
REMARK 921   NORMALIZED FREE ENERGY PREDICTED BY IDOCK:   -5.17 KCAL/MOL
REMARK 922        TOTAL FREE ENERGY PREDICTED BY IDOCK:   -9.07 KCAL/MOL
REMARK 923 INTER-LIGAND FREE ENERGY PREDICTED BY IDOCK:   -7.15 KCAL/MOL
REMARK 924 INTRA-LIGAND FREE ENERGY PREDICTED BY IDOCK:   -1.92 KCAL/MOL
REMARK 927      BINDING AFFINITY PREDICTED BY RF-SCORE:    0.00 PKD
ROOT
HETATM    1  CA  UNL     1      -8.941  10.021  68.118  1.00  0.00    -0.122 C  
ENDROOT
BRANCH   1   2
HETATM    2  C   UNL     1      -7.779  11.014  68.208  1.00  0.00    -0.113 A  
HETATM    3  C   UNL     1      -5.809  11.983  67.162  1.00  0.00    -0.150 A  
HETATM    4  C   UNL     1      -5.829  13.035  68.075  1.00  0.00    -0.112 A  
HETATM    5  C   UNL     1      -6.773  13.046  69.097  1.00  0.00    -0.087 A  
HETATM    6  C   UNL     1      -6.773  10.977  67.230  1.00  0.00    -0.086 A  
HETATM    7  C   UNL     1      -7.734  12.036  69.172  1.00  0.00     0.200 A  
ENDBRANCH   1   2
BRANCH   1   8
HETATM    8  C   UNL     1      -9.700  10.201  66.743  1.00  0.00    -0.187 C  
HETATM    9  N   UNL     1     -10.564  11.278  66.664  1.00  0.00    -0.252 N  
HETATM   10  H   UNL     1     -10.642  11.874  67.488  1.00  0.00     0.000 HD 
HETATM   11  O   UNL     1      -9.542   9.435  65.793  1.00  0.00    -0.240 OA 
BRANCH   9  12
HETATM   12  CA  UNL     1     -11.403  11.649  65.462  1.00  0.00    -0.160 C  
HETATM   13  N   UNL     1     -11.439  13.542  64.446  1.00  0.00    -0.381 N  
HETATM   14  CA  UNL     1     -10.776  14.861  64.659  1.00  0.00    -0.234 C  
HETATM   15  C   UNL     1     -11.760  15.999  64.311  1.00  0.00    -0.081 C  
HETATM   16  O   UNL     1      -9.734  12.224  63.556  1.00  0.00    -0.301 OA 
HETATM   17  C   UNL     1     -10.284  14.875  66.123  1.00  0.00    -0.300 C  
HETATM   18  OXT UNL     1     -11.613  17.174  64.612  1.00  0.00    -0.528 OA 
HETATM   19  O   UNL     1     -12.787  15.607  63.515  1.00  0.00    -0.184 OA 
HETATM   20  C   UNL     1     -10.687  12.398  64.277  1.00  0.00    -0.357 C  
HETATM   21  C   UNL     1     -10.025  16.231  66.784  1.00  0.00    -0.268 C  
HETATM   22  S   UNL     1     -11.637  14.017  67.053  1.00  0.00    -0.391 SA 
HETATM   23  C   UNL     1      -8.964  14.097  66.284  1.00  0.00     0.026 C  
HETATM   24  C   UNL     1     -12.171  12.997  65.613  1.00  0.00    -0.466 C  
ENDBRANCH   9  12
ENDBRANCH   1   8
BRANCH   1  25
HETATM   25  N   UNL     1      -9.805  10.091  69.300  1.00  0.00    -0.202 N  
HETATM   26  H   UNL     1     -10.337  10.940  69.490  1.00  0.00     0.000 HD 
BRANCH  25  27
HETATM   27  C   UNL     1      -9.903   9.017  70.158  1.00  0.00    -0.187 C  
HETATM   28  O   UNL     1      -8.918   8.435  70.607  1.00  0.00    -0.140 OA 
BRANCH  27  29
HETATM   29  N   UNL     1     -11.192   8.660  70.530  1.00  0.00    -0.253 N  
HETATM   30  C   UNL     1     -11.559   7.265  70.699  1.00  0.00    -0.290 C  
HETATM   31  C   UNL     1     -12.981   7.291  71.241  1.00  0.00    -0.328 C  
HETATM   32  C   UNL     1     -12.189   9.480  71.067  1.00  0.00    -0.304 C  
HETATM   33  O   UNL     1     -12.171  10.696  71.150  1.00  0.00    -0.349 OA 
HETATM   34  N   UNL     1     -13.236   8.681  71.492  1.00  0.00    -0.321 NA 
ENDBRANCH  27  29
ENDBRANCH  25  27
ENDBRANCH   1  25
TORSDOF 6
ENDMDL
MODEL       94
REMARK 921   NORMALIZED FREE ENERGY PREDICTED BY IDOCK:   -5.17 KCAL/MOL
REMARK 922        TOTAL FREE ENERGY PREDICTED BY IDOCK:   -9.07 KCAL/MOL
REMARK 923 INTER-LIGAND FREE ENERGY PREDICTED BY IDOCK:   -7.99 KCAL/MOL
REMARK 924 INTRA-LIGAND FREE ENERGY PREDICTED BY IDOCK:   -1.08 KCAL/MOL
REMARK 927      BINDING AFFINITY PREDICTED BY RF-SCORE:    0.00 PKD
ROOT
HETATM    1  CA  UNL     1     -11.130  11.190  67.587  1.00  0.00    -0.287 C  
ENDROOT
BRANCH   1   2
HETATM    2  C   UNL     1     -10.135  10.076  67.247  1.00  0.00    -0.259 A  
HETATM    3  C   UNL     1      -7.877   9.195  67.456  1.00  0.00    -0.100 A  
HETATM    4  C   UNL     1      -8.313   7.947  67.016  1.00  0.00    -0.117 A  
HETATM    5  C   UNL     1      -9.637   7.776  66.623  1.00  0.00    -0.286 A  
HETATM    6  C   UNL     1      -8.779  10.254  67.567  1.00  0.00    -0.125 A  
HETATM    7  C   UNL     1     -10.539   8.836  66.725  1.00  0.00    -0.220 A  
ENDBRANCH   1   2
BRANCH   1   8
HETATM    8  C   UNL     1     -11.017  12.356  66.527  1.00  0.00    -0.272 C  
HETATM    9  N   UNL     1     -10.119  13.364  66.827  1.00  0.00    -0.254 N  
HETATM   10  H   UNL     1      -9.596  13.277  67.698  1.00  0.00     0.000 HD 
HETATM   11  O   UNL     1     -11.685  12.381  65.493  1.00  0.00    -0.375 OA 
BRANCH   9  12
HETATM   12  CA  UNL     1      -9.845  14.583  65.976  1.00  0.00    -0.318 C  
HETATM   13  N   UNL     1      -9.470  16.582  66.666  1.00  0.00    -0.244 N  
HETATM   14  CA  UNL     1      -9.442  17.245  68.003  1.00  0.00    -0.271 C  
HETATM   15  C   UNL     1     -10.035  18.666  67.890  1.00  0.00    -0.350 C  
HETATM   16  O   UNL     1      -7.461  15.398  66.616  1.00  0.00    -0.058 OA 
HETATM   17  C   UNL     1     -10.207  16.314  68.970  1.00  0.00    -0.261 C  
HETATM   18  OXT UNL     1     -10.381  19.362  68.833  1.00  0.00    -0.334 OA 
HETATM   19  O   UNL     1     -10.040  19.156  66.624  1.00  0.00    -0.338 OA 
HETATM   20  C   UNL     1      -8.645  15.511  66.397  1.00  0.00    -0.257 C  
HETATM   21  C   UNL     1     -10.779  16.922  70.253  1.00  0.00     0.236 C  
HETATM   22  S   UNL     1     -11.611  15.671  67.948  1.00  0.00    -0.089 SA 
HETATM   23  C   UNL     1      -9.326  15.144  69.445  1.00  0.00    -0.176 C  
HETATM   24  C   UNL     1     -10.704  15.828  66.351  1.00  0.00    -0.277 C  
ENDBRANCH   9  12
ENDBRANCH   1   8
BRANCH   1  25
HETATM   25  N   UNL     1     -11.001  11.623  68.981  1.00  0.00    -0.228 N  
HETATM   26  H   UNL     1     -10.400  12.414  69.213  1.00  0.00     0.000 HD 
BRANCH  25  27
HETATM   27  C   UNL     1     -11.686  10.970  69.982  1.00  0.00    -0.355 C  
HETATM   28  O   UNL     1     -11.705   9.744  70.082  1.00  0.00    -0.221 OA 
BRANCH  27  29
HETATM   29  N   UNL     1     -12.318  11.785  70.911  1.00  0.00    -0.366 N  
HETATM   30  C   UNL     1     -12.354  13.226  70.736  1.00  0.00    -0.344 C  
HETATM   31  C   UNL     1     -13.244  13.740  71.858  1.00  0.00    -0.403 C  
HETATM   32  C   UNL     1     -13.218  11.407  71.912  1.00  0.00    -0.380 C  
HETATM   33  O   UNL     1     -13.484  10.271  72.267  1.00  0.00    -0.377 OA 
HETATM   34  N   UNL     1     -13.769  12.550  72.464  1.00  0.00    -0.289 NA 
ENDBRANCH  27  29
ENDBRANCH  25  27
ENDBRANCH   1  25
TORSDOF 6
ENDMDL
MODEL       95
REMARK 921   NORMALIZED FREE ENERGY PREDICTED BY IDOCK:   -5.16 KCAL/MOL
REMARK 922        TOTAL FREE ENERGY PREDICTED BY IDOCK:   -9.06 KCAL/MOL
REMARK 923 INTER-LIGAND FREE ENERGY PREDICTED BY IDOCK:   -7.74 KCAL/MOL
REMARK 924 INTRA-LIGAND FREE ENERGY PREDICTED BY IDOCK:   -1.32 KCAL/MOL
REMARK 927      BINDING AFFINITY PREDICTED BY RF-SCORE:    0.00 PKD
ROOT
HETATM    1  CA  UNL     1     -10.160  12.987  67.521  1.00  0.00    -0.218 C  
ENDROOT
BRANCH   1   2
HETATM    2  C   UNL     1     -10.709  12.401  66.217  1.00  0.00    -0.287 A  
HETATM    3  C   UNL     1     -12.397  12.487  64.467  1.00  0.00    -0.545 A  
HETATM    4  C   UNL     1     -11.610  11.675  63.654  1.00  0.00    -0.435 A  
HETATM    5  C   UNL     1     -10.410  11.165  64.140  1.00  0.00    -0.423 A  
HETATM    6  C   UNL     1     -11.954  12.844  65.741  1.00  0.00    -0.496 A  
HETATM    7  C   UNL     1      -9.968  11.515  65.417  1.00  0.00    -0.288 A  
ENDBRANCH   1   2
BRANCH   1   8
HETATM    8  C   UNL     1      -8.806  12.269  67.907  1.00  0.00    -0.178 C  
HETATM    9  N   UNL     1      -8.900  11.269  68.858  1.00  0.00    -0.352 N  
HETATM   10  H   UNL     1      -9.827  11.066  69.231  1.00  0.00     0.000 HD 
HETATM   11  O   UNL     1      -7.726  12.573  67.402  1.00  0.00    -0.152 OA 
BRANCH   9  12
HETATM   12  CA  UNL     1      -7.747  10.450  69.392  1.00  0.00    -0.158 C  
HETATM   13  N   UNL     1      -7.726   8.333  69.757  1.00  0.00    -0.096 N  
HETATM   14  CA  UNL     1      -8.735   7.239  69.654  1.00  0.00    -0.141 C  
HETATM   15  C   UNL     1      -8.538   6.240  70.815  1.00  0.00    -0.135 C  
HETATM   16  O   UNL     1      -7.146   8.735  67.535  1.00  0.00    -0.077 OA 
HETATM   17  C   UNL     1     -10.121   7.920  69.633  1.00  0.00    -0.197 C  
HETATM   18  OXT UNL     1      -9.345   5.387  71.155  1.00  0.00    -0.145 OA 
HETATM   19  O   UNL     1      -7.307   6.301  71.384  1.00  0.00    -0.081 OA 
HETATM   20  C   UNL     1      -7.409   9.100  68.656  1.00  0.00    -0.076 C  
HETATM   21  C   UNL     1     -11.341   7.087  70.034  1.00  0.00    -0.293 C  
HETATM   22  S   UNL     1      -9.945   9.319  70.835  1.00  0.00    -0.289 SA 
HETATM   23  C   UNL     1     -10.460   8.471  68.236  1.00  0.00    -0.222 C  
HETATM   24  C   UNL     1      -8.130   9.503  70.570  1.00  0.00    -0.166 C  
ENDBRANCH   9  12
ENDBRANCH   1   8
BRANCH   1  25
HETATM   25  N   UNL     1     -11.172  12.984  68.582  1.00  0.00    -0.260 N  
HETATM   26  H   UNL     1     -11.770  12.168  68.710  1.00  0.00     0.000 HD 
BRANCH  25  27
HETATM   27  C   UNL     1     -11.321  14.076  69.408  1.00  0.00    -0.268 C  
HETATM   28  O   UNL     1     -11.898  14.013  70.492  1.00  0.00    -0.306 OA 
BRANCH  27  29
HETATM   29  N   UNL     1     -10.732  15.252  68.965  1.00  0.00    -0.233 N  
HETATM   30  C   UNL     1     -11.527  16.297  68.346  1.00  0.00    -0.243 C  
HETATM   31  C   UNL     1     -10.565  17.458  68.137  1.00  0.00    -0.376 C  
HETATM   32  C   UNL     1      -9.462  15.747  69.278  1.00  0.00    -0.270 C  
HETATM   33  O   UNL     1      -8.569  15.156  69.862  1.00  0.00    -0.071 OA 
HETATM   34  N   UNL     1      -9.363  17.042  68.801  1.00  0.00    -0.266 NA 
ENDBRANCH  27  29
ENDBRANCH  25  27
ENDBRANCH   1  25
TORSDOF 6
ENDMDL
MODEL       96
REMARK 921   NORMALIZED FREE ENERGY PREDICTED BY IDOCK:   -5.13 KCAL/MOL
REMARK 922        TOTAL FREE ENERGY PREDICTED BY IDOCK:   -9.03 KCAL/MOL
REMARK 923 INTER-LIGAND FREE ENERGY PREDICTED BY IDOCK:   -7.96 KCAL/MOL
REMARK 924 INTRA-LIGAND FREE ENERGY PREDICTED BY IDOCK:   -1.07 KCAL/MOL
REMARK 927      BINDING AFFINITY PREDICTED BY RF-SCORE:    0.00 PKD
ROOT
HETATM    1  CA  UNL     1      -8.162  11.414  68.248  1.00  0.00    -0.150 C  
ENDROOT
BRANCH   1   2
HETATM    2  C   UNL     1      -9.253  10.797  69.129  1.00  0.00    -0.131 A  
HETATM    3  C   UNL     1      -9.818   9.350  71.000  1.00  0.00    -0.317 A  
HETATM    4  C   UNL     1     -11.102   9.888  71.041  1.00  0.00    -0.401 A  
HETATM    5  C   UNL     1     -11.490  10.825  70.089  1.00  0.00    -0.415 A  
HETATM    6  C   UNL     1      -8.901   9.796  70.048  1.00  0.00    -0.245 A  
HETATM    7  C   UNL     1     -10.576  11.268  69.130  1.00  0.00    -0.222 A  
ENDBRANCH   1   2
BRANCH   1   8
HETATM    8  C   UNL     1      -7.753  12.834  68.811  1.00  0.00     0.007 C  
HETATM    9  N   UNL     1      -8.721  13.818  68.734  1.00  0.00    -0.365 N  
HETATM   10  H   UNL     1      -9.620  13.557  68.330  1.00  0.00     0.000 HD 
HETATM   11  O   UNL     1      -6.642  13.063  69.290  1.00  0.00    -0.107 OA 
BRANCH   9  12
HETATM   12  CA  UNL     1      -8.562  15.249  69.197  1.00  0.00    -0.235 C  
HETATM   13  N   UNL     1      -9.577  16.977  68.425  1.00  0.00    -0.267 N  
HETATM   14  CA  UNL     1     -10.549  17.218  67.319  1.00  0.00    -0.283 C  
HETATM   15  C   UNL     1     -10.237  18.569  66.639  1.00  0.00    -0.399 C  
HETATM   16  O   UNL     1     -10.888  15.993  70.083  1.00  0.00    -0.321 OA 
HETATM   17  C   UNL     1     -10.455  15.997  66.378  1.00  0.00    -0.309 C  
HETATM   18  OXT UNL     1     -10.680  18.932  65.560  1.00  0.00    -0.556 OA 
HETATM   19  O   UNL     1      -9.495  19.407  67.406  1.00  0.00    -0.303 OA 
HETATM   20  C   UNL     1      -9.872  16.087  69.436  1.00  0.00    -0.254 C  
HETATM   21  C   UNL     1     -10.932  16.162  64.933  1.00  0.00    -0.364 C  
HETATM   22  S   UNL     1      -8.647  15.593  66.357  1.00  0.00    -0.218 SA 
HETATM   23  C   UNL     1     -11.252  14.798  66.923  1.00  0.00    -0.347 C  
HETATM   24  C   UNL     1      -8.333  16.271  68.042  1.00  0.00    -0.165 C  
ENDBRANCH   9  12
ENDBRANCH   1   8
BRANCH   1  25
HETATM   25  N   UNL     1      -8.544  11.411  66.833  1.00  0.00    -0.149 N  
HETATM   26  H   UNL     1      -9.139  12.155  66.467  1.00  0.00     0.000 HD 
BRANCH  25  27
HETATM   27  C   UNL     1      -8.106  10.411  65.993  1.00  0.00    -0.143 C  
HETATM   28  O   UNL     1      -7.377   9.498  66.374  1.00  0.00    -0.092 OA 
BRANCH  27  29
HETATM   29  N   UNL     1      -8.581  10.468  64.690  1.00  0.00    -0.177 N  
HETATM   30  C   UNL     1      -9.937  10.904  64.408  1.00  0.00    -0.322 C  
HETATM   31  C   UNL     1     -10.027  10.968  62.891  1.00  0.00    -0.233 C  
HETATM   32  C   UNL     1      -7.840  10.430  63.505  1.00  0.00    -0.082 C  
HETATM   33  O   UNL     1      -6.654  10.169  63.390  1.00  0.00    -0.132 OA 
HETATM   34  N   UNL     1      -8.682  10.731  62.448  1.00  0.00    -0.262 NA 
ENDBRANCH  27  29
ENDBRANCH  25  27
ENDBRANCH   1  25
TORSDOF 6
ENDMDL
MODEL       97
REMARK 921   NORMALIZED FREE ENERGY PREDICTED BY IDOCK:   -5.06 KCAL/MOL
REMARK 922        TOTAL FREE ENERGY PREDICTED BY IDOCK:   -8.93 KCAL/MOL
REMARK 923 INTER-LIGAND FREE ENERGY PREDICTED BY IDOCK:   -8.11 KCAL/MOL
REMARK 924 INTRA-LIGAND FREE ENERGY PREDICTED BY IDOCK:   -0.83 KCAL/MOL
REMARK 927      BINDING AFFINITY PREDICTED BY RF-SCORE:    0.00 PKD
ROOT
HETATM    1  CA  UNL     1     -11.053  10.755  67.861  1.00  0.00    -0.308 C  
ENDROOT
BRANCH   1   2
HETATM    2  C   UNL     1     -10.854  11.178  66.402  1.00  0.00    -0.284 A  
HETATM    3  C   UNL     1      -9.558  10.972  64.354  1.00  0.00    -0.301 A  
HETATM    4  C   UNL     1     -10.585  11.575  63.632  1.00  0.00    -0.491 A  
HETATM    5  C   UNL     1     -11.714  12.044  64.296  1.00  0.00    -0.425 A  
HETATM    6  C   UNL     1      -9.688  10.779  65.730  1.00  0.00    -0.278 A  
HETATM    7  C   UNL     1     -11.843  11.859  65.674  1.00  0.00    -0.117 A  
ENDBRANCH   1   2
BRANCH   1   8
HETATM    8  C   UNL     1     -10.931  12.015  68.809  1.00  0.00    -0.239 C  
HETATM    9  N   UNL     1      -9.992  12.961  68.442  1.00  0.00    -0.268 N  
HETATM   10  H   UNL     1      -9.458  12.782  67.591  1.00  0.00     0.000 HD 
HETATM   11  O   UNL     1     -11.621  12.155  69.818  1.00  0.00    -0.297 OA 
BRANCH   9  12
HETATM   12  CA  UNL     1      -9.688  14.238  69.191  1.00  0.00     0.054 C  
HETATM   13  N   UNL     1     -10.207  16.238  68.599  1.00  0.00    -0.241 N  
HETATM   14  CA  UNL     1     -10.871  16.842  67.408  1.00  0.00    -0.166 C  
HETATM   15  C   UNL     1     -10.195  18.187  67.064  1.00  0.00    -0.365 C  
HETATM   16  O   UNL     1     -11.984  15.301  69.783  1.00  0.00    -0.313 OA 
HETATM   17  C   UNL     1     -10.795  15.788  66.281  1.00  0.00    -0.232 C  
HETATM   18  OXT UNL     1     -10.335  18.797  66.013  1.00  0.00    -0.438 OA 
HETATM   19  O   UNL     1      -9.496  18.726  68.095  1.00  0.00    -0.302 OA 
HETATM   20  C   UNL     1     -10.855  15.283  69.354  1.00  0.00    -0.262 C  
HETATM   21  C   UNL     1     -10.924  16.269  64.833  1.00  0.00    -0.321 C  
HETATM   22  S   UNL     1      -9.120  15.027  66.499  1.00  0.00    -0.273 SA 
HETATM   23  C   UNL     1     -11.883  14.710  66.439  1.00  0.00    -0.304 C  
HETATM   24  C   UNL     1      -9.052  15.357  68.311  1.00  0.00    -0.187 C  
ENDBRANCH   9  12
ENDBRANCH   1   8
BRANCH   1  25
HETATM   25  N   UNL     1     -10.178   9.637  68.224  1.00  0.00    -0.178 N  
HETATM   26  H   UNL     1      -9.213   9.620  67.892  1.00  0.00     0.000 HD 
BRANCH  25  27
HETATM   27  C   UNL     1     -10.648   8.607  69.008  1.00  0.00    -0.160 C  
HETATM   28  O   UNL     1     -11.225   8.799  70.077  1.00  0.00    -0.215 OA 
BRANCH  27  29
HETATM   29  N   UNL     1     -10.474   7.330  68.495  1.00  0.00    -0.193 N  
HETATM   30  C   UNL     1     -11.007   6.971  67.193  1.00  0.00    -0.323 C  
HETATM   31  C   UNL     1     -10.494   5.563  66.927  1.00  0.00    -0.287 C  
HETATM   32  C   UNL     1      -9.583   6.344  68.929  1.00  0.00    -0.126 C  
HETATM   33  O   UNL     1      -8.912   6.361  69.947  1.00  0.00    -0.141 OA 
HETATM   34  N   UNL     1      -9.585   5.310  68.009  1.00  0.00    -0.126 NA 
ENDBRANCH  27  29
ENDBRANCH  25  27
ENDBRANCH   1  25
TORSDOF 6
ENDMDL
MODEL       98
REMARK 921   NORMALIZED FREE ENERGY PREDICTED BY IDOCK:   -5.04 KCAL/MOL
REMARK 922        TOTAL FREE ENERGY PREDICTED BY IDOCK:   -8.91 KCAL/MOL
REMARK 923 INTER-LIGAND FREE ENERGY PREDICTED BY IDOCK:   -7.33 KCAL/MOL
REMARK 924 INTRA-LIGAND FREE ENERGY PREDICTED BY IDOCK:   -1.58 KCAL/MOL
REMARK 927      BINDING AFFINITY PREDICTED BY RF-SCORE:    0.00 PKD
ROOT
HETATM    1  CA  UNL     1     -10.936  10.425  69.004  1.00  0.00    -0.238 C  
ENDROOT
BRANCH   1   2
HETATM    2  C   UNL     1     -11.167   9.542  70.234  1.00  0.00    -0.307 A  
HETATM    3  C   UNL     1     -10.274   8.593  72.288  1.00  0.00    -0.372 A  
HETATM    4  C   UNL     1     -11.561   8.260  72.705  1.00  0.00    -0.419 A  
HETATM    5  C   UNL     1     -12.644   8.499  71.865  1.00  0.00    -0.400 A  
HETATM    6  C   UNL     1     -10.077   9.225  71.059  1.00  0.00    -0.373 A  
HETATM    7  C   UNL     1     -12.448   9.123  70.632  1.00  0.00     0.064 A  
ENDBRANCH   1   2
BRANCH   1   8
HETATM    8  C   UNL     1     -10.416   9.545  67.798  1.00  0.00    -0.254 C  
HETATM    9  N   UNL     1      -9.667   8.433  68.137  1.00  0.00    -0.151 N  
HETATM   10  H   UNL     1      -9.513   8.261  69.131  1.00  0.00     0.000 HD 
HETATM   11  O   UNL     1     -10.653   9.823  66.623  1.00  0.00    -0.189 OA 
BRANCH   9  12
HETATM   12  CA  UNL     1      -9.057   7.451  67.164  1.00  0.00    -0.130 C  
HETATM   13  N   UNL     1      -8.999   5.311  67.353  1.00  0.00    -0.109 N  
HETATM   14  CA  UNL     1      -9.436   4.336  68.395  1.00  0.00    -0.155 C  
HETATM   15  C   UNL     1      -8.413   3.184  68.488  1.00  0.00    -0.079 C  
HETATM   16  O   UNL     1     -11.002   5.939  66.337  1.00  0.00    -0.189 OA 
HETATM   17  C   UNL     1      -9.608   5.139  69.704  1.00  0.00    -0.167 C  
HETATM   18  OXT UNL     1      -8.348   2.373  69.400  1.00  0.00    -0.047 OA 
HETATM   19  O   UNL     1      -7.630   3.059  67.387  1.00  0.00    -0.065 OA 
HETATM   20  C   UNL     1      -9.905   6.181  66.783  1.00  0.00    -0.164 C  
HETATM   21  C   UNL     1      -9.554   4.377  71.030  1.00  0.00    -0.249 C  
HETATM   22  S   UNL     1      -8.207   6.351  69.666  1.00  0.00    -0.127 SA 
HETATM   23  C   UNL     1     -10.950   5.893  69.734  1.00  0.00    -0.452 C  
HETATM   24  C   UNL     1      -8.114   6.400  67.826  1.00  0.00    -0.115 C  
ENDBRANCH   9  12
ENDBRANCH   1   8
BRANCH   1  25
HETATM   25  N   UNL     1     -10.092  11.581  69.320  1.00  0.00    -0.423 N  
HETATM   26  H   UNL     1      -9.937  11.845  70.293  1.00  0.00     0.000 HD 
BRANCH  25  27
HETATM   27  C   UNL     1      -9.504  12.313  68.312  1.00  0.00    -0.209 C  
HETATM   28  O   UNL     1      -8.323  12.180  67.998  1.00  0.00    -0.150 OA 
BRANCH  27  29
HETATM   29  N   UNL     1     -10.344  13.184  67.631  1.00  0.00    -0.220 N  
HETATM   30  C   UNL     1     -10.295  13.289  66.184  1.00  0.00    -0.290 C  
HETATM   31  C   UNL     1     -11.442  14.218  65.814  1.00  0.00    -0.335 C  
HETATM   32  C   UNL     1     -11.490  13.823  68.114  1.00  0.00    -0.313 C  
HETATM   33  O   UNL     1     -11.870  13.869  69.271  1.00  0.00    -0.303 OA 
HETATM   34  N   UNL     1     -12.141  14.423  67.050  1.00  0.00    -0.400 NA 
ENDBRANCH  27  29
ENDBRANCH  25  27
ENDBRANCH   1  25
TORSDOF 6
ENDMDL
MODEL       99
REMARK 921   NORMALIZED FREE ENERGY PREDICTED BY IDOCK:   -4.99 KCAL/MOL
REMARK 922        TOTAL FREE ENERGY PREDICTED BY IDOCK:   -8.84 KCAL/MOL
REMARK 923 INTER-LIGAND FREE ENERGY PREDICTED BY IDOCK:   -7.31 KCAL/MOL
REMARK 924 INTRA-LIGAND FREE ENERGY PREDICTED BY IDOCK:   -1.53 KCAL/MOL
REMARK 927      BINDING AFFINITY PREDICTED BY RF-SCORE:    0.00 PKD
ROOT
HETATM    1  CA  UNL     1      -9.254  11.919  66.354  1.00  0.00    -0.215 C  
ENDROOT
BRANCH   1   2
HETATM    2  C   UNL     1     -10.368  12.872  65.912  1.00  0.00    -0.297 A  
HETATM    3  C   UNL     1     -11.209  14.428  64.242  1.00  0.00    -0.111 A  
HETATM    4  C   UNL     1     -12.482  14.360  64.804  1.00  0.00    -0.371 A  
HETATM    5  C   UNL     1     -12.689  13.609  65.957  1.00  0.00    -0.366 A  
HETATM    6  C   UNL     1     -10.158  13.694  64.793  1.00  0.00    -0.268 A  
HETATM    7  C   UNL     1     -11.637  12.881  66.516  1.00  0.00    -0.425 A  
ENDBRANCH   1   2
BRANCH   1   8
HETATM    8  C   UNL     1      -8.249  12.672  67.313  1.00  0.00    -0.184 C  
HETATM    9  N   UNL     1      -7.950  13.978  66.974  1.00  0.00    -0.374 N  
HETATM   10  H   UNL     1      -8.401  14.358  66.141  1.00  0.00     0.000 HD 
HETATM   11  O   UNL     1      -7.753  12.138  68.305  1.00  0.00    -0.120 OA 
BRANCH   9  12
HETATM   12  CA  UNL     1      -7.013  14.893  67.729  1.00  0.00    -0.175 C  
HETATM   13  N   UNL     1      -7.457  16.852  68.493  1.00  0.00    -0.206 N  
HETATM   14  CA  UNL     1      -8.642  17.757  68.440  1.00  0.00    -0.292 C  
HETATM   15  C   UNL     1      -8.172  19.220  68.291  1.00  0.00    -0.337 C  
HETATM   16  O   UNL     1      -8.075  15.253  70.073  1.00  0.00    -0.033 OA 
HETATM   17  C   UNL     1      -9.528  17.253  67.279  1.00  0.00    -0.250 C  
HETATM   18  OXT UNL     1      -8.886  20.159  67.971  1.00  0.00    -0.270 OA 
HETATM   19  O   UNL     1      -6.883  19.419  68.664  1.00  0.00    -0.277 OA 
HETATM   20  C   UNL     1      -7.563  15.587  69.030  1.00  0.00    -0.180 C  
HETATM   21  C   UNL     1     -10.526  18.233  66.656  1.00  0.00    -0.382 C  
HETATM   22  S   UNL     1      -8.308  16.751  65.978  1.00  0.00     0.012 SA 
HETATM   23  C   UNL     1     -10.375  16.038  67.699  1.00  0.00    -0.284 C  
HETATM   24  C   UNL     1      -6.973  16.354  67.185  1.00  0.00    -0.204 C  
ENDBRANCH   9  12
ENDBRANCH   1   8
BRANCH   1  25
HETATM   25  N   UNL     1      -8.620  11.261  65.207  1.00  0.00    -0.388 N  
HETATM   26  H   UNL     1      -7.764  11.649  64.810  1.00  0.00     0.000 HD 
BRANCH  25  27
HETATM   27  C   UNL     1      -9.171  10.123  64.662  1.00  0.00    -0.252 C  
HETATM   28  O   UNL     1      -9.937  10.152  63.701  1.00  0.00    -0.152 OA 
BRANCH  27  29
HETATM   29  N   UNL     1      -8.769   8.924  65.235  1.00  0.00    -0.183 N  
HETATM   30  C   UNL     1      -7.402   8.454  65.098  1.00  0.00    -0.081 C  
HETATM   31  C   UNL     1      -7.321   7.208  65.969  1.00  0.00    -0.075 C  
HETATM   32  C   UNL     1      -9.432   8.175  66.212  1.00  0.00    -0.190 C  
HETATM   33  O   UNL     1     -10.568   8.347  66.621  1.00  0.00    -0.262 OA 
HETATM   34  N   UNL     1      -8.583   7.173  66.651  1.00  0.00    -0.119 NA 
ENDBRANCH  27  29
ENDBRANCH  25  27
ENDBRANCH   1  25
TORSDOF 6
ENDMDL
MODEL      100
REMARK 921   NORMALIZED FREE ENERGY PREDICTED BY IDOCK:   -4.98 KCAL/MOL
REMARK 922        TOTAL FREE ENERGY PREDICTED BY IDOCK:   -8.82 KCAL/MOL
REMARK 923 INTER-LIGAND FREE ENERGY PREDICTED BY IDOCK:   -7.45 KCAL/MOL
REMARK 924 INTRA-LIGAND FREE ENERGY PREDICTED BY IDOCK:   -1.38 KCAL/MOL
REMARK 927      BINDING AFFINITY PREDICTED BY RF-SCORE:    0.00 PKD
ROOT
HETATM    1  CA  UNL     1     -10.806   8.677  71.202  1.00  0.00    -0.259 C  
ENDROOT
BRANCH   1   2
HETATM    2  C   UNL     1      -9.573   8.278  72.018  1.00  0.00    -0.316 A  
HETATM    3  C   UNL     1      -7.171   8.467  72.351  1.00  0.00    -0.113 A  
HETATM    4  C   UNL     1      -7.296   7.931  73.631  1.00  0.00    -0.169 A  
HETATM    5  C   UNL     1      -8.541   7.502  74.082  1.00  0.00    -0.276 A  
HETATM    6  C   UNL     1      -8.300   8.635  71.548  1.00  0.00    -0.220 A  
HETATM    7  C   UNL     1      -9.670   7.662  73.277  1.00  0.00    -0.346 A  
ENDBRANCH   1   2
BRANCH   1   8
HETATM    8  C   UNL     1     -11.365   7.422  70.419  1.00  0.00    -0.249 C  
HETATM    9  N   UNL     1     -10.479   6.801  69.558  1.00  0.00    -0.208 N  
HETATM   10  H   UNL     1      -9.538   7.190  69.498  1.00  0.00     0.000 HD 
HETATM   11  O   UNL     1     -12.517   7.014  70.557  1.00  0.00    -0.241 OA 
BRANCH   9  12
HETATM   12  CA  UNL     1     -10.783   5.595  68.700  1.00  0.00    -0.179 C  
HETATM   13  N   UNL     1      -9.700   4.938  66.964  1.00  0.00    -0.162 N  
HETATM   14  CA  UNL     1      -8.535   5.460  66.192  1.00  0.00    -0.120 C  
HETATM   15  C   UNL     1      -8.756   5.208  64.685  1.00  0.00    -0.120 C  
HETATM   16  O   UNL     1      -8.713   4.033  68.874  1.00  0.00    -0.085 OA 
HETATM   17  C   UNL     1      -8.390   6.951  66.571  1.00  0.00    -0.121 C  
HETATM   18  OXT UNL     1      -8.118   5.731  63.783  1.00  0.00    -0.117 OA 
HETATM   19  O   UNL     1      -9.669   4.239  64.422  1.00  0.00    -0.162 OA 
HETATM   20  C   UNL     1      -9.581   4.656  68.309  1.00  0.00    -0.149 C  
HETATM   21  C   UNL     1      -7.639   7.871  65.605  1.00  0.00    -0.084 C  
HETATM   22  S   UNL     1     -10.140   7.545  66.706  1.00  0.00    -0.217 SA 
HETATM   23  C   UNL     1      -7.673   7.125  67.923  1.00  0.00    -0.113 C  
HETATM   24  C   UNL     1     -10.813   5.893  67.170  1.00  0.00    -0.285 C  
ENDBRANCH   9  12
ENDBRANCH   1   8
BRANCH   1  25
HETATM   25  N   UNL     1     -10.541   9.847  70.360  1.00  0.00    -0.291 N  
HETATM   26  H   UNL     1      -9.578  10.116  70.154  1.00  0.00     0.000 HD 
BRANCH  25  27
HETATM   27  C   UNL     1     -11.582  10.588  69.844  1.00  0.00    -0.307 C  
HETATM   28  O   UNL     1     -12.054  10.379  68.728  1.00  0.00    -0.209 OA 
BRANCH  27  29
HETATM   29  N   UNL     1     -12.105  11.560  70.685  1.00  0.00    -0.373 N  
HETATM   30  C   UNL     1     -11.973  12.970  70.367  1.00  0.00    -0.258 C  
HETATM   31  C   UNL     1     -12.784  13.696  71.430  1.00  0.00    -0.352 C  
HETATM   32  C   UNL     1     -13.032  11.393  71.718  1.00  0.00    -0.414 C  
HETATM   33  O   UNL     1     -13.426  10.337  72.184  1.00  0.00    -0.401 OA 
HETATM   34  N   UNL     1     -13.439  12.642  72.152  1.00  0.00    -0.531 NA 
ENDBRANCH  27  29
ENDBRANCH  25  27
ENDBRANCH   1  25
TORSDOF 6
ENDMDL
MODEL      101
REMARK 921   NORMALIZED FREE ENERGY PREDICTED BY IDOCK:   -4.96 KCAL/MOL
REMARK 922        TOTAL FREE ENERGY PREDICTED BY IDOCK:   -8.79 KCAL/MOL
REMARK 923 INTER-LIGAND FREE ENERGY PREDICTED BY IDOCK:   -7.09 KCAL/MOL
REMARK 924 INTRA-LIGAND FREE ENERGY PREDICTED BY IDOCK:   -1.71 KCAL/MOL
REMARK 927      BINDING AFFINITY PREDICTED BY RF-SCORE:    0.00 PKD
ROOT
HETATM    1  CA  UNL     1     -10.708   9.499  68.354  1.00  0.00    -0.186 C  
ENDROOT
BRANCH   1   2
HETATM    2  C   UNL     1      -9.222   9.796  68.577  1.00  0.00    -0.134 A  
HETATM    3  C   UNL     1      -7.119  10.601  67.657  1.00  0.00    -0.084 A  
HETATM    4  C   UNL     1      -6.595  10.729  68.940  1.00  0.00    -0.057 A  
HETATM    5  C   UNL     1      -7.348  10.328  70.039  1.00  0.00    -0.157 A  
HETATM    6  C   UNL     1      -8.421  10.133  67.474  1.00  0.00    -0.118 A  
HETATM    7  C   UNL     1      -8.649   9.852  69.859  1.00  0.00    -0.216 A  
ENDBRANCH   1   2
BRANCH   1   8
HETATM    8  C   UNL     1     -11.571  10.780  68.688  1.00  0.00    -0.272 C  
HETATM    9  N   UNL     1     -11.528  11.800  67.756  1.00  0.00    -0.302 N  
HETATM   10  H   UNL     1     -10.954  11.649  66.926  1.00  0.00     0.000 HD 
HETATM   11  O   UNL     1     -12.243  10.878  69.715  1.00  0.00    -0.326 OA 
BRANCH   9  12
HETATM   12  CA  UNL     1     -12.258  13.120  67.858  1.00  0.00    -0.057 C  
HETATM   13  N   UNL     1     -11.518  15.054  67.286  1.00  0.00    -0.333 N  
HETATM   14  CA  UNL     1     -10.222  15.568  66.755  1.00  0.00    -0.280 C  
HETATM   15  C   UNL     1      -9.919  16.950  67.374  1.00  0.00    -0.269 C  
HETATM   16  O   UNL     1     -12.483  14.021  65.431  1.00  0.00    -0.451 OA 
HETATM   17  C   UNL     1      -9.161  14.489  67.065  1.00  0.00    -0.240 C  
HETATM   18  OXT UNL     1      -8.836  17.514  67.341  1.00  0.00    -0.225 OA 
HETATM   19  O   UNL     1     -11.014  17.572  67.881  1.00  0.00    -0.323 OA 
HETATM   20  C   UNL     1     -12.215  14.076  66.609  1.00  0.00    -0.428 C  
HETATM   21  C   UNL     1      -7.691  14.913  67.106  1.00  0.00    -0.177 C  
HETATM   22  S   UNL     1      -9.640  13.866  68.743  1.00  0.00     0.008 SA 
HETATM   23  C   UNL     1      -9.212  13.336  66.045  1.00  0.00     0.084 C  
HETATM   24  C   UNL     1     -11.429  14.256  68.531  1.00  0.00    -0.298 C  
ENDBRANCH   9  12
ENDBRANCH   1   8
BRANCH   1  25
HETATM   25  N   UNL     1     -11.127   8.284  69.060  1.00  0.00    -0.413 N  
HETATM   26  H   UNL     1     -11.587   8.359  69.968  1.00  0.00     0.000 HD 
BRANCH  25  27
HETATM   27  C   UNL     1     -10.905   7.042  68.507  1.00  0.00    -0.138 C  
HETATM   28  O   UNL     1     -10.920   6.845  67.294  1.00  0.00    -0.335 OA 
BRANCH  27  29
HETATM   29  N   UNL     1     -10.612   6.026  69.406  1.00  0.00    -0.263 N  
HETATM   30  C   UNL     1      -9.571   5.055  69.120  1.00  0.00    -0.154 C  
HETATM   31  C   UNL     1      -9.455   4.213  70.382  1.00  0.00    -0.177 C  
HETATM   32  C   UNL     1     -10.991   5.932  70.749  1.00  0.00    -0.273 C  
HETATM   33  O   UNL     1     -11.792   6.641  71.334  1.00  0.00    -0.307 OA 
HETATM   34  N   UNL     1     -10.309   4.876  71.327  1.00  0.00    -0.184 NA 
ENDBRANCH  27  29
ENDBRANCH  25  27
ENDBRANCH   1  25
TORSDOF 6
ENDMDL
MODEL      102
REMARK 921   NORMALIZED FREE ENERGY PREDICTED BY IDOCK:   -4.96 KCAL/MOL
REMARK 922        TOTAL FREE ENERGY PREDICTED BY IDOCK:   -8.79 KCAL/MOL
REMARK 923 INTER-LIGAND FREE ENERGY PREDICTED BY IDOCK:   -7.61 KCAL/MOL
REMARK 924 INTRA-LIGAND FREE ENERGY PREDICTED BY IDOCK:   -1.18 KCAL/MOL
REMARK 927      BINDING AFFINITY PREDICTED BY RF-SCORE:    0.00 PKD
ROOT
HETATM    1  CA  UNL     1     -10.415   9.782  68.251  1.00  0.00    -0.216 C  
ENDROOT
BRANCH   1   2
HETATM    2  C   UNL     1     -10.752   9.120  69.591  1.00  0.00    -0.236 A  
HETATM    3  C   UNL     1     -11.482   9.384  71.895  1.00  0.00    -0.308 A  
HETATM    4  C   UNL     1     -11.748   8.020  71.979  1.00  0.00    -0.375 A  
HETATM    5  C   UNL     1     -11.452   7.191  70.901  1.00  0.00    -0.333 A  
HETATM    6  C   UNL     1     -10.983   9.931  70.713  1.00  0.00    -0.407 A  
HETATM    7  C   UNL     1     -10.945   7.734  69.719  1.00  0.00    -0.162 A  
ENDBRANCH   1   2
BRANCH   1   8
HETATM    8  C   UNL     1     -11.388  11.000  67.992  1.00  0.00    -0.306 C  
HETATM    9  N   UNL     1     -10.895  12.008  67.184  1.00  0.00    -0.242 N  
HETATM   10  H   UNL     1      -9.953  11.890  66.814  1.00  0.00     0.000 HD 
HETATM   11  O   UNL     1     -12.518  11.061  68.476  1.00  0.00    -0.440 OA 
BRANCH   9  12
HETATM   12  CA  UNL     1     -11.632  13.272  66.803  1.00  0.00    -0.365 C  
HETATM   13  N   UNL     1     -10.840  15.269  66.764  1.00  0.00    -0.312 N  
HETATM   14  CA  UNL     1      -9.529  15.886  67.117  1.00  0.00    -0.213 C  
HETATM   15  C   UNL     1      -9.763  17.265  67.770  1.00  0.00    -0.270 C  
HETATM   16  O   UNL     1     -10.409  14.231  64.720  1.00  0.00    -0.433 OA 
HETATM   17  C   UNL     1      -8.795  14.871  68.023  1.00  0.00    -0.167 C  
HETATM   18  OXT UNL     1      -8.924  17.902  68.390  1.00  0.00    -0.272 OA 
HETATM   19  O   UNL     1     -10.983  17.796  67.501  1.00  0.00    -0.287 OA 
HETATM   20  C   UNL     1     -10.912  14.267  65.819  1.00  0.00    -0.305 C  
HETATM   21  C   UNL     1      -7.685  15.393  68.938  1.00  0.00    -0.165 C  
HETATM   22  S   UNL     1     -10.144  14.166  69.079  1.00  0.00    -0.012 SA 
HETATM   23  C   UNL     1      -8.135  13.750  67.199  1.00  0.00    -0.094 C  
HETATM   24  C   UNL     1     -11.464  14.440  67.821  1.00  0.00    -0.336 C  
ENDBRANCH   9  12
ENDBRANCH   1   8
BRANCH   1  25
HETATM   25  N   UNL     1     -10.366   8.802  67.162  1.00  0.00    -0.281 N  
HETATM   26  H   UNL     1     -10.989   7.994  67.179  1.00  0.00     0.000 HD 
BRANCH  25  27
HETATM   27  C   UNL     1      -9.487   8.965  66.114  1.00  0.00    -0.251 C  
HETATM   28  O   UNL     1      -9.564   9.904  65.324  1.00  0.00    -0.256 OA 
BRANCH  27  29
HETATM   29  N   UNL     1      -8.469   8.025  66.030  1.00  0.00    -0.128 N  
HETATM   30  C   UNL     1      -7.907   7.648  64.746  1.00  0.00    -0.129 C  
HETATM   31  C   UNL     1      -6.743   6.725  65.077  1.00  0.00    -0.050 C  
HETATM   32  C   UNL     1      -7.656   7.547  67.062  1.00  0.00    -0.103 C  
HETATM   33  O   UNL     1      -7.800   7.739  68.257  1.00  0.00    -0.116 OA 
HETATM   34  N   UNL     1      -6.638   6.791  66.507  1.00  0.00    -0.043 NA 
ENDBRANCH  27  29
ENDBRANCH  25  27
ENDBRANCH   1  25
TORSDOF 6
ENDMDL
MODEL      103
REMARK 921   NORMALIZED FREE ENERGY PREDICTED BY IDOCK:   -4.95 KCAL/MOL
REMARK 922        TOTAL FREE ENERGY PREDICTED BY IDOCK:   -8.78 KCAL/MOL
REMARK 923 INTER-LIGAND FREE ENERGY PREDICTED BY IDOCK:   -7.93 KCAL/MOL
REMARK 924 INTRA-LIGAND FREE ENERGY PREDICTED BY IDOCK:   -0.85 KCAL/MOL
REMARK 927      BINDING AFFINITY PREDICTED BY RF-SCORE:    0.00 PKD
ROOT
HETATM    1  CA  UNL     1     -10.055   8.907  67.078  1.00  0.00    -0.261 C  
ENDROOT
BRANCH   1   2
HETATM    2  C   UNL     1      -9.114   8.278  66.046  1.00  0.00    -0.228 A  
HETATM    3  C   UNL     1      -8.124   6.259  65.119  1.00  0.00    -0.130 A  
HETATM    4  C   UNL     1      -7.719   6.964  63.988  1.00  0.00    -0.116 A  
HETATM    5  C   UNL     1      -7.945   8.335  63.911  1.00  0.00    -0.146 A  
HETATM    6  C   UNL     1      -8.812   6.911  66.144  1.00  0.00    -0.163 A  
HETATM    7  C   UNL     1      -8.626   8.991  64.938  1.00  0.00    -0.206 A  
ENDBRANCH   1   2
BRANCH   1   8
HETATM    8  C   UNL     1      -9.488  10.308  67.541  1.00  0.00    -0.152 C  
HETATM    9  N   UNL     1     -10.291  11.403  67.282  1.00  0.00    -0.192 N  
HETATM   10  H   UNL     1     -11.184  11.227  66.822  1.00  0.00     0.000 HD 
HETATM   11  O   UNL     1      -8.397  10.431  68.097  1.00  0.00    -0.113 OA 
BRANCH   9  12
HETATM   12  CA  UNL     1      -9.961  12.839  67.621  1.00  0.00    -0.217 C  
HETATM   13  N   UNL     1     -10.741  14.603  66.673  1.00  0.00    -0.299 N  
HETATM   14  CA  UNL     1     -11.659  14.861  65.526  1.00  0.00    -0.263 C  
HETATM   15  C   UNL     1     -11.171  16.095  64.738  1.00  0.00    -0.304 C  
HETATM   16  O   UNL     1     -12.188  13.942  68.378  1.00  0.00    -0.339 OA 
HETATM   17  C   UNL     1     -11.705  13.557  64.699  1.00  0.00    -0.381 C  
HETATM   18  OXT UNL     1     -11.550  16.411  63.620  1.00  0.00    -0.926 OA 
HETATM   19  O   UNL     1     -10.341  16.901  65.446  1.00  0.00    -0.609 OA 
HETATM   20  C   UNL     1     -11.159  13.851  67.752  1.00  0.00    -0.262 C  
HETATM   21  C   UNL     1     -12.137  13.648  63.233  1.00  0.00    -0.096 C  
HETATM   22  S   UNL     1      -9.962  12.932  64.760  1.00  0.00    -0.055 SA 
HETATM   23  C   UNL     1     -12.654  12.520  65.328  1.00  0.00    -0.259 C  
HETATM   24  C   UNL     1      -9.590  13.716  66.386  1.00  0.00    -0.268 C  
ENDBRANCH   9  12
ENDBRANCH   1   8
BRANCH   1  25
HETATM   25  N   UNL     1     -10.350   7.981  68.175  1.00  0.00    -0.224 N  
HETATM   26  H   UNL     1     -10.273   6.975  68.023  1.00  0.00     0.000 HD 
BRANCH  25  27
HETATM   27  C   UNL     1     -10.732   8.458  69.409  1.00  0.00    -0.152 C  
HETATM   28  O   UNL     1     -11.121   9.611  69.583  1.00  0.00    -0.236 OA 
BRANCH  27  29
HETATM   29  N   UNL     1     -10.697   7.538  70.448  1.00  0.00    -0.234 N  
HETATM   30  C   UNL     1     -11.679   7.582  71.516  1.00  0.00    -0.280 C  
HETATM   31  C   UNL     1     -11.401   6.349  72.364  1.00  0.00    -0.287 C  
HETATM   32  C   UNL     1      -9.993   6.331  70.502  1.00  0.00    -0.186 C  
HETATM   33  O   UNL     1      -9.144   5.943  69.718  1.00  0.00    -0.135 OA 
HETATM   34  N   UNL     1     -10.409   5.627  71.619  1.00  0.00    -0.208 NA 
ENDBRANCH  27  29
ENDBRANCH  25  27
ENDBRANCH   1  25
TORSDOF 6
ENDMDL
MODEL      104
REMARK 921   NORMALIZED FREE ENERGY PREDICTED BY IDOCK:   -4.92 KCAL/MOL
REMARK 922        TOTAL FREE ENERGY PREDICTED BY IDOCK:   -8.74 KCAL/MOL
REMARK 923 INTER-LIGAND FREE ENERGY PREDICTED BY IDOCK:   -7.37 KCAL/MOL
REMARK 924 INTRA-LIGAND FREE ENERGY PREDICTED BY IDOCK:   -1.37 KCAL/MOL
REMARK 927      BINDING AFFINITY PREDICTED BY RF-SCORE:    0.00 PKD
ROOT
HETATM    1  CA  UNL     1      -8.843  14.426  67.472  1.00  0.00    -0.193 C  
ENDROOT
BRANCH   1   2
HETATM    2  C   UNL     1     -10.077  14.139  66.610  1.00  0.00    -0.275 A  
HETATM    3  C   UNL     1     -12.402  13.431  66.509  1.00  0.00    -0.354 A  
HETATM    4  C   UNL     1     -12.508  13.929  65.213  1.00  0.00    -0.504 A  
HETATM    5  C   UNL     1     -11.388  14.467  64.585  1.00  0.00    -0.373 A  
HETATM    6  C   UNL     1     -11.195  13.530  67.202  1.00  0.00    -0.324 A  
HETATM    7  C   UNL     1     -10.177  14.560  65.274  1.00  0.00    -0.431 A  
ENDBRANCH   1   2
BRANCH   1   8
HETATM    8  C   UNL     1      -7.708  13.372  67.156  1.00  0.00     0.019 C  
HETATM    9  N   UNL     1      -8.136  12.092  66.856  1.00  0.00    -0.265 N  
HETATM   10  H   UNL     1      -9.142  11.926  66.853  1.00  0.00     0.000 HD 
HETATM   11  O   UNL     1      -6.512  13.659  67.176  1.00  0.00    -0.201 OA 
BRANCH   9  12
HETATM   12  CA  UNL     1      -7.242  10.917  66.530  1.00  0.00    -0.142 C  
HETATM   13  N   UNL     1      -7.662   8.838  66.875  1.00  0.00    -0.094 N  
HETATM   14  CA  UNL     1      -8.784   8.084  67.506  1.00  0.00    -0.125 C  
HETATM   15  C   UNL     1      -8.223   6.877  68.288  1.00  0.00    -0.123 C  
HETATM   16  O   UNL     1      -8.539   9.467  64.807  1.00  0.00    -0.153 OA 
HETATM   17  C   UNL     1      -9.560   9.097  68.376  1.00  0.00    -0.151 C  
HETATM   18  OXT UNL     1      -8.845   6.219  69.109  1.00  0.00    -0.128 OA 
HETATM   19  O   UNL     1      -6.974   6.510  67.902  1.00  0.00    -0.074 OA 
HETATM   20  C   UNL     1      -7.896   9.681  65.808  1.00  0.00    -0.106 C  
HETATM   21  C   UNL     1     -10.428   8.555  69.514  1.00  0.00    -0.222 C  
HETATM   22  S   UNL     1      -8.232  10.162  69.107  1.00  0.00    -0.156 SA 
HETATM   23  C   UNL     1     -10.513   9.960  67.528  1.00  0.00    -0.310 C  
HETATM   24  C   UNL     1      -7.063   9.908  67.705  1.00  0.00    -0.087 C  
ENDBRANCH   9  12
ENDBRANCH   1   8
BRANCH   1  25
HETATM   25  N   UNL     1      -9.190  14.536  68.891  1.00  0.00    -0.323 N  
HETATM   26  H   UNL     1      -9.006  13.755  69.520  1.00  0.00     0.000 HD 
BRANCH  25  27
HETATM   27  C   UNL     1      -9.762  15.689  69.383  1.00  0.00    -0.292 C  
HETATM   28  O   UNL     1     -10.692  15.675  70.188  1.00  0.00    -0.302 OA 
BRANCH  27  29
HETATM   29  N   UNL     1      -9.191  16.878  68.952  1.00  0.00    -0.255 N  
HETATM   30  C   UNL     1     -10.018  18.012  68.582  1.00  0.00    -0.390 C  
HETATM   31  C   UNL     1      -9.040  19.146  68.312  1.00  0.00    -0.338 C  
HETATM   32  C   UNL     1      -7.859  17.284  69.077  1.00  0.00    -0.144 C  
HETATM   33  O   UNL     1      -6.915  16.600  69.436  1.00  0.00    -0.233 OA 
HETATM   34  N   UNL     1      -7.768  18.616  68.711  1.00  0.00    -0.317 NA 
ENDBRANCH  27  29
ENDBRANCH  25  27
ENDBRANCH   1  25
TORSDOF 6
ENDMDL
MODEL      105
REMARK 921   NORMALIZED FREE ENERGY PREDICTED BY IDOCK:   -4.92 KCAL/MOL
REMARK 922        TOTAL FREE ENERGY PREDICTED BY IDOCK:   -8.73 KCAL/MOL
REMARK 923 INTER-LIGAND FREE ENERGY PREDICTED BY IDOCK:   -7.07 KCAL/MOL
REMARK 924 INTRA-LIGAND FREE ENERGY PREDICTED BY IDOCK:   -1.67 KCAL/MOL
REMARK 927      BINDING AFFINITY PREDICTED BY RF-SCORE:    0.00 PKD
ROOT
HETATM    1  CA  UNL     1     -11.240  13.267  67.804  1.00  0.00    -0.280 C  
ENDROOT
BRANCH   1   2
HETATM    2  C   UNL     1     -11.382  13.304  66.279  1.00  0.00    -0.336 A  
HETATM    3  C   UNL     1     -10.380  12.876  64.104  1.00  0.00    -0.385 A  
HETATM    4  C   UNL     1     -11.631  12.971  63.498  1.00  0.00    -0.468 A  
HETATM    5  C   UNL     1     -12.746  13.302  64.262  1.00  0.00    -0.146 A  
HETATM    6  C   UNL     1     -10.254  13.046  65.483  1.00  0.00    -0.296 A  
HETATM    7  C   UNL     1     -12.621  13.480  65.641  1.00  0.00    -0.512 A  
ENDBRANCH   1   2
BRANCH   1   8
HETATM    8  C   UNL     1     -11.391  11.782  68.324  1.00  0.00    -0.282 C  
HETATM    9  N   UNL     1     -10.217  11.133  68.655  1.00  0.00    -0.198 N  
HETATM   10  H   UNL     1      -9.348  11.657  68.546  1.00  0.00     0.000 HD 
HETATM   11  O   UNL     1     -12.484  11.225  68.429  1.00  0.00    -0.403 OA 
BRANCH   9  12
HETATM   12  CA  UNL     1     -10.107   9.713  69.163  1.00  0.00    -0.189 C  
HETATM   13  N   UNL     1      -8.802   8.173  68.426  1.00  0.00    -0.134 N  
HETATM   14  CA  UNL     1      -7.815   8.077  67.311  1.00  0.00    -0.109 C  
HETATM   15  C   UNL     1      -7.884   6.671  66.677  1.00  0.00    -0.104 C  
HETATM   16  O   UNL     1      -7.674   9.434  70.031  1.00  0.00    -0.089 OA 
HETATM   17  C   UNL     1      -8.141   9.230  66.335  1.00  0.00    -0.107 C  
HETATM   18  OXT UNL     1      -7.394   6.359  65.602  1.00  0.00    -0.075 OA 
HETATM   19  O   UNL     1      -8.452   5.737  67.481  1.00  0.00    -0.105 OA 
HETATM   20  C   UNL     1      -8.663   9.135  69.405  1.00  0.00    -0.140 C  
HETATM   21  C   UNL     1      -7.659   9.107  64.888  1.00  0.00    -0.107 C  
HETATM   22  S   UNL     1      -9.993   9.298  66.333  1.00  0.00    -0.275 SA 
HETATM   23  C   UNL     1      -7.569  10.571  66.831  1.00  0.00    -0.110 C  
HETATM   24  C   UNL     1     -10.158   8.629  68.043  1.00  0.00    -0.196 C  
ENDBRANCH   9  12
ENDBRANCH   1   8
BRANCH   1  25
HETATM   25  N   UNL     1     -12.133  14.231  68.453  1.00  0.00    -0.558 N  
HETATM   26  H   UNL     1     -13.101  14.313  68.142  1.00  0.00     0.000 HD 
BRANCH  25  27
HETATM   27  C   UNL     1     -11.675  15.027  69.480  1.00  0.00    -0.322 C  
HETATM   28  O   UNL     1     -12.185  15.023  70.599  1.00  0.00    -0.280 OA 
BRANCH  27  29
HETATM   29  N   UNL     1     -10.564  15.805  69.189  1.00  0.00    -0.226 N  
HETATM   30  C   UNL     1      -9.331  15.655  69.942  1.00  0.00     0.025 C  
HETATM   31  C   UNL     1      -8.326  16.559  69.243  1.00  0.00    -0.062 C  
HETATM   32  C   UNL     1     -10.328  16.572  68.044  1.00  0.00    -0.294 C  
HETATM   33  O   UNL     1     -11.128  16.836  67.162  1.00  0.00    -0.077 OA 
HETATM   34  N   UNL     1      -9.015  17.008  68.067  1.00  0.00    -0.225 NA 
ENDBRANCH  27  29
ENDBRANCH  25  27
ENDBRANCH   1  25
TORSDOF 6
ENDMDL
MODEL      106
REMARK 921   NORMALIZED FREE ENERGY PREDICTED BY IDOCK:   -4.91 KCAL/MOL
REMARK 922        TOTAL FREE ENERGY PREDICTED BY IDOCK:   -8.73 KCAL/MOL
REMARK 923 INTER-LIGAND FREE ENERGY PREDICTED BY IDOCK:   -7.28 KCAL/MOL
REMARK 924 INTRA-LIGAND FREE ENERGY PREDICTED BY IDOCK:   -1.46 KCAL/MOL
REMARK 927      BINDING AFFINITY PREDICTED BY RF-SCORE:    0.00 PKD
ROOT
HETATM    1  CA  UNL     1     -10.881  10.690  69.355  1.00  0.00    -0.246 C  
ENDROOT
BRANCH   1   2
HETATM    2  C   UNL     1     -10.036   9.924  68.332  1.00  0.00    -0.189 A  
HETATM    3  C   UNL     1      -7.872   8.992  67.729  1.00  0.00    -0.101 A  
HETATM    4  C   UNL     1      -8.469   8.227  66.729  1.00  0.00    -0.122 A  
HETATM    5  C   UNL     1      -9.831   8.358  66.479  1.00  0.00    -0.338 A  
HETATM    6  C   UNL     1      -8.648   9.838  68.521  1.00  0.00    -0.120 A  
HETATM    7  C   UNL     1     -10.608   9.210  67.265  1.00  0.00    -0.303 A  
ENDBRANCH   1   2
BRANCH   1   8
HETATM    8  C   UNL     1     -11.484   9.685  70.416  1.00  0.00    -0.263 C  
HETATM    9  N   UNL     1     -11.293   8.341  70.156  1.00  0.00    -0.439 N  
HETATM   10  H   UNL     1     -10.776   8.099  69.310  1.00  0.00     0.000 HD 
HETATM   11  O   UNL     1     -12.093  10.064  71.417  1.00  0.00    -0.367 OA 
BRANCH   9  12
HETATM   12  CA  UNL     1     -11.783   7.198  71.015  1.00  0.00    -0.320 C  
HETATM   13  N   UNL     1     -10.601   5.612  71.853  1.00  0.00    -0.225 N  
HETATM   14  CA  UNL     1      -9.164   5.219  71.775  1.00  0.00    -0.138 C  
HETATM   15  C   UNL     1      -9.048   3.680  71.732  1.00  0.00    -0.111 C  
HETATM   16  O   UNL     1     -10.578   7.436  73.305  1.00  0.00    -0.337 OA 
HETATM   17  C   UNL     1      -8.579   5.933  70.536  1.00  0.00    -0.136 C  
HETATM   18  OXT UNL     1      -8.044   3.058  71.420  1.00  0.00    -0.057 OA 
HETATM   19  O   UNL     1     -10.150   3.037  72.195  1.00  0.00    -0.167 OA 
HETATM   20  C   UNL     1     -10.963   6.859  72.315  1.00  0.00    -0.242 C  
HETATM   21  C   UNL     1      -7.308   5.359  69.905  1.00  0.00    -0.065 C  
HETATM   22  S   UNL     1      -9.946   5.843  69.288  1.00  0.00    -0.189 SA 
HETATM   23  C   UNL     1      -8.242   7.405  70.837  1.00  0.00    -0.114 C  
HETATM   24  C   UNL     1     -11.286   5.794  70.553  1.00  0.00    -0.130 C  
ENDBRANCH   9  12
ENDBRANCH   1   8
BRANCH   1  25
HETATM   25  N   UNL     1     -11.872  11.549  68.702  1.00  0.00    -0.332 N  
HETATM   26  H   UNL     1     -12.596  11.133  68.115  1.00  0.00     0.000 HD 
BRANCH  25  27
HETATM   27  C   UNL     1     -11.835  12.915  68.874  1.00  0.00    -0.309 C  
HETATM   28  O   UNL     1     -12.257  13.467  69.888  1.00  0.00    -0.322 OA 
BRANCH  27  29
HETATM   29  N   UNL     1     -11.241  13.636  67.848  1.00  0.00    -0.263 N  
HETATM   30  C   UNL     1     -12.023  14.536  67.019  1.00  0.00    -0.345 C  
HETATM   31  C   UNL     1     -11.010  15.235  66.124  1.00  0.00    -0.307 C  
HETATM   32  C   UNL     1      -9.878  13.861  67.634  1.00  0.00    -0.236 C  
HETATM   33  O   UNL     1      -8.948  13.325  68.212  1.00  0.00    -0.187 OA 
HETATM   34  N   UNL     1      -9.738  14.804  66.630  1.00  0.00    -0.255 NA 
ENDBRANCH  27  29
ENDBRANCH  25  27
ENDBRANCH   1  25
TORSDOF 6
ENDMDL
MODEL      107
REMARK 921   NORMALIZED FREE ENERGY PREDICTED BY IDOCK:   -4.91 KCAL/MOL
REMARK 922        TOTAL FREE ENERGY PREDICTED BY IDOCK:   -8.73 KCAL/MOL
REMARK 923 INTER-LIGAND FREE ENERGY PREDICTED BY IDOCK:   -7.52 KCAL/MOL
REMARK 924 INTRA-LIGAND FREE ENERGY PREDICTED BY IDOCK:   -1.21 KCAL/MOL
REMARK 927      BINDING AFFINITY PREDICTED BY RF-SCORE:    0.00 PKD
ROOT
HETATM    1  CA  UNL     1     -11.360   8.769  71.062  1.00  0.00    -0.278 C  
ENDROOT
BRANCH   1   2
HETATM    2  C   UNL     1     -10.415   8.182  72.116  1.00  0.00    -0.352 A  
HETATM    3  C   UNL     1      -8.223   8.220  73.169  1.00  0.00    -0.233 A  
HETATM    4  C   UNL     1      -8.710   7.463  74.232  1.00  0.00    -0.264 A  
HETATM    5  C   UNL     1     -10.023   7.003  74.209  1.00  0.00    -0.235 A  
HETATM    6  C   UNL     1      -9.067   8.574  72.116  1.00  0.00    -0.319 A  
HETATM    7  C   UNL     1     -10.867   7.349  73.153  1.00  0.00    -0.435 A  
ENDBRANCH   1   2
BRANCH   1   8
HETATM    8  C   UNL     1     -11.375   7.847  69.778  1.00  0.00     0.112 C  
HETATM    9  N   UNL     1     -10.749   8.359  68.657  1.00  0.00    -0.414 N  
HETATM   10  H   UNL     1     -10.323   9.281  68.742  1.00  0.00     0.000 HD 
HETATM   11  O   UNL     1     -11.911   6.739  69.764  1.00  0.00    -0.230 OA 
BRANCH   9  12
HETATM   12  CA  UNL     1     -10.642   7.670  67.315  1.00  0.00    -0.318 C  
HETATM   13  N   UNL     1      -8.908   7.566  66.051  1.00  0.00    -0.164 N  
HETATM   14  CA  UNL     1      -7.527   8.126  66.114  1.00  0.00    -0.078 C  
HETATM   15  C   UNL     1      -7.069   8.537  64.698  1.00  0.00    -0.080 C  
HETATM   16  O   UNL     1      -8.845   5.814  67.588  1.00  0.00    -0.108 OA 
HETATM   17  C   UNL     1      -7.571   9.290  67.129  1.00  0.00    -0.091 C  
HETATM   18  OXT UNL     1      -6.105   9.246  64.448  1.00  0.00    -0.073 OA 
HETATM   19  O   UNL     1      -7.770   7.938  63.702  1.00  0.00    -0.122 OA 
HETATM   20  C   UNL     1      -9.385   6.759  67.062  1.00  0.00    -0.143 C  
HETATM   21  C   UNL     1      -6.480  10.360  67.045  1.00  0.00    -0.074 C  
HETATM   22  S   UNL     1      -9.208  10.095  66.809  1.00  0.00    -0.153 SA 
HETATM   23  C   UNL     1      -7.514   8.779  68.580  1.00  0.00    -0.092 C  
HETATM   24  C   UNL     1     -10.006   8.550  66.197  1.00  0.00    -0.090 C  
ENDBRANCH   9  12
ENDBRANCH   1   8
BRANCH   1  25
HETATM   25  N   UNL     1     -11.060  10.178  70.793  1.00  0.00    -0.330 N  
HETATM   26  H   UNL     1     -10.199  10.591  71.152  1.00  0.00     0.000 HD 
BRANCH  25  27
HETATM   27  C   UNL     1     -11.933  10.951  70.059  1.00  0.00    -0.350 C  
HETATM   28  O   UNL     1     -12.238  10.685  68.898  1.00  0.00    -0.370 OA 
BRANCH  27  29
HETATM   29  N   UNL     1     -12.493  12.029  70.729  1.00  0.00    -0.330 N  
HETATM   30  C   UNL     1     -13.270  11.834  71.940  1.00  0.00    -0.362 C  
HETATM   31  C   UNL     1     -13.580  13.235  72.444  1.00  0.00    -0.594 C  
HETATM   32  C   UNL     1     -12.192  13.386  70.574  1.00  0.00    -0.352 C  
HETATM   33  O   UNL     1     -11.503  13.888  69.702  1.00  0.00    -0.263 OA 
HETATM   34  N   UNL     1     -12.820  14.095  71.583  1.00  0.00    -0.333 NA 
ENDBRANCH  27  29
ENDBRANCH  25  27
ENDBRANCH   1  25
TORSDOF 6
ENDMDL
MODEL      108
REMARK 921   NORMALIZED FREE ENERGY PREDICTED BY IDOCK:   -4.91 KCAL/MOL
REMARK 922        TOTAL FREE ENERGY PREDICTED BY IDOCK:   -8.72 KCAL/MOL
REMARK 923 INTER-LIGAND FREE ENERGY PREDICTED BY IDOCK:   -7.39 KCAL/MOL
REMARK 924 INTRA-LIGAND FREE ENERGY PREDICTED BY IDOCK:   -1.33 KCAL/MOL
REMARK 927      BINDING AFFINITY PREDICTED BY RF-SCORE:    0.00 PKD
ROOT
HETATM    1  CA  UNL     1      -8.973  14.400  67.569  1.00  0.00    -0.190 C  
ENDROOT
BRANCH   1   2
HETATM    2  C   UNL     1      -8.300  15.775  67.513  1.00  0.00    -0.183 A  
HETATM    3  C   UNL     1      -7.785  17.767  66.216  1.00  0.00    -0.308 A  
HETATM    4  C   UNL     1      -7.437  18.448  67.380  1.00  0.00    -0.221 A  
HETATM    5  C   UNL     1      -7.450  17.781  68.601  1.00  0.00    -0.274 A  
HETATM    6  C   UNL     1      -8.208  16.439  66.279  1.00  0.00    -0.343 A  
HETATM    7  C   UNL     1      -7.866  16.450  68.666  1.00  0.00    -0.211 A  
ENDBRANCH   1   2
BRANCH   1   8
HETATM    8  C   UNL     1      -7.924  13.272  67.214  1.00  0.00    -0.125 C  
HETATM    9  N   UNL     1      -8.442  12.110  66.673  1.00  0.00    -0.345 N  
HETATM   10  H   UNL     1      -9.452  12.071  66.536  1.00  0.00     0.000 HD 
HETATM   11  O   UNL     1      -6.715  13.405  67.407  1.00  0.00    -0.167 OA 
BRANCH   9  12
HETATM   12  CA  UNL     1      -7.642  10.895  66.264  1.00  0.00    -0.136 C  
HETATM   13  N   UNL     1      -8.161   8.836  66.594  1.00  0.00    -0.106 N  
HETATM   14  CA  UNL     1      -9.281   8.132  67.283  1.00  0.00    -0.138 C  
HETATM   15  C   UNL     1      -8.742   6.876  68.001  1.00  0.00    -0.125 C  
HETATM   16  O   UNL     1      -9.133   9.564  64.603  1.00  0.00    -0.227 OA 
HETATM   17  C   UNL     1      -9.938   9.167  68.224  1.00  0.00    -0.175 C  
HETATM   18  OXT UNL     1      -9.346   6.235  68.848  1.00  0.00    -0.129 OA 
HETATM   19  O   UNL     1      -7.545   6.448  67.525  1.00  0.00    -0.096 OA 
HETATM   20  C   UNL     1      -8.415   9.716  65.563  1.00  0.00    -0.142 C  
HETATM   21  C   UNL     1     -10.759   8.648  69.407  1.00  0.00    -0.169 C  
HETATM   22  S   UNL     1      -8.503  10.135  68.886  1.00  0.00    -0.149 SA 
HETATM   23  C   UNL     1     -10.892  10.103  67.460  1.00  0.00    -0.349 C  
HETATM   24  C   UNL     1      -7.446   9.849  67.403  1.00  0.00    -0.091 C  
ENDBRANCH   9  12
ENDBRANCH   1   8
BRANCH   1  25
HETATM   25  N   UNL     1     -10.197  14.365  66.763  1.00  0.00    -0.267 N  
HETATM   26  H   UNL     1     -10.158  14.603  65.772  1.00  0.00     0.000 HD 
BRANCH  25  27
HETATM   27  C   UNL     1     -11.399  14.012  67.334  1.00  0.00    -0.329 C  
HETATM   28  O   UNL     1     -12.262  13.382  66.726  1.00  0.00    -0.377 OA 
BRANCH  27  29
HETATM   29  N   UNL     1     -11.562  14.369  68.666  1.00  0.00    -0.296 N  
HETATM   30  C   UNL     1     -11.805  15.749  69.043  1.00  0.00    -0.355 C  
HETATM   31  C   UNL     1     -12.069  15.711  70.541  1.00  0.00    -0.395 C  
HETATM   32  C   UNL     1     -11.816  13.529  69.754  1.00  0.00    -0.329 C  
HETATM   33  O   UNL     1     -11.772  12.310  69.765  1.00  0.00    -0.308 OA 
HETATM   34  N   UNL     1     -12.121  14.312  70.854  1.00  0.00    -0.337 NA 
ENDBRANCH  27  29
ENDBRANCH  25  27
ENDBRANCH   1  25
TORSDOF 6
ENDMDL
MODEL      109
REMARK 921   NORMALIZED FREE ENERGY PREDICTED BY IDOCK:   -4.88 KCAL/MOL
REMARK 922        TOTAL FREE ENERGY PREDICTED BY IDOCK:   -8.68 KCAL/MOL
REMARK 923 INTER-LIGAND FREE ENERGY PREDICTED BY IDOCK:   -7.96 KCAL/MOL
REMARK 924 INTRA-LIGAND FREE ENERGY PREDICTED BY IDOCK:   -0.73 KCAL/MOL
REMARK 927      BINDING AFFINITY PREDICTED BY RF-SCORE:    0.00 PKD
ROOT
HETATM    1  CA  UNL     1      -8.216  10.516  68.798  1.00  0.00    -0.134 C  
ENDROOT
BRANCH   1   2
HETATM    2  C   UNL     1      -7.060  10.121  69.722  1.00  0.00    -0.127 A  
HETATM    3  C   UNL     1      -5.272  10.835  71.209  1.00  0.00    -0.078 A  
HETATM    4  C   UNL     1      -5.164   9.542  71.716  1.00  0.00    -0.074 A  
HETATM    5  C   UNL     1      -5.947   8.523  71.184  1.00  0.00    -0.037 A  
HETATM    6  C   UNL     1      -6.209  11.123  70.216  1.00  0.00    -0.134 A  
HETATM    7  C   UNL     1      -6.880   8.806  70.185  1.00  0.00    -0.040 A  
ENDBRANCH   1   2
BRANCH   1   8
HETATM    8  C   UNL     1      -7.894  11.891  68.089  1.00  0.00    -0.134 C  
HETATM    9  N   UNL     1      -8.806  12.909  68.298  1.00  0.00    -0.233 N  
HETATM   10  H   UNL     1      -9.608  12.701  68.893  1.00  0.00     0.000 HD 
HETATM   11  O   UNL     1      -6.896  12.059  67.388  1.00  0.00    -0.115 OA 
BRANCH   9  12
HETATM   12  CA  UNL     1      -8.719  14.303  67.720  1.00  0.00    -0.179 C  
HETATM   13  N   UNL     1     -10.215  15.317  66.558  1.00  0.00    -0.266 N  
HETATM   14  CA  UNL     1     -11.556  14.947  66.020  1.00  0.00    -0.226 C  
HETATM   15  C   UNL     1     -11.745  15.574  64.621  1.00  0.00    -0.226 C  
HETATM   16  O   UNL     1     -10.630  15.674  68.825  1.00  0.00    -0.223 OA 
HETATM   17  C   UNL     1     -11.626  13.404  66.037  1.00  0.00    -0.344 C  
HETATM   18  OXT UNL     1     -12.614  15.261  63.821  1.00  0.00    -0.733 OA 
HETATM   19  O   UNL     1     -10.916  16.620  64.376  1.00  0.00    -0.924 OA 
HETATM   20  C   UNL     1      -9.960  15.251  67.912  1.00  0.00    -0.228 C  
HETATM   21  C   UNL     1     -12.630  12.717  65.108  1.00  0.00    -0.459 C  
HETATM   22  S   UNL     1      -9.919  12.878  65.547  1.00  0.00    -0.161 SA 
HETATM   23  C   UNL     1     -11.955  12.867  67.442  1.00  0.00    -0.360 C  
HETATM   24  C   UNL     1      -9.110  14.394  66.213  1.00  0.00    -0.095 C  
ENDBRANCH   9  12
ENDBRANCH   1   8
BRANCH   1  25
HETATM   25  N   UNL     1      -9.503  10.482  69.499  1.00  0.00    -0.399 N  
HETATM   26  H   UNL     1      -9.713  11.186  70.207  1.00  0.00     0.000 HD 
BRANCH  25  27
HETATM   27  C   UNL     1     -10.431   9.506  69.209  1.00  0.00    -0.212 C  
HETATM   28  O   UNL     1     -11.026   9.456  68.135  1.00  0.00    -0.166 OA 
BRANCH  27  29
HETATM   29  N   UNL     1     -10.622   8.544  70.192  1.00  0.00    -0.228 N  
HETATM   30  C   UNL     1     -10.624   8.906  71.598  1.00  0.00    -0.352 C  
HETATM   31  C   UNL     1     -11.001   7.629  72.336  1.00  0.00    -0.301 C  
HETATM   32  C   UNL     1     -11.112   7.244  70.037  1.00  0.00    -0.240 C  
HETATM   33  O   UNL     1     -11.303   6.654  68.987  1.00  0.00    -0.245 OA 
HETATM   34  N   UNL     1     -11.344   6.707  71.291  1.00  0.00    -0.283 NA 
ENDBRANCH  27  29
ENDBRANCH  25  27
ENDBRANCH   1  25
TORSDOF 6
ENDMDL
MODEL      110
REMARK 921   NORMALIZED FREE ENERGY PREDICTED BY IDOCK:   -4.86 KCAL/MOL
REMARK 922        TOTAL FREE ENERGY PREDICTED BY IDOCK:   -8.65 KCAL/MOL
REMARK 923 INTER-LIGAND FREE ENERGY PREDICTED BY IDOCK:   -6.95 KCAL/MOL
REMARK 924 INTRA-LIGAND FREE ENERGY PREDICTED BY IDOCK:   -1.70 KCAL/MOL
REMARK 927      BINDING AFFINITY PREDICTED BY RF-SCORE:    0.00 PKD
ROOT
HETATM    1  CA  UNL     1      -9.207   8.923  69.452  1.00  0.00    -0.146 C  
ENDROOT
BRANCH   1   2
HETATM    2  C   UNL     1     -10.435   8.394  70.200  1.00  0.00    -0.230 A  
HETATM    3  C   UNL     1     -11.944   6.536  70.631  1.00  0.00    -0.345 A  
HETATM    4  C   UNL     1     -12.432   7.182  71.764  1.00  0.00    -0.385 A  
HETATM    5  C   UNL     1     -11.980   8.459  72.080  1.00  0.00    -0.438 A  
HETATM    6  C   UNL     1     -10.957   7.138  69.851  1.00  0.00    -0.278 A  
HETATM    7  C   UNL     1     -10.998   9.067  71.297  1.00  0.00    -0.384 A  
ENDBRANCH   1   2
BRANCH   1   8
HETATM    8  C   UNL     1      -9.581   9.224  67.946  1.00  0.00    -0.142 C  
HETATM    9  N   UNL     1     -10.432  10.293  67.735  1.00  0.00    -0.208 N  
HETATM   10  H   UNL     1     -10.747  10.807  68.557  1.00  0.00     0.000 HD 
HETATM   11  O   UNL     1      -9.149   8.553  67.009  1.00  0.00    -0.136 OA 
BRANCH   9  12
HETATM   12  CA  UNL     1     -10.936  10.766  66.391  1.00  0.00    -0.038 C  
HETATM   13  N   UNL     1     -10.646  12.705  65.511  1.00  0.00    -0.270 N  
HETATM   14  CA  UNL     1     -10.001  13.974  65.956  1.00  0.00    -0.315 C  
HETATM   15  C   UNL     1     -10.823  15.179  65.449  1.00  0.00    -0.381 C  
HETATM   16  O   UNL     1      -8.829  11.341  64.982  1.00  0.00    -0.086 OA 
HETATM   17  C   UNL     1      -9.881  13.891  67.494  1.00  0.00    -0.236 C  
HETATM   18  OXT UNL     1     -10.707  16.329  65.847  1.00  0.00    -0.302 OA 
HETATM   19  O   UNL     1     -11.640  14.882  64.407  1.00  0.00    -0.362 OA 
HETATM   20  C   UNL     1      -9.923  11.531  65.460  1.00  0.00    -0.242 C  
HETATM   21  C   UNL     1      -9.737  15.197  68.278  1.00  0.00    -0.219 C  
HETATM   22  S   UNL     1     -11.455  13.064  68.016  1.00  0.00    -0.332 SA 
HETATM   23  C   UNL     1      -8.674  13.036  67.923  1.00  0.00    -0.189 C  
HETATM   24  C   UNL     1     -11.662  12.145  66.431  1.00  0.00    -0.324 C  
ENDBRANCH   9  12
ENDBRANCH   1   8
BRANCH   1  25
HETATM   25  N   UNL     1      -8.049   8.041  69.625  1.00  0.00    -0.117 N  
HETATM   26  H   UNL     1      -7.856   7.316  68.934  1.00  0.00     0.000 HD 
BRANCH  25  27
HETATM   27  C   UNL     1      -7.217   8.185  70.714  1.00  0.00    -0.050 C  
HETATM   28  O   UNL     1      -6.185   8.851  70.676  1.00  0.00    -0.035 OA 
BRANCH  27  29
HETATM   29  N   UNL     1      -7.642   7.568  71.882  1.00  0.00    -0.082 N  
HETATM   30  C   UNL     1      -7.849   8.335  73.098  1.00  0.00    -0.131 C  
HETATM   31  C   UNL     1      -8.441   7.349  74.094  1.00  0.00    -0.202 C  
HETATM   32  C   UNL     1      -8.201   6.294  72.026  1.00  0.00    -0.110 C  
HETATM   33  O   UNL     1      -8.261   5.421  71.177  1.00  0.00    -0.114 OA 
HETATM   34  N   UNL     1      -8.678   6.165  73.319  1.00  0.00    -0.124 NA 
ENDBRANCH  27  29
ENDBRANCH  25  27
ENDBRANCH   1  25
TORSDOF 6
ENDMDL
MODEL      111
REMARK 921   NORMALIZED FREE ENERGY PREDICTED BY IDOCK:   -4.86 KCAL/MOL
REMARK 922        TOTAL FREE ENERGY PREDICTED BY IDOCK:   -8.65 KCAL/MOL
REMARK 923 INTER-LIGAND FREE ENERGY PREDICTED BY IDOCK:   -7.20 KCAL/MOL
REMARK 924 INTRA-LIGAND FREE ENERGY PREDICTED BY IDOCK:   -1.45 KCAL/MOL
REMARK 927      BINDING AFFINITY PREDICTED BY RF-SCORE:    0.00 PKD
ROOT
HETATM    1  CA  UNL     1      -9.471  10.110  66.545  1.00  0.00    -0.169 C  
ENDROOT
BRANCH   1   2
HETATM    2  C   UNL     1     -10.353  11.094  65.772  1.00  0.00    -0.316 A  
HETATM    3  C   UNL     1     -11.353  11.739  63.650  1.00  0.00    -0.525 A  
HETATM    4  C   UNL     1     -12.230  12.595  64.312  1.00  0.00    -0.524 A  
HETATM    5  C   UNL     1     -12.127  12.759  65.690  1.00  0.00    -0.514 A  
HETATM    6  C   UNL     1     -10.417  10.997  64.372  1.00  0.00    -0.422 A  
HETATM    7  C   UNL     1     -11.187  12.024  66.414  1.00  0.00    -0.389 A  
ENDBRANCH   1   2
BRANCH   1   8
HETATM    8  C   UNL     1      -9.690  10.295  68.100  1.00  0.00    -0.143 C  
HETATM    9  N   UNL     1     -10.374   9.279  68.741  1.00  0.00    -0.206 N  
HETATM   10  H   UNL     1     -10.678   8.490  68.171  1.00  0.00     0.000 HD 
HETATM   11  O   UNL     1      -9.284  11.282  68.714  1.00  0.00    -0.182 OA 
BRANCH   9  12
HETATM   12  CA  UNL     1     -10.711   9.237  70.214  1.00  0.00    -0.243 C  
HETATM   13  N   UNL     1     -10.272   7.651  71.595  1.00  0.00    -0.184 N  
HETATM   14  CA  UNL     1      -9.647   6.301  71.480  1.00  0.00    -0.155 C  
HETATM   15  C   UNL     1     -10.374   5.311  72.416  1.00  0.00    -0.209 C  
HETATM   16  O   UNL     1      -8.446   9.096  71.479  1.00  0.00    -0.333 OA 
HETATM   17  C   UNL     1      -9.702   5.917  69.985  1.00  0.00    -0.167 C  
HETATM   18  OXT UNL     1     -10.271   4.094  72.370  1.00  0.00    -0.171 OA 
HETATM   19  O   UNL     1     -11.076   5.914  73.408  1.00  0.00    -0.238 OA 
HETATM   20  C   UNL     1      -9.580   8.779  71.208  1.00  0.00    -0.253 C  
HETATM   21  C   UNL     1      -9.611   4.434  69.618  1.00  0.00    -0.275 C  
HETATM   22  S   UNL     1     -11.346   6.560  69.423  1.00  0.00    -0.272 SA 
HETATM   23  C   UNL     1      -8.574   6.593  69.184  1.00  0.00    -0.130 C  
HETATM   24  C   UNL     1     -11.399   7.915  70.672  1.00  0.00    -0.259 C  
ENDBRANCH   9  12
ENDBRANCH   1   8
BRANCH   1  25
HETATM   25  N   UNL     1      -8.071  10.187  66.117  1.00  0.00    -0.119 N  
HETATM   26  H   UNL     1      -7.650  11.096  65.923  1.00  0.00     0.000 HD 
BRANCH  25  27
HETATM   27  C   UNL     1      -7.319   9.042  65.974  1.00  0.00    -0.094 C  
HETATM   28  O   UNL     1      -6.664   8.560  66.897  1.00  0.00    -0.060 OA 
BRANCH  27  29
HETATM   29  N   UNL     1      -7.383   8.430  64.730  1.00  0.00    -0.085 N  
HETATM   30  C   UNL     1      -7.827   7.054  64.599  1.00  0.00    -0.123 C  
HETATM   31  C   UNL     1      -7.897   6.801  63.100  1.00  0.00    -0.105 C  
HETATM   32  C   UNL     1      -7.347   9.038  63.472  1.00  0.00    -0.097 C  
HETATM   33  O   UNL     1      -7.081  10.203  63.229  1.00  0.00    -0.132 OA 
HETATM   34  N   UNL     1      -7.656   8.088  62.514  1.00  0.00    -0.109 NA 
ENDBRANCH  27  29
ENDBRANCH  25  27
ENDBRANCH   1  25
TORSDOF 6
ENDMDL
MODEL      112
REMARK 921   NORMALIZED FREE ENERGY PREDICTED BY IDOCK:   -4.84 KCAL/MOL
REMARK 922        TOTAL FREE ENERGY PREDICTED BY IDOCK:   -8.63 KCAL/MOL
REMARK 923 INTER-LIGAND FREE ENERGY PREDICTED BY IDOCK:   -7.24 KCAL/MOL
REMARK 924 INTRA-LIGAND FREE ENERGY PREDICTED BY IDOCK:   -1.39 KCAL/MOL
REMARK 927      BINDING AFFINITY PREDICTED BY RF-SCORE:    0.00 PKD
ROOT
HETATM    1  CA  UNL     1     -10.738  11.406  67.640  1.00  0.00    -0.216 C  
ENDROOT
BRANCH   1   2
HETATM    2  C   UNL     1     -11.045  11.998  66.261  1.00  0.00    -0.363 A  
HETATM    3  C   UNL     1     -10.287  12.442  63.993  1.00  0.00    -0.435 A  
HETATM    4  C   UNL     1     -11.596  12.707  63.597  1.00  0.00    -0.575 A  
HETATM    5  C   UNL     1     -12.620  12.690  64.538  1.00  0.00    -0.491 A  
HETATM    6  C   UNL     1     -10.011  12.095  65.316  1.00  0.00    -0.260 A  
HETATM    7  C   UNL     1     -12.346  12.351  65.864  1.00  0.00    -0.028 A  
ENDBRANCH   1   2
BRANCH   1   8
HETATM    8  C   UNL     1     -10.839  12.531  68.745  1.00  0.00    -0.239 C  
HETATM    9  N   UNL     1      -9.931  13.569  68.639  1.00  0.00    -0.366 N  
HETATM   10  H   UNL     1      -9.275  13.535  67.859  1.00  0.00     0.000 HD 
HETATM   11  O   UNL     1     -11.669  12.496  69.653  1.00  0.00    -0.300 OA 
BRANCH   9  12
HETATM   12  CA  UNL     1      -9.827  14.749  69.578  1.00  0.00     0.012 C  
HETATM   13  N   UNL     1     -10.314  16.795  69.140  1.00  0.00    -0.313 N  
HETATM   14  CA  UNL     1     -10.772  17.529  67.925  1.00  0.00    -0.339 C  
HETATM   15  C   UNL     1     -10.104  18.921  67.876  1.00  0.00    -0.371 C  
HETATM   16  O   UNL     1     -12.237  15.682  69.848  1.00  0.00    -0.362 OA 
HETATM   17  C   UNL     1     -10.444  16.626  66.715  1.00  0.00    -0.261 C  
HETATM   18  OXT UNL     1     -10.074  19.653  66.898  1.00  0.00    -0.357 OA 
HETATM   19  O   UNL     1      -9.632  19.341  69.077  1.00  0.00    -0.399 OA 
HETATM   20  C   UNL     1     -11.048  15.740  69.640  1.00  0.00    -0.307 C  
HETATM   21  C   UNL     1     -10.324  17.281  65.337  1.00  0.00     0.006 C  
HETATM   22  S   UNL     1      -8.806  15.878  67.154  1.00  0.00    -0.221 SA 
HETATM   23  C   UNL     1     -11.495  15.514  66.536  1.00  0.00     0.080 C  
HETATM   24  C   UNL     1      -9.089  15.981  68.972  1.00  0.00    -0.242 C  
ENDBRANCH   9  12
ENDBRANCH   1   8
BRANCH   1  25
HETATM   25  N   UNL     1      -9.472  10.667  67.641  1.00  0.00    -0.153 N  
HETATM   26  H   UNL     1      -9.056  10.374  66.757  1.00  0.00     0.000 HD 
BRANCH  25  27
HETATM   27  C   UNL     1      -8.840  10.365  68.827  1.00  0.00    -0.157 C  
HETATM   28  O   UNL     1      -9.432   9.878  69.788  1.00  0.00    -0.210 OA 
BRANCH  27  29
HETATM   29  N   UNL     1      -7.472  10.598  68.857  1.00  0.00    -0.099 N  
HETATM   30  C   UNL     1      -6.949  11.937  69.064  1.00  0.00    -0.098 C  
HETATM   31  C   UNL     1      -5.442  11.761  69.177  1.00  0.00    -0.048 C  
HETATM   32  C   UNL     1      -6.445   9.661  69.000  1.00  0.00    -0.045 C  
HETATM   33  O   UNL     1      -6.549   8.447  68.954  1.00  0.00    -0.051 OA 
HETATM   34  N   UNL     1      -5.254  10.339  69.196  1.00  0.00    -0.039 NA 
ENDBRANCH  27  29
ENDBRANCH  25  27
ENDBRANCH   1  25
TORSDOF 6
ENDMDL
MODEL      113
REMARK 921   NORMALIZED FREE ENERGY PREDICTED BY IDOCK:   -4.83 KCAL/MOL
REMARK 922        TOTAL FREE ENERGY PREDICTED BY IDOCK:   -8.61 KCAL/MOL
REMARK 923 INTER-LIGAND FREE ENERGY PREDICTED BY IDOCK:   -6.72 KCAL/MOL
REMARK 924 INTRA-LIGAND FREE ENERGY PREDICTED BY IDOCK:   -1.89 KCAL/MOL
REMARK 927      BINDING AFFINITY PREDICTED BY RF-SCORE:    0.00 PKD
ROOT
HETATM    1  CA  UNL     1      -8.251  13.566  67.493  1.00  0.00    -0.183 C  
ENDROOT
BRANCH   1   2
HETATM    2  C   UNL     1      -7.343  14.678  68.027  1.00  0.00    -0.142 A  
HETATM    3  C   UNL     1      -6.355  16.875  67.688  1.00  0.00    -0.166 A  
HETATM    4  C   UNL     1      -6.011  16.939  69.036  1.00  0.00    -0.166 A  
HETATM    5  C   UNL     1      -6.264  15.853  69.867  1.00  0.00    -0.157 A  
HETATM    6  C   UNL     1      -7.011  15.751  67.184  1.00  0.00    -0.204 A  
HETATM    7  C   UNL     1      -6.914  14.724  69.364  1.00  0.00    -0.167 A  
ENDBRANCH   1   2
BRANCH   1   8
HETATM    8  C   UNL     1      -7.418  12.237  67.298  1.00  0.00    -0.147 C  
HETATM    9  N   UNL     1      -8.115  11.055  67.463  1.00  0.00    -0.115 N  
HETATM   10  H   UNL     1      -9.107  11.127  67.689  1.00  0.00     0.000 HD 
HETATM   11  O   UNL     1      -6.219  12.240  67.019  1.00  0.00    -0.154 OA 
BRANCH   9  12
HETATM   12  CA  UNL     1      -7.536   9.664  67.337  1.00  0.00    -0.091 C  
HETATM   13  N   UNL     1      -8.258   7.873  68.279  1.00  0.00    -0.123 N  
HETATM   14  CA  UNL     1      -9.354   7.561  69.241  1.00  0.00    -0.151 C  
HETATM   15  C   UNL     1      -8.884   6.470  70.227  1.00  0.00    -0.151 C  
HETATM   16  O   UNL     1      -9.391   8.194  66.266  1.00  0.00    -0.195 OA 
HETATM   17  C   UNL     1      -9.743   8.897  69.913  1.00  0.00    -0.177 C  
HETATM   18  OXT UNL     1      -9.444   6.178  71.274  1.00  0.00    -0.162 OA 
HETATM   19  O   UNL     1      -7.825   5.749  69.778  1.00  0.00    -0.091 OA 
HETATM   20  C   UNL     1      -8.537   8.479  67.071  1.00  0.00    -0.121 C  
HETATM   21  C   UNL     1     -10.456   8.843  71.266  1.00  0.00    -0.357 C  
HETATM   22  S   UNL     1      -8.123   9.767  70.137  1.00  0.00    -0.144 SA 
HETATM   23  C   UNL     1     -10.668   9.736  69.011  1.00  0.00    -0.238 C  
HETATM   24  C   UNL     1      -7.320   8.938  68.700  1.00  0.00    -0.077 C  
ENDBRANCH   9  12
ENDBRANCH   1   8
BRANCH   1  25
HETATM   25  N   UNL     1      -8.990  13.998  66.303  1.00  0.00    -0.484 N  
HETATM   26  H   UNL     1      -8.495  14.143  65.423  1.00  0.00     0.000 HD 
BRANCH  25  27
HETATM   27  C   UNL     1     -10.350  14.209  66.364  1.00  0.00    -0.287 C  
HETATM   28  O   UNL     1     -10.867  14.969  67.181  1.00  0.00    -0.300 OA 
BRANCH  27  29
HETATM   29  N   UNL     1     -11.107  13.545  65.409  1.00  0.00    -0.289 N  
HETATM   30  C   UNL     1     -11.960  14.279  64.491  1.00  0.00    -0.462 C  
HETATM   31  C   UNL     1     -12.497  13.233  63.525  1.00  0.00    -0.248 C  
HETATM   32  C   UNL     1     -10.973  12.222  64.975  1.00  0.00    -0.302 C  
HETATM   33  O   UNL     1     -10.277  11.355  65.476  1.00  0.00    -0.242 OA 
HETATM   34  N   UNL     1     -11.780  12.037  63.866  1.00  0.00    -0.426 NA 
ENDBRANCH  27  29
ENDBRANCH  25  27
ENDBRANCH   1  25
TORSDOF 6
ENDMDL
MODEL      114
REMARK 921   NORMALIZED FREE ENERGY PREDICTED BY IDOCK:   -4.82 KCAL/MOL
REMARK 922        TOTAL FREE ENERGY PREDICTED BY IDOCK:   -8.61 KCAL/MOL
REMARK 923 INTER-LIGAND FREE ENERGY PREDICTED BY IDOCK:   -7.52 KCAL/MOL
REMARK 924 INTRA-LIGAND FREE ENERGY PREDICTED BY IDOCK:   -1.08 KCAL/MOL
REMARK 927      BINDING AFFINITY PREDICTED BY RF-SCORE:    0.00 PKD
ROOT
HETATM    1  CA  UNL     1      -9.929   9.675  66.927  1.00  0.00    -0.212 C  
ENDROOT
BRANCH   1   2
HETATM    2  C   UNL     1     -10.551  10.836  66.146  1.00  0.00    -0.241 A  
HETATM    3  C   UNL     1     -11.011  11.857  63.986  1.00  0.00    -0.445 A  
HETATM    4  C   UNL     1     -11.955  12.696  64.573  1.00  0.00    -0.464 A  
HETATM    5  C   UNL     1     -12.151  12.662  65.950  1.00  0.00    -0.459 A  
HETATM    6  C   UNL     1     -10.310  10.937  64.766  1.00  0.00    -0.391 A  
HETATM    7  C   UNL     1     -11.445  11.747  66.734  1.00  0.00    -0.352 A  
ENDBRANCH   1   2
BRANCH   1   8
HETATM    8  C   UNL     1      -9.779  10.069  68.451  1.00  0.00    -0.146 C  
HETATM    9  N   UNL     1     -10.431   9.251  69.355  1.00  0.00    -0.214 N  
HETATM   10  H   UNL     1     -10.949   8.458  68.977  1.00  0.00     0.000 HD 
HETATM   11  O   UNL     1      -9.128  11.044  68.823  1.00  0.00    -0.172 OA 
BRANCH   9  12
HETATM   12  CA  UNL     1     -10.442   9.430  70.856  1.00  0.00    -0.310 C  
HETATM   13  N   UNL     1      -9.869   7.980  72.334  1.00  0.00    -0.221 N  
HETATM   14  CA  UNL     1      -9.418   6.558  72.292  1.00  0.00    -0.143 C  
HETATM   15  C   UNL     1     -10.017   5.788  73.489  1.00  0.00    -0.180 C  
HETATM   16  O   UNL     1      -7.980   9.160  71.643  1.00  0.00    -0.342 OA 
HETATM   17  C   UNL     1      -9.835   6.006  70.911  1.00  0.00    -0.184 C  
HETATM   18  OXT UNL     1     -10.045   4.571  73.600  1.00  0.00    -0.142 OA 
HETATM   19  O   UNL     1     -10.425   6.590  74.505  1.00  0.00    -0.275 OA 
HETATM   20  C   UNL     1      -9.172   8.957  71.656  1.00  0.00    -0.231 C  
HETATM   21  C   UNL     1      -9.970   4.490  70.751  1.00  0.00    -0.269 C  
HETATM   22  S   UNL     1     -11.491   6.778  70.606  1.00  0.00    -0.371 SA 
HETATM   23  C   UNL     1      -8.848   6.434  69.809  1.00  0.00    -0.142 C  
HETATM   24  C   UNL     1     -11.139   8.270  71.631  1.00  0.00    -0.265 C  
ENDBRANCH   9  12
ENDBRANCH   1   8
BRANCH   1  25
HETATM   25  N   UNL     1      -8.692   9.204  66.299  1.00  0.00    -0.135 N  
HETATM   26  H   UNL     1      -8.259   9.753  65.556  1.00  0.00     0.000 HD 
BRANCH  25  27
HETATM   27  C   UNL     1      -8.108   8.023  66.704  1.00  0.00    -0.103 C  
HETATM   28  O   UNL     1      -7.165   7.987  67.492  1.00  0.00    -0.084 OA 
BRANCH  27  29
HETATM   29  N   UNL     1      -8.683   6.864  66.204  1.00  0.00    -0.142 N  
HETATM   30  C   UNL     1      -7.877   5.865  65.525  1.00  0.00    -0.103 C  
HETATM   31  C   UNL     1      -8.823   4.702  65.262  1.00  0.00    -0.145 C  
HETATM   32  C   UNL     1      -9.943   6.334  66.499  1.00  0.00    -0.115 C  
HETATM   33  O   UNL     1     -10.840   6.881  67.119  1.00  0.00    -0.329 OA 
HETATM   34  N   UNL     1     -10.027   5.064  65.955  1.00  0.00    -0.195 NA 
ENDBRANCH  27  29
ENDBRANCH  25  27
ENDBRANCH   1  25
TORSDOF 6
ENDMDL
MODEL      115
REMARK 921   NORMALIZED FREE ENERGY PREDICTED BY IDOCK:   -4.82 KCAL/MOL
REMARK 922        TOTAL FREE ENERGY PREDICTED BY IDOCK:   -8.60 KCAL/MOL
REMARK 923 INTER-LIGAND FREE ENERGY PREDICTED BY IDOCK:   -7.82 KCAL/MOL
REMARK 924 INTRA-LIGAND FREE ENERGY PREDICTED BY IDOCK:   -0.78 KCAL/MOL
REMARK 927      BINDING AFFINITY PREDICTED BY RF-SCORE:    0.00 PKD
ROOT
HETATM    1  CA  UNL     1      -7.782  11.916  67.301  1.00  0.00    -0.164 C  
ENDROOT
BRANCH   1   2
HETATM    2  C   UNL     1      -8.156  10.582  67.955  1.00  0.00    -0.107 A  
HETATM    3  C   UNL     1      -8.152   8.153  67.832  1.00  0.00    -0.128 A  
HETATM    4  C   UNL     1      -8.448   8.073  69.191  1.00  0.00    -0.136 A  
HETATM    5  C   UNL     1      -8.668   9.238  69.919  1.00  0.00    -0.189 A  
HETATM    6  C   UNL     1      -8.013   9.397  67.216  1.00  0.00    -0.106 A  
HETATM    7  C   UNL     1      -8.536  10.484  69.304  1.00  0.00    -0.136 A  
ENDBRANCH   1   2
BRANCH   1   8
HETATM    8  C   UNL     1      -7.624  13.033  68.408  1.00  0.00    -0.133 C  
HETATM    9  N   UNL     1      -8.546  14.063  68.367  1.00  0.00    -0.174 N  
HETATM   10  H   UNL     1      -9.257  14.022  67.637  1.00  0.00     0.000 HD 
HETATM   11  O   UNL     1      -6.736  13.002  69.260  1.00  0.00    -0.109 OA 
BRANCH   9  12
HETATM   12  CA  UNL     1      -8.592  15.243  69.310  1.00  0.00    -0.236 C  
HETATM   13  N   UNL     1      -9.729  17.050  69.064  1.00  0.00    -0.245 N  
HETATM   14  CA  UNL     1     -10.623  17.592  68.000  1.00  0.00    -0.384 C  
HETATM   15  C   UNL     1     -10.411  19.115  67.869  1.00  0.00    -0.414 C  
HETATM   16  O   UNL     1     -11.056  15.443  70.111  1.00  0.00    -0.261 OA 
HETATM   17  C   UNL     1     -10.310  16.795  66.714  1.00  0.00    -0.293 C  
HETATM   18  OXT UNL     1     -10.799  19.803  66.936  1.00  0.00    -0.472 OA 
HETATM   19  O   UNL     1      -9.838  19.682  68.961  1.00  0.00    -0.431 OA 
HETATM   20  C   UNL     1     -10.005  15.839  69.663  1.00  0.00    -0.284 C  
HETATM   21  C   UNL     1     -10.677  17.425  65.368  1.00  0.00    -0.040 C  
HETATM   22  S   UNL     1      -8.472  16.565  66.773  1.00  0.00    -0.267 SA 
HETATM   23  C   UNL     1     -11.009  15.423  66.713  1.00  0.00    -0.282 C  
HETATM   24  C   UNL     1      -8.384  16.623  68.614  1.00  0.00    -0.246 C  
ENDBRANCH   9  12
ENDBRANCH   1   8
BRANCH   1  25
HETATM   25  N   UNL     1      -8.705  12.263  66.217  1.00  0.00    -0.408 N  
HETATM   26  H   UNL     1      -8.342  12.663  65.351  1.00  0.00     0.000 HD 
BRANCH  25  27
HETATM   27  C   UNL     1     -10.059  12.054  66.357  1.00  0.00    -0.218 C  
HETATM   28  O   UNL     1     -10.629  12.110  67.445  1.00  0.00    -0.219 OA 
BRANCH  27  29
HETATM   29  N   UNL     1     -10.758  11.822  65.181  1.00  0.00    -0.282 N  
HETATM   30  C   UNL     1     -12.064  12.418  64.960  1.00  0.00    -0.407 C  
HETATM   31  C   UNL     1     -12.430  12.055  63.529  1.00  0.00    -0.540 C  
HETATM   32  C   UNL     1     -10.270  11.296  63.982  1.00  0.00    -0.348 C  
HETATM   33  O   UNL     1      -9.178  10.783  63.798  1.00  0.00    -0.214 OA 
HETATM   34  N   UNL     1     -11.243  11.438  63.008  1.00  0.00     0.054 NA 
ENDBRANCH  27  29
ENDBRANCH  25  27
ENDBRANCH   1  25
TORSDOF 6
ENDMDL
MODEL      116
REMARK 921   NORMALIZED FREE ENERGY PREDICTED BY IDOCK:   -4.79 KCAL/MOL
REMARK 922        TOTAL FREE ENERGY PREDICTED BY IDOCK:   -8.56 KCAL/MOL
REMARK 923 INTER-LIGAND FREE ENERGY PREDICTED BY IDOCK:   -7.46 KCAL/MOL
REMARK 924 INTRA-LIGAND FREE ENERGY PREDICTED BY IDOCK:   -1.10 KCAL/MOL
REMARK 927      BINDING AFFINITY PREDICTED BY RF-SCORE:    0.00 PKD
ROOT
HETATM    1  CA  UNL     1     -10.057  15.291  68.636  1.00  0.00    -0.222 C  
ENDROOT
BRANCH   1   2
HETATM    2  C   UNL     1     -11.071  15.229  69.781  1.00  0.00    -0.293 A  
HETATM    3  C   UNL     1     -12.582  13.877  71.126  1.00  0.00    -0.446 A  
HETATM    4  C   UNL     1     -12.659  14.892  72.077  1.00  0.00    -0.398 A  
HETATM    5  C   UNL     1     -12.006  16.100  71.854  1.00  0.00    -0.583 A  
HETATM    6  C   UNL     1     -11.799  14.045  69.984  1.00  0.00    -0.388 A  
HETATM    7  C   UNL     1     -11.227  16.273  70.708  1.00  0.00    -0.293 A  
ENDBRANCH   1   2
BRANCH   1   8
HETATM    8  C   UNL     1      -8.717  14.569  69.062  1.00  0.00    -0.040 C  
HETATM    9  N   UNL     1      -8.470  13.347  68.464  1.00  0.00    -0.303 N  
HETATM   10  H   UNL     1      -9.160  13.009  67.793  1.00  0.00     0.000 HD 
HETATM   11  O   UNL     1      -7.933  15.053  69.878  1.00  0.00    -0.094 OA 
BRANCH   9  12
HETATM   12  CA  UNL     1      -7.266  12.469  68.716  1.00  0.00    -0.089 C  
HETATM   13  N   UNL     1      -6.824  10.583  67.787  1.00  0.00    -0.073 N  
HETATM   14  CA  UNL     1      -7.526   9.705  66.807  1.00  0.00    -0.094 C  
HETATM   15  C   UNL     1      -7.301   8.224  67.183  1.00  0.00    -0.088 C  
HETATM   16  O   UNL     1      -5.991  12.309  66.457  1.00  0.00    -0.112 OA 
HETATM   17  C   UNL     1      -9.008  10.141  66.808  1.00  0.00    -0.132 C  
HETATM   18  OXT UNL     1      -7.937   7.280  66.737  1.00  0.00    -0.113 OA 
HETATM   19  O   UNL     1      -6.228   8.023  67.989  1.00  0.00    -0.044 OA 
HETATM   20  C   UNL     1      -6.512  11.887  67.463  1.00  0.00    -0.111 C  
HETATM   21  C   UNL     1     -10.054   9.141  66.310  1.00  0.00    -0.319 C  
HETATM   22  S   UNL     1      -9.356  10.518  68.589  1.00  0.00    -0.180 SA 
HETATM   23  C   UNL     1      -9.228  11.403  65.954  1.00  0.00    -0.231 C  
HETATM   24  C   UNL     1      -7.613  10.972  68.978  1.00  0.00    -0.134 C  
ENDBRANCH   9  12
ENDBRANCH   1   8
BRANCH   1  25
HETATM   25  N   UNL     1      -9.878  16.662  68.147  1.00  0.00    -0.244 N  
HETATM   26  H   UNL     1     -10.183  17.448  68.721  1.00  0.00     0.000 HD 
BRANCH  25  27
HETATM   27  C   UNL     1      -9.301  16.896  66.918  1.00  0.00    -0.241 C  
HETATM   28  O   UNL     1      -8.142  17.288  66.795  1.00  0.00    -0.211 OA 
BRANCH  27  29
HETATM   29  N   UNL     1     -10.095  16.614  65.816  1.00  0.00    -0.309 N  
HETATM   30  C   UNL     1     -10.476  15.249  65.501  1.00  0.00    -0.374 C  
HETATM   31  C   UNL     1     -11.446  15.365  64.334  1.00  0.00    -0.255 C  
HETATM   32  C   UNL     1     -10.863  17.505  65.061  1.00  0.00     0.407 C  
HETATM   33  O   UNL     1     -10.845  18.723  65.124  1.00  0.00    -0.523 OA 
HETATM   34  N   UNL     1     -11.662  16.777  64.196  1.00  0.00    -0.931 NA 
ENDBRANCH  27  29
ENDBRANCH  25  27
ENDBRANCH   1  25
TORSDOF 6
ENDMDL
MODEL      117
REMARK 921   NORMALIZED FREE ENERGY PREDICTED BY IDOCK:   -4.78 KCAL/MOL
REMARK 922        TOTAL FREE ENERGY PREDICTED BY IDOCK:   -8.55 KCAL/MOL
REMARK 923 INTER-LIGAND FREE ENERGY PREDICTED BY IDOCK:   -7.05 KCAL/MOL
REMARK 924 INTRA-LIGAND FREE ENERGY PREDICTED BY IDOCK:   -1.50 KCAL/MOL
REMARK 927      BINDING AFFINITY PREDICTED BY RF-SCORE:    0.00 PKD
ROOT
HETATM    1  CA  UNL     1      -9.702  10.219  65.095  1.00  0.00    -0.300 C  
ENDROOT
BRANCH   1   2
HETATM    2  C   UNL     1      -9.727  10.335  66.623  1.00  0.00    -0.233 A  
HETATM    3  C   UNL     1     -10.758   9.675  68.724  1.00  0.00    -0.234 A  
HETATM    4  C   UNL     1      -9.659  10.163  69.428  1.00  0.00    -0.249 A  
HETATM    5  C   UNL     1      -8.628  10.800  68.745  1.00  0.00    -0.156 A  
HETATM    6  C   UNL     1     -10.795   9.765  67.333  1.00  0.00    -0.265 A  
HETATM    7  C   UNL     1      -8.666  10.897  67.353  1.00  0.00    -0.130 A  
ENDBRANCH   1   2
BRANCH   1   8
HETATM    8  C   UNL     1      -8.780   9.011  64.661  1.00  0.00    -0.135 C  
HETATM    9  N   UNL     1      -8.539   8.053  65.629  1.00  0.00    -0.163 N  
HETATM   10  H   UNL     1      -8.976   8.192  66.540  1.00  0.00     0.000 HD 
HETATM   11  O   UNL     1      -8.295   8.918  63.533  1.00  0.00    -0.178 OA 
BRANCH   9  12
HETATM   12  CA  UNL     1      -7.685   6.818  65.454  1.00  0.00    -0.100 C  
HETATM   13  N   UNL     1      -8.006   4.888  66.342  1.00  0.00    -0.106 N  
HETATM   14  CA  UNL     1      -9.000   4.326  67.302  1.00  0.00    -0.124 C  
HETATM   15  C   UNL     1      -8.300   3.327  68.249  1.00  0.00    -0.078 C  
HETATM   16  O   UNL     1      -9.209   5.027  64.349  1.00  0.00    -0.055 OA 
HETATM   17  C   UNL     1      -9.649   5.531  68.019  1.00  0.00    -0.125 C  
HETATM   18  OXT UNL     1      -8.772   2.894  69.289  1.00  0.00    -0.067 OA 
HETATM   19  O   UNL     1      -7.121   2.856  67.769  1.00  0.00    -0.048 OA 
HETATM   20  C   UNL     1      -8.421   5.459  65.157  1.00  0.00    -0.150 C  
HETATM   21  C   UNL     1     -10.317   5.289  69.375  1.00  0.00    -0.313 C  
HETATM   22  S   UNL     1      -8.243   6.713  68.260  1.00  0.00    -0.114 SA 
HETATM   23  C   UNL     1     -10.740   6.186  67.152  1.00  0.00    -0.422 C  
HETATM   24  C   UNL     1      -7.304   6.112  66.791  1.00  0.00    -0.079 C  
ENDBRANCH   9  12
ENDBRANCH   1   8
BRANCH   1  25
HETATM   25  N   UNL     1      -9.366  11.497  64.462  1.00  0.00    -0.413 N  
HETATM   26  H   UNL     1      -8.389  11.739  64.297  1.00  0.00     0.000 HD 
BRANCH  25  27
HETATM   27  C   UNL     1     -10.359  12.374  64.087  1.00  0.00    -0.382 C  
HETATM   28  O   UNL     1     -10.945  12.291  63.009  1.00  0.00    -0.271 OA 
BRANCH  27  29
HETATM   29  N   UNL     1     -10.699  13.337  65.027  1.00  0.00    -0.316 N  
HETATM   30  C   UNL     1     -10.124  14.669  64.971  1.00  0.00    -0.282 C  
HETATM   31  C   UNL     1     -10.840  15.458  66.058  1.00  0.00    -0.314 C  
HETATM   32  C   UNL     1     -11.776  13.324  65.918  1.00  0.00    -0.365 C  
HETATM   33  O   UNL     1     -12.520  12.387  66.154  1.00  0.00    -0.507 OA 
HETATM   34  N   UNL     1     -11.867  14.568  66.519  1.00  0.00    -0.377 NA 
ENDBRANCH  27  29
ENDBRANCH  25  27
ENDBRANCH   1  25
TORSDOF 6
ENDMDL
MODEL      118
REMARK 921   NORMALIZED FREE ENERGY PREDICTED BY IDOCK:   -4.77 KCAL/MOL
REMARK 922        TOTAL FREE ENERGY PREDICTED BY IDOCK:   -8.54 KCAL/MOL
REMARK 923 INTER-LIGAND FREE ENERGY PREDICTED BY IDOCK:   -7.02 KCAL/MOL
REMARK 924 INTRA-LIGAND FREE ENERGY PREDICTED BY IDOCK:   -1.51 KCAL/MOL
REMARK 927      BINDING AFFINITY PREDICTED BY RF-SCORE:    0.00 PKD
ROOT
HETATM    1  CA  UNL     1     -11.590  14.658  68.592  1.00  0.00    -0.314 C  
ENDROOT
BRANCH   1   2
HETATM    2  C   UNL     1     -12.358  14.086  69.788  1.00  0.00    -0.344 A  
HETATM    3  C   UNL     1     -12.726  12.216  71.299  1.00  0.00    -0.363 A  
HETATM    4  C   UNL     1     -13.415  13.048  72.178  1.00  0.00    -0.638 A  
HETATM    5  C   UNL     1     -13.640  14.378  71.837  1.00  0.00    -0.491 A  
HETATM    6  C   UNL     1     -12.205  12.728  70.110  1.00  0.00    -0.320 A  
HETATM    7  C   UNL     1     -13.127  14.891  70.645  1.00  0.00    -0.363 A  
ENDBRANCH   1   2
BRANCH   1   8
HETATM    8  C   UNL     1     -11.570  13.606  67.412  1.00  0.00    -0.356 C  
HETATM    9  N   UNL     1     -10.358  12.985  67.174  1.00  0.00    -0.242 N  
HETATM   10  H   UNL     1      -9.576  13.243  67.776  1.00  0.00     0.000 HD 
HETATM   11  O   UNL     1     -12.566  13.349  66.736  1.00  0.00    -0.193 OA 
BRANCH   9  12
HETATM   12  CA  UNL     1     -10.091  11.956  66.099  1.00  0.00    -0.228 C  
HETATM   13  N   UNL     1      -8.937  10.154  66.294  1.00  0.00    -0.146 N  
HETATM   14  CA  UNL     1      -8.134   9.534  67.387  1.00  0.00    -0.110 C  
HETATM   15  C   UNL     1      -6.877   8.863  66.791  1.00  0.00    -0.076 C  
HETATM   16  O   UNL     1     -11.137   9.731  66.942  1.00  0.00    -0.041 OA 
HETATM   17  C   UNL     1      -7.832  10.658  68.402  1.00  0.00    -0.113 C  
HETATM   18  OXT UNL     1      -5.905   8.494  67.433  1.00  0.00    -0.042 OA 
HETATM   19  O   UNL     1      -6.978   8.598  65.464  1.00  0.00    -0.076 OA 
HETATM   20  C   UNL     1     -10.273  10.440  66.480  1.00  0.00    -0.229 C  
HETATM   21  C   UNL     1      -6.640  10.477  69.345  1.00  0.00    -0.069 C  
HETATM   22  S   UNL     1      -7.518  12.142  67.338  1.00  0.00    -0.161 SA 
HETATM   23  C   UNL     1      -9.033  10.923  69.328  1.00  0.00     0.012 C  
HETATM   24  C   UNL     1      -8.591  11.555  65.960  1.00  0.00    -0.046 C  
ENDBRANCH   9  12
ENDBRANCH   1   8
BRANCH   1  25
HETATM   25  N   UNL     1     -10.268  15.152  68.986  1.00  0.00    -0.232 N  
HETATM   26  H   UNL     1      -9.584  14.509  69.383  1.00  0.00     0.000 HD 
BRANCH  25  27
HETATM   27  C   UNL     1      -9.942  16.481  68.823  1.00  0.00    -0.255 C  
HETATM   28  O   UNL     1     -10.601  17.391  69.322  1.00  0.00    -0.302 OA 
BRANCH  27  29
HETATM   29  N   UNL     1      -8.786  16.733  68.096  1.00  0.00    -0.217 N  
HETATM   30  C   UNL     1      -8.855  17.278  66.752  1.00  0.00    -0.247 C  
HETATM   31  C   UNL     1      -7.410  17.544  66.357  1.00  0.00    -0.299 C  
HETATM   32  C   UNL     1      -7.473  16.808  68.571  1.00  0.00    -0.213 C  
HETATM   33  O   UNL     1      -7.078  16.498  69.682  1.00  0.00    -0.169 OA 
HETATM   34  N   UNL     1      -6.664  17.291  67.557  1.00  0.00    -0.143 NA 
ENDBRANCH  27  29
ENDBRANCH  25  27
ENDBRANCH   1  25
TORSDOF 6
ENDMDL
MODEL      119
REMARK 921   NORMALIZED FREE ENERGY PREDICTED BY IDOCK:   -4.75 KCAL/MOL
REMARK 922        TOTAL FREE ENERGY PREDICTED BY IDOCK:   -8.50 KCAL/MOL
REMARK 923 INTER-LIGAND FREE ENERGY PREDICTED BY IDOCK:   -6.77 KCAL/MOL
REMARK 924 INTRA-LIGAND FREE ENERGY PREDICTED BY IDOCK:   -1.73 KCAL/MOL
REMARK 927      BINDING AFFINITY PREDICTED BY RF-SCORE:    0.00 PKD
ROOT
HETATM    1  CA  UNL     1     -10.553   9.128  71.126  1.00  0.00    -0.309 C  
ENDROOT
BRANCH   1   2
HETATM    2  C   UNL     1      -9.402   8.627  72.004  1.00  0.00    -0.362 A  
HETATM    3  C   UNL     1      -7.006   8.556  72.419  1.00  0.00    -0.081 A  
HETATM    4  C   UNL     1      -7.234   8.094  73.713  1.00  0.00    -0.186 A  
HETATM    5  C   UNL     1      -8.534   7.829  74.134  1.00  0.00    -0.303 A  
HETATM    6  C   UNL     1      -8.081   8.816  71.567  1.00  0.00    -0.174 A  
HETATM    7  C   UNL     1      -9.610   8.082  73.282  1.00  0.00    -0.322 A  
ENDBRANCH   1   2
BRANCH   1   8
HETATM    8  C   UNL     1     -11.271   7.905  70.428  1.00  0.00    -0.234 C  
HETATM    9  N   UNL     1     -10.669   7.423  69.281  1.00  0.00    -0.308 N  
HETATM   10  H   UNL     1      -9.811   7.883  68.977  1.00  0.00     0.000 HD 
HETATM   11  O   UNL     1     -12.306   7.404  70.868  1.00  0.00    -0.285 OA 
BRANCH   9  12
HETATM   12  CA  UNL     1     -11.171   6.273  68.438  1.00  0.00    -0.172 C  
HETATM   13  N   UNL     1     -10.084   5.216  66.915  1.00  0.00    -0.201 N  
HETATM   14  CA  UNL     1      -8.729   5.350  66.307  1.00  0.00    -0.125 C  
HETATM   15  C   UNL     1      -8.805   5.042  64.796  1.00  0.00    -0.128 C  
HETATM   16  O   UNL     1      -9.645   4.243  68.989  1.00  0.00    -0.165 OA 
HETATM   17  C   UNL     1      -8.237   6.776  66.639  1.00  0.00    -0.115 C  
HETATM   18  OXT UNL     1      -7.935   5.305  63.979  1.00  0.00    -0.098 OA 
HETATM   19  O   UNL     1      -9.903   4.329  64.440  1.00  0.00    -0.160 OA 
HETATM   20  C   UNL     1     -10.227   5.023  68.273  1.00  0.00    -0.073 C  
HETATM   21  C   UNL     1      -7.142   7.385  65.760  1.00  0.00    -0.065 C  
HETATM   22  S   UNL     1      -9.762   7.817  66.483  1.00  0.00    -0.159 SA 
HETATM   23  C   UNL     1      -7.688   6.866  68.075  1.00  0.00    -0.113 C  
HETATM   24  C   UNL     1     -10.913   6.443  66.910  1.00  0.00    -0.341 C  
ENDBRANCH   9  12
ENDBRANCH   1   8
BRANCH   1  25
HETATM   25  N   UNL     1     -10.113  10.179  70.205  1.00  0.00    -0.409 N  
HETATM   26  H   UNL     1      -9.116  10.320  70.036  1.00  0.00     0.000 HD 
BRANCH  25  27
HETATM   27  C   UNL     1     -11.033  10.978  69.564  1.00  0.00    -0.243 C  
HETATM   28  O   UNL     1     -12.114  11.279  70.068  1.00  0.00    -0.306 OA 
BRANCH  27  29
HETATM   29  N   UNL     1     -10.647  11.469  68.325  1.00  0.00    -0.191 N  
HETATM   30  C   UNL     1     -11.617  12.062  67.422  1.00  0.00    -0.318 C  
HETATM   31  C   UNL     1     -10.799  12.601  66.257  1.00  0.00    -0.273 C  
HETATM   32  C   UNL     1      -9.351  11.753  67.880  1.00  0.00    -0.184 C  
HETATM   33  O   UNL     1      -8.306  11.462  68.437  1.00  0.00    -0.141 OA 
HETATM   34  N   UNL     1      -9.436  12.424  66.673  1.00  0.00    -0.227 NA 
ENDBRANCH  27  29
ENDBRANCH  25  27
ENDBRANCH   1  25
TORSDOF 6
ENDMDL
MODEL      120
REMARK 921   NORMALIZED FREE ENERGY PREDICTED BY IDOCK:   -4.74 KCAL/MOL
REMARK 922        TOTAL FREE ENERGY PREDICTED BY IDOCK:   -8.50 KCAL/MOL
REMARK 923 INTER-LIGAND FREE ENERGY PREDICTED BY IDOCK:   -7.44 KCAL/MOL
REMARK 924 INTRA-LIGAND FREE ENERGY PREDICTED BY IDOCK:   -1.06 KCAL/MOL
REMARK 927      BINDING AFFINITY PREDICTED BY RF-SCORE:    0.00 PKD
ROOT
HETATM    1  CA  UNL     1      -9.497  15.640  68.711  1.00  0.00    -0.214 C  
ENDROOT
BRANCH   1   2
HETATM    2  C   UNL     1     -10.687  15.231  69.585  1.00  0.00    -0.289 A  
HETATM    3  C   UNL     1     -12.335  13.538  70.163  1.00  0.00    -0.345 A  
HETATM    4  C   UNL     1     -12.622  14.209  71.350  1.00  0.00    -0.445 A  
HETATM    5  C   UNL     1     -12.000  15.422  71.626  1.00  0.00    -0.454 A  
HETATM    6  C   UNL     1     -11.379  14.047  69.283  1.00  0.00    -0.318 A  
HETATM    7  C   UNL     1     -11.048  15.937  70.744  1.00  0.00    -0.352 A  
ENDBRANCH   1   2
BRANCH   1   8
HETATM    8  C   UNL     1      -8.236  14.756  69.068  1.00  0.00    -0.141 C  
HETATM    9  N   UNL     1      -8.280  13.440  68.647  1.00  0.00    -0.318 N  
HETATM   10  H   UNL     1      -9.110  13.141  68.136  1.00  0.00     0.000 HD 
HETATM   11  O   UNL     1      -7.269  15.199  69.687  1.00  0.00    -0.187 OA 
BRANCH   9  12
HETATM   12  CA  UNL     1      -7.202  12.404  68.877  1.00  0.00    -0.061 C  
HETATM   13  N   UNL     1      -6.924  10.567  67.798  1.00  0.00    -0.077 N  
HETATM   14  CA  UNL     1      -7.660   9.869  66.705  1.00  0.00    -0.103 C  
HETATM   15  C   UNL     1      -7.631   8.345  66.950  1.00  0.00    -0.091 C  
HETATM   16  O   UNL     1      -5.817  12.290  66.682  1.00  0.00    -0.241 OA 
HETATM   17  C   UNL     1      -9.079  10.479  66.671  1.00  0.00    -0.155 C  
HETATM   18  OXT UNL     1      -8.342   7.528  66.386  1.00  0.00    -0.115 OA 
HETATM   19  O   UNL     1      -6.640   7.946  67.788  1.00  0.00    -0.057 OA 
HETATM   20  C   UNL     1      -6.444  11.847  67.615  1.00  0.00    -0.089 C  
HETATM   21  C   UNL     1     -10.200   9.660  66.028  1.00  0.00    -0.255 C  
HETATM   22  S   UNL     1      -9.492  10.738  68.459  1.00  0.00    -0.187 SA 
HETATM   23  C   UNL     1      -9.098  11.828  65.929  1.00  0.00    -0.128 C  
HETATM   24  C   UNL     1      -7.735  10.942  68.979  1.00  0.00    -0.135 C  
ENDBRANCH   9  12
ENDBRANCH   1   8
BRANCH   1  25
HETATM   25  N   UNL     1      -9.259  17.085  68.765  1.00  0.00    -0.265 N  
HETATM   26  H   UNL     1      -8.738  17.484  69.546  1.00  0.00     0.000 HD 
BRANCH  25  27
HETATM   27  C   UNL     1      -9.733  17.909  67.768  1.00  0.00    -0.283 C  
HETATM   28  O   UNL     1     -10.897  17.871  67.375  1.00  0.00    -0.339 OA 
BRANCH  27  29
HETATM   29  N   UNL     1      -8.824  18.828  67.262  1.00  0.00    -0.272 N  
HETATM   30  C   UNL     1      -8.659  20.131  67.880  1.00  0.00    -0.205 C  
HETATM   31  C   UNL     1      -7.494  20.776  67.144  1.00  0.00    -0.312 C  
HETATM   32  C   UNL     1      -7.779  18.595  66.363  1.00  0.00    -0.268 C  
HETATM   33  O   UNL     1      -7.576  17.576  65.724  1.00  0.00    -0.514 OA 
HETATM   34  N   UNL     1      -6.992  19.732  66.297  1.00  0.00    -0.223 NA 
ENDBRANCH  27  29
ENDBRANCH  25  27
ENDBRANCH   1  25
TORSDOF 6
ENDMDL
MODEL      121
REMARK 921   NORMALIZED FREE ENERGY PREDICTED BY IDOCK:   -4.71 KCAL/MOL
REMARK 922        TOTAL FREE ENERGY PREDICTED BY IDOCK:   -8.45 KCAL/MOL
REMARK 923 INTER-LIGAND FREE ENERGY PREDICTED BY IDOCK:   -7.12 KCAL/MOL
REMARK 924 INTRA-LIGAND FREE ENERGY PREDICTED BY IDOCK:   -1.33 KCAL/MOL
REMARK 927      BINDING AFFINITY PREDICTED BY RF-SCORE:    0.00 PKD
ROOT
HETATM    1  CA  UNL     1     -10.034   7.693  72.117  1.00  0.00    -0.183 C  
ENDROOT
BRANCH   1   2
HETATM    2  C   UNL     1     -11.561   7.809  72.089  1.00  0.00    -0.367 A  
HETATM    3  C   UNL     1     -13.526   9.218  72.349  1.00  0.00    -0.526 A  
HETATM    4  C   UNL     1     -14.311   8.257  71.717  1.00  0.00    -0.574 A  
HETATM    5  C   UNL     1     -13.746   7.045  71.333  1.00  0.00    -0.307 A  
HETATM    6  C   UNL     1     -12.162   8.995  72.539  1.00  0.00    -0.234 A  
HETATM    7  C   UNL     1     -12.383   6.816  71.530  1.00  0.00    -0.407 A  
ENDBRANCH   1   2
BRANCH   1   8
HETATM    8  C   UNL     1      -9.389   8.854  71.260  1.00  0.00    -0.266 C  
HETATM    9  N   UNL     1     -10.030   9.160  70.074  1.00  0.00    -0.188 N  
HETATM   10  H   UNL     1     -10.867   8.624  69.845  1.00  0.00     0.000 HD 
HETATM   11  O   UNL     1      -8.375   9.455  71.614  1.00  0.00    -0.233 OA 
BRANCH   9  12
HETATM   12  CA  UNL     1      -9.598  10.220  69.086  1.00  0.00    -0.218 C  
HETATM   13  N   UNL     1      -9.441  10.012  66.953  1.00  0.00    -0.161 N  
HETATM   14  CA  UNL     1      -9.631   8.888  65.990  1.00  0.00    -0.250 C  
HETATM   15  C   UNL     1      -8.577   8.983  64.867  1.00  0.00    -0.180 C  
HETATM   16  O   UNL     1     -11.624  10.616  67.508  1.00  0.00    -0.482 OA 
HETATM   17  C   UNL     1      -9.562   7.585  66.816  1.00  0.00    -0.206 C  
HETATM   18  OXT UNL     1      -8.307   8.090  64.077  1.00  0.00    -0.098 OA 
HETATM   19  O   UNL     1      -8.027  10.217  64.738  1.00  0.00    -0.151 OA 
HETATM   20  C   UNL     1     -10.467  10.403  67.787  1.00  0.00    -0.226 C  
HETATM   21  C   UNL     1      -9.222   6.284  66.084  1.00  0.00    -0.143 C  
HETATM   22  S   UNL     1      -8.233   7.921  68.063  1.00  0.00    -0.127 SA 
HETATM   23  C   UNL     1     -10.893   7.298  67.536  1.00  0.00    -0.284 C  
HETATM   24  C   UNL     1      -8.511   9.743  68.075  1.00  0.00    -0.118 C  
ENDBRANCH   9  12
ENDBRANCH   1   8
BRANCH   1  25
HETATM   25  N   UNL     1      -9.588   6.346  71.747  1.00  0.00    -0.154 N  
HETATM   26  H   UNL     1      -9.570   6.071  70.764  1.00  0.00     0.000 HD 
BRANCH  25  27
HETATM   27  C   UNL     1      -9.194   5.450  72.715  1.00  0.00    -0.136 C  
HETATM   28  O   UNL     1      -8.833   5.802  73.836  1.00  0.00    -0.126 OA 
BRANCH  27  29
HETATM   29  N   UNL     1      -9.274   4.109  72.364  1.00  0.00    -0.114 N  
HETATM   30  C   UNL     1      -9.182   3.068  73.371  1.00  0.00    -0.085 C  
HETATM   31  C   UNL     1      -9.456   1.769  72.627  1.00  0.00    -0.077 C  
HETATM   32  C   UNL     1      -9.728   3.563  71.159  1.00  0.00    -0.167 C  
HETATM   33  O   UNL     1      -9.978   4.167  70.130  1.00  0.00    -0.209 OA 
HETATM   34  N   UNL     1      -9.844   2.192  71.312  1.00  0.00    -0.128 NA 
ENDBRANCH  27  29
ENDBRANCH  25  27
ENDBRANCH   1  25
TORSDOF 6
ENDMDL
MODEL      122
REMARK 921   NORMALIZED FREE ENERGY PREDICTED BY IDOCK:   -4.68 KCAL/MOL
REMARK 922        TOTAL FREE ENERGY PREDICTED BY IDOCK:   -8.41 KCAL/MOL
REMARK 923 INTER-LIGAND FREE ENERGY PREDICTED BY IDOCK:   -6.94 KCAL/MOL
REMARK 924 INTRA-LIGAND FREE ENERGY PREDICTED BY IDOCK:   -1.47 KCAL/MOL
REMARK 927      BINDING AFFINITY PREDICTED BY RF-SCORE:    0.00 PKD
ROOT
HETATM    1  CA  UNL     1      -9.017  10.686  68.373  1.00  0.00    -0.149 C  
ENDROOT
BRANCH   1   2
HETATM    2  C   UNL     1      -8.067   9.575  68.832  1.00  0.00    -0.096 A  
HETATM    3  C   UNL     1      -6.068   8.952  70.069  1.00  0.00    -0.037 A  
HETATM    4  C   UNL     1      -6.457   7.615  70.045  1.00  0.00    -0.034 A  
HETATM    5  C   UNL     1      -7.608   7.242  69.358  1.00  0.00    -0.097 A  
HETATM    6  C   UNL     1      -6.863   9.926  69.463  1.00  0.00    -0.065 A  
HETATM    7  C   UNL     1      -8.402   8.213  68.744  1.00  0.00    -0.126 A  
ENDBRANCH   1   2
BRANCH   1   8
HETATM    8  C   UNL     1      -8.215  11.780  67.562  1.00  0.00    -0.152 C  
HETATM    9  N   UNL     1      -8.209  13.052  68.103  1.00  0.00    -0.150 N  
HETATM   10  H   UNL     1      -8.711  13.188  68.980  1.00  0.00     0.000 HD 
HETATM   11  O   UNL     1      -7.630  11.529  66.509  1.00  0.00    -0.124 OA 
BRANCH   9  12
HETATM   12  CA  UNL     1      -7.522  14.260  67.508  1.00  0.00    -0.182 C  
HETATM   13  N   UNL     1      -8.097  16.317  67.737  1.00  0.00    -0.147 N  
HETATM   14  CA  UNL     1      -9.225  17.024  68.411  1.00  0.00    -0.259 C  
HETATM   15  C   UNL     1      -9.665  18.233  67.557  1.00  0.00    -0.300 C  
HETATM   16  O   UNL     1      -6.714  15.703  69.512  1.00  0.00    -0.164 OA 
HETATM   17  C   UNL     1     -10.331  15.971  68.637  1.00  0.00    -0.241 C  
HETATM   18  OXT UNL     1     -10.707  18.855  67.701  1.00  0.00    -0.432 OA 
HETATM   19  O   UNL     1      -8.724  18.645  66.670  1.00  0.00    -0.284 OA 
HETATM   20  C   UNL     1      -7.259  15.490  68.455  1.00  0.00    -0.114 C  
HETATM   21  C   UNL     1     -11.767  16.464  68.836  1.00  0.00    -0.059 C  
HETATM   22  S   UNL     1     -10.274  14.933  67.103  1.00  0.00    -0.247 SA 
HETATM   23  C   UNL     1     -10.039  15.096  69.870  1.00  0.00    -0.146 C  
HETATM   24  C   UNL     1      -8.486  15.251  66.787  1.00  0.00    -0.255 C  
ENDBRANCH   9  12
ENDBRANCH   1   8
BRANCH   1  25
HETATM   25  N   UNL     1      -9.807  11.215  69.488  1.00  0.00    -0.402 N  
HETATM   26  H   UNL     1      -9.336  11.557  70.326  1.00  0.00     0.000 HD 
BRANCH  25  27
HETATM   27  C   UNL     1     -11.182  11.256  69.414  1.00  0.00    -0.280 C  
HETATM   28  O   UNL     1     -11.779  11.820  68.499  1.00  0.00    -0.295 OA 
BRANCH  27  29
HETATM   29  N   UNL     1     -11.860  10.574  70.414  1.00  0.00    -0.311 N  
HETATM   30  C   UNL     1     -11.522   9.200  70.741  1.00  0.00    -0.282 C  
HETATM   31  C   UNL     1     -12.368   8.861  71.959  1.00  0.00    -0.390 C  
HETATM   32  C   UNL     1     -12.687  11.107  71.407  1.00  0.00    -0.418 C  
HETATM   33  O   UNL     1     -13.103  12.251  71.478  1.00  0.00    -0.379 OA 
HETATM   34  N   UNL     1     -12.981  10.108  72.320  1.00  0.00    -0.324 NA 
ENDBRANCH  27  29
ENDBRANCH  25  27
ENDBRANCH   1  25
TORSDOF 6
ENDMDL
MODEL      123
REMARK 921   NORMALIZED FREE ENERGY PREDICTED BY IDOCK:   -4.67 KCAL/MOL
REMARK 922        TOTAL FREE ENERGY PREDICTED BY IDOCK:   -8.40 KCAL/MOL
REMARK 923 INTER-LIGAND FREE ENERGY PREDICTED BY IDOCK:   -5.99 KCAL/MOL
REMARK 924 INTRA-LIGAND FREE ENERGY PREDICTED BY IDOCK:   -2.41 KCAL/MOL
REMARK 927      BINDING AFFINITY PREDICTED BY RF-SCORE:    0.00 PKD
ROOT
HETATM    1  CA  UNL     1      -8.994   5.785  70.107  1.00  0.00    -0.140 C  
ENDROOT
BRANCH   1   2
HETATM    2  C   UNL     1     -10.146   6.398  70.909  1.00  0.00    -0.218 A  
HETATM    3  C   UNL     1     -10.847   7.775  72.788  1.00  0.00    -0.438 A  
HETATM    4  C   UNL     1     -12.127   7.878  72.248  1.00  0.00    -0.363 A  
HETATM    5  C   UNL     1     -12.442   7.189  71.081  1.00  0.00    -0.400 A  
HETATM    6  C   UNL     1      -9.864   7.036  72.128  1.00  0.00    -0.168 A  
HETATM    7  C   UNL     1     -11.463   6.443  70.422  1.00  0.00    -0.458 A  
ENDBRANCH   1   2
BRANCH   1   8
HETATM    8  C   UNL     1      -7.919   6.895  69.772  1.00  0.00    -0.124 C  
HETATM    9  N   UNL     1      -8.269   7.800  68.788  1.00  0.00    -0.126 N  
HETATM   10  H   UNL     1      -9.188   7.691  68.360  1.00  0.00     0.000 HD 
HETATM   11  O   UNL     1      -6.831   6.958  70.344  1.00  0.00    -0.055 OA 
BRANCH   9  12
HETATM   12  CA  UNL     1      -7.408   8.939  68.292  1.00  0.00    -0.083 C  
HETATM   13  N   UNL     1      -7.927  11.023  68.237  1.00  0.00    -0.118 N  
HETATM   14  CA  UNL     1      -9.148  11.811  68.574  1.00  0.00    -0.144 C  
HETATM   15  C   UNL     1      -9.320  12.962  67.559  1.00  0.00    -0.190 C  
HETATM   16  O   UNL     1      -7.029  10.510  70.327  1.00  0.00    -0.211 OA 
HETATM   17  C   UNL     1     -10.323  10.809  68.602  1.00  0.00    -0.192 C  
HETATM   18  OXT UNL     1     -10.338  13.622  67.409  1.00  0.00    -0.242 OA 
HETATM   19  O   UNL     1      -8.180  13.278  66.894  1.00  0.00    -0.096 OA 
HETATM   20  C   UNL     1      -7.319  10.230  69.187  1.00  0.00    -0.096 C  
HETATM   21  C   UNL     1     -11.742  11.356  68.420  1.00  0.00    -0.373 C  
HETATM   22  S   UNL     1      -9.955   9.655  67.200  1.00  0.00    -0.208 SA 
HETATM   23  C   UNL     1     -10.368  10.025  69.927  1.00  0.00    -0.315 C  
HETATM   24  C   UNL     1      -8.130   9.898  67.297  1.00  0.00    -0.113 C  
ENDBRANCH   9  12
ENDBRANCH   1   8
BRANCH   1  25
HETATM   25  N   UNL     1      -9.483   5.043  68.941  1.00  0.00    -0.130 N  
HETATM   26  H   UNL     1     -10.418   5.228  68.578  1.00  0.00     0.000 HD 
BRANCH  25  27
HETATM   27  C   UNL     1      -8.688   4.098  68.331  1.00  0.00    -0.099 C  
HETATM   28  O   UNL     1      -7.984   3.315  68.965  1.00  0.00    -0.053 OA 
BRANCH  27  29
HETATM   29  N   UNL     1      -8.767   4.047  66.946  1.00  0.00    -0.112 N  
HETATM   30  C   UNL     1      -8.953   2.783  66.256  1.00  0.00    -0.143 C  
HETATM   31  C   UNL     1      -9.134   3.153  64.791  1.00  0.00    -0.140 C  
HETATM   32  C   UNL     1      -8.982   5.107  66.060  1.00  0.00    -0.140 C  
HETATM   33  O   UNL     1      -8.969   6.297  66.325  1.00  0.00    -0.148 OA 
HETATM   34  N   UNL     1      -9.205   4.587  64.796  1.00  0.00    -0.155 NA 
ENDBRANCH  27  29
ENDBRANCH  25  27
ENDBRANCH   1  25
TORSDOF 6
ENDMDL
MODEL      124
REMARK 921   NORMALIZED FREE ENERGY PREDICTED BY IDOCK:   -4.65 KCAL/MOL
REMARK 922        TOTAL FREE ENERGY PREDICTED BY IDOCK:   -8.38 KCAL/MOL
REMARK 923 INTER-LIGAND FREE ENERGY PREDICTED BY IDOCK:   -6.88 KCAL/MOL
REMARK 924 INTRA-LIGAND FREE ENERGY PREDICTED BY IDOCK:   -1.50 KCAL/MOL
REMARK 927      BINDING AFFINITY PREDICTED BY RF-SCORE:    0.00 PKD
ROOT
HETATM    1  CA  UNL     1      -9.808   9.457  65.727  1.00  0.00    -0.275 C  
ENDROOT
BRANCH   1   2
HETATM    2  C   UNL     1     -10.490  10.724  65.201  1.00  0.00    -0.299 A  
HETATM    3  C   UNL     1     -11.692  12.778  65.702  1.00  0.00    -0.443 A  
HETATM    4  C   UNL     1     -11.443  13.250  64.416  1.00  0.00    -0.416 A  
HETATM    5  C   UNL     1     -10.783  12.439  63.498  1.00  0.00    -0.473 A  
HETATM    6  C   UNL     1     -11.225  11.523  66.092  1.00  0.00    -0.265 A  
HETATM    7  C   UNL     1     -10.320  11.180  63.883  1.00  0.00    -0.441 A  
ENDBRANCH   1   2
BRANCH   1   8
HETATM    8  C   UNL     1      -8.921   9.806  66.988  1.00  0.00    -0.138 C  
HETATM    9  N   UNL     1      -8.916   8.868  68.004  1.00  0.00    -0.139 N  
HETATM   10  H   UNL     1      -9.474   8.026  67.863  1.00  0.00     0.000 HD 
HETATM   11  O   UNL     1      -8.272  10.848  67.075  1.00  0.00    -0.126 OA 
BRANCH   9  12
HETATM   12  CA  UNL     1      -8.155   8.982  69.305  1.00  0.00    -0.105 C  
HETATM   13  N   UNL     1      -8.639   8.035  71.172  1.00  0.00    -0.126 N  
HETATM   14  CA  UNL     1      -9.751   7.164  71.651  1.00  0.00    -0.159 C  
HETATM   15  C   UNL     1     -10.108   7.532  73.108  1.00  0.00    -0.308 C  
HETATM   16  O   UNL     1      -7.341   6.584  69.888  1.00  0.00    -0.081 OA 
HETATM   17  C   UNL     1     -10.913   7.344  70.649  1.00  0.00    -0.256 C  
HETATM   18  OXT UNL     1     -11.123   7.185  73.693  1.00  0.00    -0.191 OA 
HETATM   19  O   UNL     1      -9.123   8.201  73.758  1.00  0.00    -0.244 OA 
HETATM   20  C   UNL     1      -7.863   7.654  70.098  1.00  0.00    -0.097 C  
HETATM   21  C   UNL     1     -12.329   6.997  71.116  1.00  0.00    -0.423 C  
HETATM   22  S   UNL     1     -10.859   9.148  70.229  1.00  0.00    -0.255 SA 
HETATM   23  C   UNL     1     -10.699   6.504  69.376  1.00  0.00    -0.328 C  
HETATM   24  C   UNL     1      -9.050   9.309  70.540  1.00  0.00    -0.259 C  
ENDBRANCH   9  12
ENDBRANCH   1   8
BRANCH   1  25
HETATM   25  N   UNL     1      -9.096   8.746  64.662  1.00  0.00    -0.410 N  
HETATM   26  H   UNL     1      -9.622   8.293  63.915  1.00  0.00     0.000 HD 
BRANCH  25  27
HETATM   27  C   UNL     1      -7.719   8.684  64.663  1.00  0.00    -0.121 C  
HETATM   28  O   UNL     1      -7.018   9.532  64.115  1.00  0.00    -0.100 OA 
BRANCH  27  29
HETATM   29  N   UNL     1      -7.164   7.625  65.368  1.00  0.00    -0.063 N  
HETATM   30  C   UNL     1      -5.990   7.817  66.200  1.00  0.00    -0.038 C  
HETATM   31  C   UNL     1      -5.781   6.485  66.906  1.00  0.00    -0.013 C  
HETATM   32  C   UNL     1      -7.740   6.381  65.642  1.00  0.00    -0.094 C  
HETATM   33  O   UNL     1      -8.770   5.930  65.169  1.00  0.00    -0.129 OA 
HETATM   34  N   UNL     1      -6.937   5.713  66.550  1.00  0.00    -0.063 NA 
ENDBRANCH  27  29
ENDBRANCH  25  27
ENDBRANCH   1  25
TORSDOF 6
ENDMDL
MODEL      125
REMARK 921   NORMALIZED FREE ENERGY PREDICTED BY IDOCK:   -4.60 KCAL/MOL
REMARK 922        TOTAL FREE ENERGY PREDICTED BY IDOCK:   -8.31 KCAL/MOL
REMARK 923 INTER-LIGAND FREE ENERGY PREDICTED BY IDOCK:   -7.18 KCAL/MOL
REMARK 924 INTRA-LIGAND FREE ENERGY PREDICTED BY IDOCK:   -1.13 KCAL/MOL
REMARK 927      BINDING AFFINITY PREDICTED BY RF-SCORE:    0.00 PKD
ROOT
HETATM    1  CA  UNL     1      -9.844  10.196  66.671  1.00  0.00    -0.200 C  
ENDROOT
BRANCH   1   2
HETATM    2  C   UNL     1     -10.520  11.265  65.807  1.00  0.00    -0.310 A  
HETATM    3  C   UNL     1     -10.902  12.186  63.588  1.00  0.00    -0.523 A  
HETATM    4  C   UNL     1     -11.979  12.926  64.070  1.00  0.00    -0.521 A  
HETATM    5  C   UNL     1     -12.287  12.897  65.426  1.00  0.00    -0.538 A  
HETATM    6  C   UNL     1     -10.174  11.365  64.450  1.00  0.00    -0.361 A  
HETATM    7  C   UNL     1     -11.555  12.082  66.292  1.00  0.00    -0.378 A  
ENDBRANCH   1   2
BRANCH   1   8
HETATM    8  C   UNL     1     -10.330  10.326  68.169  1.00  0.00    -0.177 C  
HETATM    9  N   UNL     1     -10.662   9.143  68.804  1.00  0.00    -0.375 N  
HETATM   10  H   UNL     1     -10.563   8.283  68.266  1.00  0.00     0.000 HD 
HETATM   11  O   UNL     1     -10.416  11.409  68.747  1.00  0.00    -0.195 OA 
BRANCH   9  12
HETATM   12  CA  UNL     1     -11.158   9.015  70.226  1.00  0.00    -0.235 C  
HETATM   13  N   UNL     1     -10.605   7.511  71.657  1.00  0.00    -0.205 N  
HETATM   14  CA  UNL     1      -9.736   6.299  71.625  1.00  0.00    -0.161 C  
HETATM   15  C   UNL     1     -10.377   5.178  72.471  1.00  0.00    -0.204 C  
HETATM   16  O   UNL     1      -9.071   9.265  71.754  1.00  0.00    -0.303 OA 
HETATM   17  C   UNL     1      -9.543   5.937  70.135  1.00  0.00    -0.162 C  
HETATM   18  OXT UNL     1     -10.050   4.001  72.443  1.00  0.00    -0.164 OA 
HETATM   19  O   UNL     1     -11.291   5.627  73.369  1.00  0.00    -0.197 OA 
HETATM   20  C   UNL     1     -10.089   8.752  71.351  1.00  0.00    -0.284 C  
HETATM   21  C   UNL     1      -9.140   4.501  69.788  1.00  0.00    -0.166 C  
HETATM   22  S   UNL     1     -11.198   6.282  69.377  1.00  0.00    -0.365 SA 
HETATM   23  C   UNL     1      -8.470   6.820  69.472  1.00  0.00    -0.133 C  
HETATM   24  C   UNL     1     -11.644   7.583  70.604  1.00  0.00    -0.248 C  
ENDBRANCH   9  12
ENDBRANCH   1   8
BRANCH   1  25
HETATM   25  N   UNL     1      -8.388  10.208  66.503  1.00  0.00    -0.122 N  
HETATM   26  H   UNL     1      -7.944   9.530  65.883  1.00  0.00     0.000 HD 
BRANCH  25  27
HETATM   27  C   UNL     1      -7.614  11.128  67.175  1.00  0.00    -0.125 C  
HETATM   28  O   UNL     1      -7.669  12.335  66.945  1.00  0.00    -0.118 OA 
BRANCH  27  29
HETATM   29  N   UNL     1      -6.797  10.614  68.172  1.00  0.00    -0.067 N  
HETATM   30  C   UNL     1      -6.952  11.032  69.554  1.00  0.00    -0.126 C  
HETATM   31  C   UNL     1      -5.993  10.155  70.345  1.00  0.00    -0.092 C  
HETATM   32  C   UNL     1      -5.972   9.487  68.109  1.00  0.00    -0.047 C  
HETATM   33  O   UNL     1      -5.687   8.843  67.113  1.00  0.00    -0.044 OA 
HETATM   34  N   UNL     1      -5.505   9.209  69.382  1.00  0.00    -0.035 NA 
ENDBRANCH  27  29
ENDBRANCH  25  27
ENDBRANCH   1  25
TORSDOF 6
ENDMDL
MODEL      126
REMARK 921   NORMALIZED FREE ENERGY PREDICTED BY IDOCK:   -4.59 KCAL/MOL
REMARK 922        TOTAL FREE ENERGY PREDICTED BY IDOCK:   -8.29 KCAL/MOL
REMARK 923 INTER-LIGAND FREE ENERGY PREDICTED BY IDOCK:   -7.15 KCAL/MOL
REMARK 924 INTRA-LIGAND FREE ENERGY PREDICTED BY IDOCK:   -1.14 KCAL/MOL
REMARK 927      BINDING AFFINITY PREDICTED BY RF-SCORE:    0.00 PKD
ROOT
HETATM    1  CA  UNL     1      -9.380  11.893  66.510  1.00  0.00    -0.216 C  
ENDROOT
BRANCH   1   2
HETATM    2  C   UNL     1     -10.450  12.532  65.619  1.00  0.00    -0.299 A  
HETATM    3  C   UNL     1     -11.269  14.522  64.486  1.00  0.00    -0.302 A  
HETATM    4  C   UNL     1     -12.122  13.741  63.710  1.00  0.00    -0.385 A  
HETATM    5  C   UNL     1     -12.197  12.370  63.931  1.00  0.00    -0.603 A  
HETATM    6  C   UNL     1     -10.442  13.924  65.437  1.00  0.00    -0.357 A  
HETATM    7  C   UNL     1     -11.376  11.770  64.888  1.00  0.00    -0.299 A  
ENDBRANCH   1   2
BRANCH   1   8
HETATM    8  C   UNL     1      -9.005  10.460  65.958  1.00  0.00    -0.159 C  
HETATM    9  N   UNL     1      -9.331   9.392  66.774  1.00  0.00    -0.151 N  
HETATM   10  H   UNL     1      -9.790   9.605  67.659  1.00  0.00     0.000 HD 
HETATM   11  O   UNL     1      -8.453  10.291  64.871  1.00  0.00    -0.165 OA 
BRANCH   9  12
HETATM   12  CA  UNL     1      -9.065   7.936  66.468  1.00  0.00    -0.170 C  
HETATM   13  N   UNL     1      -9.203   6.282  67.833  1.00  0.00    -0.117 N  
HETATM   14  CA  UNL     1      -9.501   6.143  69.288  1.00  0.00    -0.133 C  
HETATM   15  C   UNL     1      -8.616   5.033  69.895  1.00  0.00    -0.098 C  
HETATM   16  O   UNL     1     -11.300   6.680  66.894  1.00  0.00    -0.333 OA 
HETATM   17  C   UNL     1      -9.287   7.538  69.916  1.00  0.00    -0.150 C  
HETATM   18  OXT UNL     1      -8.439   4.848  71.090  1.00  0.00    -0.113 OA 
HETATM   19  O   UNL     1      -8.117   4.169  68.975  1.00  0.00    -0.070 OA 
HETATM   20  C   UNL     1     -10.111   6.879  66.985  1.00  0.00    -0.221 C  
HETATM   21  C   UNL     1      -9.024   7.619  71.421  1.00  0.00    -0.144 C  
HETATM   22  S   UNL     1      -7.805   8.202  69.024  1.00  0.00    -0.110 SA 
HETATM   23  C   UNL     1     -10.498   8.459  69.675  1.00  0.00    -0.221 C  
HETATM   24  C   UNL     1      -8.120   7.232  67.489  1.00  0.00    -0.114 C  
ENDBRANCH   9  12
ENDBRANCH   1   8
BRANCH   1  25
HETATM   25  N   UNL     1      -9.769  11.916  67.923  1.00  0.00    -0.186 N  
HETATM   26  H   UNL     1      -9.054  11.842  68.647  1.00  0.00     0.000 HD 
BRANCH  25  27
HETATM   27  C   UNL     1     -11.094  12.037  68.281  1.00  0.00    -0.243 C  
HETATM   28  O   UNL     1     -11.922  11.155  68.064  1.00  0.00    -0.625 OA 
BRANCH  27  29
HETATM   29  N   UNL     1     -11.433  13.204  68.951  1.00  0.00    -0.278 N  
HETATM   30  C   UNL     1     -12.607  13.260  69.804  1.00  0.00     0.126 C  
HETATM   31  C   UNL     1     -12.556  14.632  70.460  1.00  0.00    -0.350 C  
HETATM   32  C   UNL     1     -10.633  14.330  69.172  1.00  0.00    -0.186 C  
HETATM   33  O   UNL     1      -9.547  14.566  68.670  1.00  0.00    -0.214 OA 
HETATM   34  N   UNL     1     -11.284  15.166  70.063  1.00  0.00    -0.261 NA 
ENDBRANCH  27  29
ENDBRANCH  25  27
ENDBRANCH   1  25
TORSDOF 6
ENDMDL
MODEL      127
REMARK 921   NORMALIZED FREE ENERGY PREDICTED BY IDOCK:   -4.58 KCAL/MOL
REMARK 922        TOTAL FREE ENERGY PREDICTED BY IDOCK:   -8.28 KCAL/MOL
REMARK 923 INTER-LIGAND FREE ENERGY PREDICTED BY IDOCK:   -7.03 KCAL/MOL
REMARK 924 INTRA-LIGAND FREE ENERGY PREDICTED BY IDOCK:   -1.26 KCAL/MOL
REMARK 927      BINDING AFFINITY PREDICTED BY RF-SCORE:    0.00 PKD
ROOT
HETATM    1  CA  UNL     1      -8.367  14.531  67.591  1.00  0.00    -0.180 C  
ENDROOT
BRANCH   1   2
HETATM    2  C   UNL     1      -7.346  15.605  67.980  1.00  0.00    -0.137 A  
HETATM    3  C   UNL     1      -6.022  17.531  67.306  1.00  0.00    -0.156 A  
HETATM    4  C   UNL     1      -5.772  17.839  68.642  1.00  0.00    -0.173 A  
HETATM    5  C   UNL     1      -6.244  16.998  69.645  1.00  0.00    -0.232 A  
HETATM    6  C   UNL     1      -6.798  16.420  66.976  1.00  0.00    -0.245 A  
HETATM    7  C   UNL     1      -7.014  15.881  69.317  1.00  0.00    -0.198 A  
ENDBRANCH   1   2
BRANCH   1   8
HETATM    8  C   UNL     1      -7.621  13.188  67.220  1.00  0.00    -0.080 C  
HETATM    9  N   UNL     1      -8.430  12.098  66.957  1.00  0.00    -0.181 N  
HETATM   10  H   UNL     1      -9.438  12.242  67.015  1.00  0.00     0.000 HD 
HETATM   11  O   UNL     1      -6.394  13.103  67.167  1.00  0.00    -0.257 OA 
BRANCH   9  12
HETATM   12  CA  UNL     1      -7.951  10.712  66.591  1.00  0.00    -0.134 C  
HETATM   13  N   UNL     1      -8.838   8.843  67.171  1.00  0.00    -0.123 N  
HETATM   14  CA  UNL     1      -9.988   8.449  68.035  1.00  0.00    -0.182 C  
HETATM   15  C   UNL     1      -9.636   7.163  68.814  1.00  0.00    -0.144 C  
HETATM   16  O   UNL     1      -9.869   9.612  65.226  1.00  0.00    -0.310 OA 
HETATM   17  C   UNL     1     -10.302   9.667  68.931  1.00  0.00    -0.203 C  
HETATM   18  OXT UNL     1     -10.254   6.732  69.776  1.00  0.00    -0.180 OA 
HETATM   19  O   UNL     1      -8.618   6.454  68.264  1.00  0.00    -0.115 OA 
HETATM   20  C   UNL     1      -9.026   9.677  66.089  1.00  0.00    -0.154 C  
HETATM   21  C   UNL     1     -11.066   9.426  70.235  1.00  0.00    -0.299 C  
HETATM   22  S   UNL     1      -8.632  10.352  69.348  1.00  0.00    -0.084 SA 
HETATM   23  C   UNL     1     -11.128  10.727  68.178  1.00  0.00    -0.337 C  
HETATM   24  C   UNL     1      -7.839   9.736  67.802  1.00  0.00    -0.094 C  
ENDBRANCH   9  12
ENDBRANCH   1   8
BRANCH   1  25
HETATM   25  N   UNL     1      -9.294  15.014  66.564  1.00  0.00    -0.264 N  
HETATM   26  H   UNL     1      -9.073  14.877  65.577  1.00  0.00     0.000 HD 
BRANCH  25  27
HETATM   27  C   UNL     1     -10.461  15.653  66.920  1.00  0.00    -0.307 C  
HETATM   28  O   UNL     1     -11.452  15.046  67.323  1.00  0.00    -0.342 OA 
BRANCH  27  29
HETATM   29  N   UNL     1     -10.438  17.038  66.844  1.00  0.00    -0.299 N  
HETATM   30  C   UNL     1     -10.750  17.722  65.601  1.00  0.00    -0.064 C  
HETATM   31  C   UNL     1     -10.759  19.202  65.953  1.00  0.00    -0.351 C  
HETATM   32  C   UNL     1     -10.426  17.956  67.899  1.00  0.00    -0.396 C  
HETATM   33  O   UNL     1     -10.263  17.709  69.082  1.00  0.00    -0.342 OA 
HETATM   34  N   UNL     1     -10.623  19.225  67.382  1.00  0.00    -0.465 NA 
ENDBRANCH  27  29
ENDBRANCH  25  27
ENDBRANCH   1  25
TORSDOF 6
ENDMDL
MODEL      128
REMARK 921   NORMALIZED FREE ENERGY PREDICTED BY IDOCK:   -4.58 KCAL/MOL
REMARK 922        TOTAL FREE ENERGY PREDICTED BY IDOCK:   -8.28 KCAL/MOL
REMARK 923 INTER-LIGAND FREE ENERGY PREDICTED BY IDOCK:   -7.31 KCAL/MOL
REMARK 924 INTRA-LIGAND FREE ENERGY PREDICTED BY IDOCK:   -0.97 KCAL/MOL
REMARK 927      BINDING AFFINITY PREDICTED BY RF-SCORE:    0.00 PKD
ROOT
HETATM    1  CA  UNL     1      -8.634  11.492  68.015  1.00  0.00    -0.150 C  
ENDROOT
BRANCH   1   2
HETATM    2  C   UNL     1      -7.702  10.422  68.592  1.00  0.00    -0.101 A  
HETATM    3  C   UNL     1      -5.979   8.753  68.189  1.00  0.00    -0.046 A  
HETATM    4  C   UNL     1      -5.691   8.707  69.550  1.00  0.00    -0.030 A  
HETATM    5  C   UNL     1      -6.447   9.459  70.443  1.00  0.00    -0.071 A  
HETATM    6  C   UNL     1      -6.981   9.600  67.712  1.00  0.00    -0.079 A  
HETATM    7  C   UNL     1      -7.455  10.302  69.970  1.00  0.00    -0.143 A  
ENDBRANCH   1   2
BRANCH   1   8
HETATM    8  C   UNL     1      -8.063  12.932  68.329  1.00  0.00    -0.151 C  
HETATM    9  N   UNL     1      -8.992  13.882  68.711  1.00  0.00    -0.371 N  
HETATM   10  H   UNL     1      -9.966  13.585  68.768  1.00  0.00     0.000 HD 
HETATM   11  O   UNL     1      -6.866  13.205  68.240  1.00  0.00    -0.082 OA 
BRANCH   9  12
HETATM   12  CA  UNL     1      -8.689  15.323  69.052  1.00  0.00    -0.226 C  
HETATM   13  N   UNL     1      -9.619  17.071  68.219  1.00  0.00    -0.263 N  
HETATM   14  CA  UNL     1     -10.646  17.313  67.164  1.00  0.00    -0.256 C  
HETATM   15  C   UNL     1     -10.280  18.582  66.364  1.00  0.00    -0.420 C  
HETATM   16  O   UNL     1     -10.881  16.319  70.030  1.00  0.00    -0.335 OA 
HETATM   17  C   UNL     1     -10.716  16.025  66.315  1.00  0.00    -0.234 C  
HETATM   18  OXT UNL     1     -10.770  18.903  65.291  1.00  0.00    -0.517 OA 
HETATM   19  O   UNL     1      -9.422  19.408  67.014  1.00  0.00    -0.304 OA 
HETATM   20  C   UNL     1      -9.909  16.283  69.312  1.00  0.00    -0.252 C  
HETATM   21  C   UNL     1     -11.280  16.126  64.896  1.00  0.00    -0.292 C  
HETATM   22  S   UNL     1      -8.951  15.472  66.206  1.00  0.00    -0.289 SA 
HETATM   23  C   UNL     1     -11.563  14.938  67.001  1.00  0.00    -0.314 C  
HETATM   24  C   UNL     1      -8.465  16.239  67.810  1.00  0.00    -0.163 C  
ENDBRANCH   9  12
ENDBRANCH   1   8
BRANCH   1  25
HETATM   25  N   UNL     1     -10.022  11.284  68.439  1.00  0.00    -0.191 N  
HETATM   26  H   UNL     1     -10.553  12.061  68.832  1.00  0.00     0.000 HD 
BRANCH  25  27
HETATM   27  C   UNL     1     -10.614  10.047  68.309  1.00  0.00    -0.226 C  
HETATM   28  O   UNL     1     -10.812   9.518  67.217  1.00  0.00    -0.251 OA 
BRANCH  27  29
HETATM   29  N   UNL     1     -10.934   9.405  69.497  1.00  0.00    -0.212 N  
HETATM   30  C   UNL     1     -11.797  10.038  70.478  1.00  0.00    -0.303 C  
HETATM   31  C   UNL     1     -12.023   8.981  71.550  1.00  0.00    -0.344 C  
HETATM   32  C   UNL     1     -10.773   8.052  69.811  1.00  0.00    -0.231 C  
HETATM   33  O   UNL     1     -10.165   7.217  69.163  1.00  0.00    -0.182 OA 
HETATM   34  N   UNL     1     -11.417   7.797  71.010  1.00  0.00    -0.279 NA 
ENDBRANCH  27  29
ENDBRANCH  25  27
ENDBRANCH   1  25
TORSDOF 6
ENDMDL
MODEL      129
REMARK 921   NORMALIZED FREE ENERGY PREDICTED BY IDOCK:   -4.56 KCAL/MOL
REMARK 922        TOTAL FREE ENERGY PREDICTED BY IDOCK:   -8.26 KCAL/MOL
REMARK 923 INTER-LIGAND FREE ENERGY PREDICTED BY IDOCK:   -7.23 KCAL/MOL
REMARK 924 INTRA-LIGAND FREE ENERGY PREDICTED BY IDOCK:   -1.03 KCAL/MOL
REMARK 927      BINDING AFFINITY PREDICTED BY RF-SCORE:    0.00 PKD
ROOT
HETATM    1  CA  UNL     1     -11.699  11.811  70.720  1.00  0.00     0.260 C  
ENDROOT
BRANCH   1   2
HETATM    2  C   UNL     1     -12.200  13.147  71.278  1.00  0.00    -0.073 A  
HETATM    3  C   UNL     1     -13.774  14.322  72.712  1.00  0.00    -0.456 A  
HETATM    4  C   UNL     1     -12.984  15.468  72.657  1.00  0.00    -0.542 A  
HETATM    5  C   UNL     1     -11.844  15.484  71.860  1.00  0.00    -0.514 A  
HETATM    6  C   UNL     1     -13.389  13.171  72.024  1.00  0.00    -0.587 A  
HETATM    7  C   UNL     1     -11.460  14.336  71.165  1.00  0.00     0.146 A  
ENDBRANCH   1   2
BRANCH   1   8
HETATM    8  C   UNL     1     -12.128  11.664  69.206  1.00  0.00    -0.259 C  
HETATM    9  N   UNL     1     -11.636  12.623  68.340  1.00  0.00    -0.306 N  
HETATM   10  H   UNL     1     -11.032  13.343  68.737  1.00  0.00     0.000 HD 
HETATM   11  O   UNL     1     -12.859  10.757  68.809  1.00  0.00     0.237 OA 
BRANCH   9  12
HETATM   12  CA  UNL     1     -11.914  12.697  66.856  1.00  0.00    -0.275 C  
HETATM   13  N   UNL     1     -11.324  14.262  65.507  1.00  0.00    -0.318 N  
HETATM   14  CA  UNL     1     -10.622  15.569  65.657  1.00  0.00    -0.373 C  
HETATM   15  C   UNL     1     -11.250  16.609  64.704  1.00  0.00    -0.015 C  
HETATM   16  O   UNL     1      -9.597  12.704  65.678  1.00  0.00    -0.190 OA 
HETATM   17  C   UNL     1     -10.709  15.946  67.153  1.00  0.00    -0.301 C  
HETATM   18  OXT UNL     1     -11.073  17.817  64.765  1.00  0.00    -0.852 OA 
HETATM   19  O   UNL     1     -11.950  16.057  63.681  1.00  0.00    -0.765 OA 
HETATM   20  C   UNL     1     -10.719  13.090  65.909  1.00  0.00    -0.276 C  
HETATM   21  C   UNL     1     -10.540  17.418  67.537  1.00  0.00    -0.330 C  
HETATM   22  S   UNL     1     -12.411  15.402  67.647  1.00  0.00     1.104 SA 
HETATM   23  C   UNL     1      -9.657  15.194  67.989  1.00  0.00    -0.204 C  
HETATM   24  C   UNL     1     -12.500  14.062  66.384  1.00  0.00    -0.355 C  
ENDBRANCH   9  12
ENDBRANCH   1   8
BRANCH   1  25
HETATM   25  N   UNL     1     -12.094  10.687  71.574  1.00  0.00    -0.249 N  
HETATM   26  H   UNL     1     -12.682  10.854  72.391  1.00  0.00     0.000 HD 
BRANCH  25  27
HETATM   27  C   UNL     1     -11.676   9.407  71.282  1.00  0.00    -0.360 C  
HETATM   28  O   UNL     1     -12.427   8.558  70.806  1.00  0.00    -0.081 OA 
BRANCH  27  29
HETATM   29  N   UNL     1     -10.333   9.144  71.512  1.00  0.00    -0.343 N  
HETATM   30  C   UNL     1      -9.905   8.449  72.713  1.00  0.00    -0.218 C  
HETATM   31  C   UNL     1      -8.410   8.226  72.531  1.00  0.00    -0.174 C  
HETATM   32  C   UNL     1      -9.278   9.200  70.596  1.00  0.00    -0.258 C  
HETATM   33  O   UNL     1      -9.314   9.656  69.465  1.00  0.00    -0.173 OA 
HETATM   34  N   UNL     1      -8.151   8.656  71.187  1.00  0.00    -0.132 NA 
ENDBRANCH  27  29
ENDBRANCH  25  27
ENDBRANCH   1  25
TORSDOF 6
ENDMDL
MODEL      130
REMARK 921   NORMALIZED FREE ENERGY PREDICTED BY IDOCK:   -4.54 KCAL/MOL
REMARK 922        TOTAL FREE ENERGY PREDICTED BY IDOCK:   -8.23 KCAL/MOL
REMARK 923 INTER-LIGAND FREE ENERGY PREDICTED BY IDOCK:   -6.54 KCAL/MOL
REMARK 924 INTRA-LIGAND FREE ENERGY PREDICTED BY IDOCK:   -1.69 KCAL/MOL
REMARK 927      BINDING AFFINITY PREDICTED BY RF-SCORE:    0.00 PKD
ROOT
HETATM    1  CA  UNL     1     -10.192  12.283  65.391  1.00  0.00    -0.270 C  
ENDROOT
BRANCH   1   2
HETATM    2  C   UNL     1      -9.982  11.465  66.669  1.00  0.00    -0.239 A  
HETATM    3  C   UNL     1      -8.643  11.055  68.658  1.00  0.00    -0.157 A  
HETATM    4  C   UNL     1      -9.678  10.305  69.213  1.00  0.00    -0.240 A  
HETATM    5  C   UNL     1     -10.835  10.072  68.476  1.00  0.00    -0.270 A  
HETATM    6  C   UNL     1      -8.790  11.627  67.394  1.00  0.00    -0.160 A  
HETATM    7  C   UNL     1     -10.981  10.637  67.207  1.00  0.00    -0.348 A  
ENDBRANCH   1   2
BRANCH   1   8
HETATM    8  C   UNL     1      -9.550  11.530  64.158  1.00  0.00    -0.157 C  
HETATM    9  N   UNL     1      -8.309  10.960  64.375  1.00  0.00    -0.373 N  
HETATM   10  H   UNL     1      -7.907  11.060  65.306  1.00  0.00     0.000 HD 
HETATM   11  O   UNL     1     -10.109  11.451  63.065  1.00  0.00    -0.335 OA 
BRANCH   9  12
HETATM   12  CA  UNL     1      -7.497  10.201  63.350  1.00  0.00    -0.139 C  
HETATM   13  N   UNL     1      -6.979   8.116  63.400  1.00  0.00    -0.083 N  
HETATM   14  CA  UNL     1      -7.199   7.001  64.366  1.00  0.00    -0.071 C  
HETATM   15  C   UNL     1      -5.951   6.092  64.403  1.00  0.00    -0.025 C  
HETATM   16  O   UNL     1      -9.066   8.366  62.389  1.00  0.00     0.108 OA 
HETATM   17  C   UNL     1      -7.546   7.657  65.721  1.00  0.00    -0.088 C  
HETATM   18  OXT UNL     1      -5.717   5.253  65.260  1.00  0.00    -0.013 OA 
HETATM   19  O   UNL     1      -5.155   6.214  63.311  1.00  0.00    -0.016 OA 
HETATM   20  C   UNL     1      -8.049   8.807  62.870  1.00  0.00    -0.174 C  
HETATM   21  C   UNL     1      -7.334   6.835  66.995  1.00  0.00    -0.082 C  
HETATM   22  S   UNL     1      -6.440   9.141  65.791  1.00  0.00    -0.064 SA 
HETATM   23  C   UNL     1      -9.020   8.100  65.776  1.00  0.00    -0.165 C  
HETATM   24  C   UNL     1      -6.352   9.335  63.960  1.00  0.00    -0.090 C  
ENDBRANCH   9  12
ENDBRANCH   1   8
BRANCH   1  25
HETATM   25  N   UNL     1      -9.742  13.668  65.557  1.00  0.00    -0.517 N  
HETATM   26  H   UNL     1      -8.748  13.869  65.665  1.00  0.00     0.000 HD 
BRANCH  25  27
HETATM   27  C   UNL     1     -10.653  14.702  65.567  1.00  0.00    -0.355 C  
HETATM   28  O   UNL     1     -11.480  14.865  64.672  1.00  0.00    -0.398 OA 
BRANCH  27  29
HETATM   29  N   UNL     1     -10.615  15.528  66.681  1.00  0.00    -0.304 N  
HETATM   30  C   UNL     1     -10.486  16.967  66.539  1.00  0.00    -0.253 C  
HETATM   31  C   UNL     1     -10.626  17.520  67.949  1.00  0.00    -0.390 C  
HETATM   32  C   UNL     1     -10.972  15.213  67.996  1.00  0.00    -0.295 C  
HETATM   33  O   UNL     1     -11.223  14.105  68.441  1.00  0.00    -0.244 OA 
HETATM   34  N   UNL     1     -10.989  16.379  68.740  1.00  0.00    -0.332 NA 
ENDBRANCH  27  29
ENDBRANCH  25  27
ENDBRANCH   1  25
TORSDOF 6
ENDMDL
MODEL      131
REMARK 921   NORMALIZED FREE ENERGY PREDICTED BY IDOCK:   -4.53 KCAL/MOL
REMARK 922        TOTAL FREE ENERGY PREDICTED BY IDOCK:   -8.21 KCAL/MOL
REMARK 923 INTER-LIGAND FREE ENERGY PREDICTED BY IDOCK:   -7.04 KCAL/MOL
REMARK 924 INTRA-LIGAND FREE ENERGY PREDICTED BY IDOCK:   -1.17 KCAL/MOL
REMARK 927      BINDING AFFINITY PREDICTED BY RF-SCORE:    0.00 PKD
ROOT
HETATM    1  CA  UNL     1      -8.108  13.402  67.444  1.00  0.00    -0.172 C  
ENDROOT
BRANCH   1   2
HETATM    2  C   UNL     1      -7.539  14.740  67.923  1.00  0.00    -0.149 A  
HETATM    3  C   UNL     1      -6.507  16.019  69.717  1.00  0.00    -0.164 A  
HETATM    4  C   UNL     1      -6.138  17.011  68.811  1.00  0.00    -0.152 A  
HETATM    5  C   UNL     1      -6.526  16.910  67.479  1.00  0.00    -0.170 A  
HETATM    6  C   UNL     1      -7.207  14.894  69.279  1.00  0.00    -0.172 A  
HETATM    7  C   UNL     1      -7.233  15.789  67.039  1.00  0.00    -0.208 A  
ENDBRANCH   1   2
BRANCH   1   8
HETATM    8  C   UNL     1      -6.934  12.370  67.206  1.00  0.00    -0.129 C  
HETATM    9  N   UNL     1      -7.276  11.033  67.289  1.00  0.00    -0.096 N  
HETATM   10  H   UNL     1      -8.251  10.813  67.489  1.00  0.00     0.000 HD 
HETATM   11  O   UNL     1      -5.781  12.723  66.963  1.00  0.00    -0.334 OA 
BRANCH   9  12
HETATM   12  CA  UNL     1      -6.329   9.869  67.108  1.00  0.00    -0.068 C  
HETATM   13  N   UNL     1      -6.835   7.876  66.485  1.00  0.00    -0.069 N  
HETATM   14  CA  UNL     1      -8.107   7.168  66.159  1.00  0.00    -0.121 C  
HETATM   15  C   UNL     1      -8.039   5.714  66.673  1.00  0.00    -0.105 C  
HETATM   16  O   UNL     1      -6.463   9.200  64.601  1.00  0.00    -0.073 OA 
HETATM   17  C   UNL     1      -9.247   8.007  66.778  1.00  0.00    -0.165 C  
HETATM   18  OXT UNL     1      -8.995   4.962  66.787  1.00  0.00    -0.110 OA 
HETATM   19  O   UNL     1      -6.774   5.272  66.892  1.00  0.00    -0.058 OA 
HETATM   20  C   UNL     1      -6.468   9.012  65.795  1.00  0.00    -0.064 C  
HETATM   21  C   UNL     1     -10.584   7.314  67.054  1.00  0.00    -0.415 C  
HETATM   22  S   UNL     1      -8.544   8.587  68.391  1.00  0.00    -0.139 SA 
HETATM   23  C   UNL     1      -9.604   9.218  65.897  1.00  0.00    -0.345 C  
HETATM   24  C   UNL     1      -6.798   8.553  67.801  1.00  0.00    -0.067 C  
ENDBRANCH   9  12
ENDBRANCH   1   8
BRANCH   1  25
HETATM   25  N   UNL     1      -9.005  13.576  66.297  1.00  0.00    -0.460 N  
HETATM   26  H   UNL     1      -8.617  13.635  65.356  1.00  0.00     0.000 HD 
BRANCH  25  27
HETATM   27  C   UNL     1     -10.367  13.659  66.482  1.00  0.00    -0.282 C  
HETATM   28  O   UNL     1     -10.872  14.003  67.549  1.00  0.00    -0.265 OA 
BRANCH  27  29
HETATM   29  N   UNL     1     -11.145  13.376  65.367  1.00  0.00    -0.285 N  
HETATM   30  C   UNL     1     -11.725  12.059  65.177  1.00  0.00    -0.255 C  
HETATM   31  C   UNL     1     -12.608  12.187  63.944  1.00  0.00    -0.438 C  
HETATM   32  C   UNL     1     -11.723  14.282  64.472  1.00  0.00    -0.418 C  
HETATM   33  O   UNL     1     -11.513  15.481  64.406  1.00  0.00    -0.374 OA 
HETATM   34  N   UNL     1     -12.588  13.590  63.642  1.00  0.00    -0.723 NA 
ENDBRANCH  27  29
ENDBRANCH  25  27
ENDBRANCH   1  25
TORSDOF 6
ENDMDL
MODEL      132
REMARK 921   NORMALIZED FREE ENERGY PREDICTED BY IDOCK:   -4.51 KCAL/MOL
REMARK 922        TOTAL FREE ENERGY PREDICTED BY IDOCK:   -8.19 KCAL/MOL
REMARK 923 INTER-LIGAND FREE ENERGY PREDICTED BY IDOCK:   -7.20 KCAL/MOL
REMARK 924 INTRA-LIGAND FREE ENERGY PREDICTED BY IDOCK:   -0.99 KCAL/MOL
REMARK 927      BINDING AFFINITY PREDICTED BY RF-SCORE:    0.00 PKD
ROOT
HETATM    1  CA  UNL     1      -9.916  12.708  67.806  1.00  0.00    -0.218 C  
ENDROOT
BRANCH   1   2
HETATM    2  C   UNL     1     -10.990  12.847  68.889  1.00  0.00    -0.271 A  
HETATM    3  C   UNL     1     -12.262  11.800  70.678  1.00  0.00    -0.443 A  
HETATM    4  C   UNL     1     -12.663  13.051  71.139  1.00  0.00    -0.372 A  
HETATM    5  C   UNL     1     -12.292  14.197  70.442  1.00  0.00    -0.428 A  
HETATM    6  C   UNL     1     -11.436  11.697  69.558  1.00  0.00    -0.371 A  
HETATM    7  C   UNL     1     -11.472  14.096  69.317  1.00  0.00    -0.337 A  
ENDBRANCH   1   2
BRANCH   1   8
HETATM    8  C   UNL     1      -8.665  13.604  68.169  1.00  0.00    -0.177 C  
HETATM    9  N   UNL     1      -8.341  14.591  67.256  1.00  0.00    -0.203 N  
HETATM   10  H   UNL     1      -8.931  14.672  66.429  1.00  0.00     0.000 HD 
HETATM   11  O   UNL     1      -8.008  13.441  69.197  1.00  0.00     0.144 OA 
BRANCH   9  12
HETATM   12  CA  UNL     1      -7.189  15.562  67.379  1.00  0.00    -0.209 C  
HETATM   13  N   UNL     1      -7.307  17.659  67.830  1.00  0.00    -0.186 N  
HETATM   14  CA  UNL     1      -8.423  18.624  68.056  1.00  0.00    -0.291 C  
HETATM   15  C   UNL     1      -8.061  19.990  67.434  1.00  0.00    -0.323 C  
HETATM   16  O   UNL     1      -7.237  16.448  69.822  1.00  0.00    -0.071 OA 
HETATM   17  C   UNL     1      -9.693  17.974  67.463  1.00  0.00    -0.289 C  
HETATM   18  OXT UNL     1      -8.850  20.901  67.229  1.00  0.00    -0.249 OA 
HETATM   19  O   UNL     1      -6.731  20.160  67.226  1.00  0.00    -0.209 OA 
HETATM   20  C   UNL     1      -7.183  16.534  68.617  1.00  0.00    -0.186 C  
HETATM   21  C   UNL     1     -10.863  18.887  67.088  1.00  0.00    -0.425 C  
HETATM   22  S   UNL     1      -9.085  17.137  65.925  1.00  0.00     0.138 SA 
HETATM   23  C   UNL     1     -10.296  16.930  68.422  1.00  0.00    -0.338 C  
HETATM   24  C   UNL     1      -7.378  16.882  66.572  1.00  0.00    -0.281 C  
ENDBRANCH   9  12
ENDBRANCH   1   8
BRANCH   1  25
HETATM   25  N   UNL     1     -10.464  12.946  66.467  1.00  0.00    -0.262 N  
HETATM   26  H   UNL     1     -11.175  13.665  66.331  1.00  0.00     0.000 HD 
BRANCH  25  27
HETATM   27  C   UNL     1     -10.027  12.206  65.391  1.00  0.00    -0.246 C  
HETATM   28  O   UNL     1     -10.107  12.610  64.233  1.00  0.00    -0.329 OA 
BRANCH  27  29
HETATM   29  N   UNL     1      -9.440  10.986  65.697  1.00  0.00    -0.208 N  
HETATM   30  C   UNL     1     -10.157   9.741  65.491  1.00  0.00    -0.172 C  
HETATM   31  C   UNL     1      -9.147   8.645  65.799  1.00  0.00    -0.187 C  
HETATM   32  C   UNL     1      -8.087  10.720  65.933  1.00  0.00    -0.148 C  
HETATM   33  O   UNL     1      -7.195  11.538  66.082  1.00  0.00     0.051 OA 
HETATM   34  N   UNL     1      -7.910   9.348  65.985  1.00  0.00    -0.099 NA 
ENDBRANCH  27  29
ENDBRANCH  25  27
ENDBRANCH   1  25
TORSDOF 6
ENDMDL
MODEL      133
REMARK 921   NORMALIZED FREE ENERGY PREDICTED BY IDOCK:   -4.48 KCAL/MOL
REMARK 922        TOTAL FREE ENERGY PREDICTED BY IDOCK:   -8.15 KCAL/MOL
REMARK 923 INTER-LIGAND FREE ENERGY PREDICTED BY IDOCK:   -7.39 KCAL/MOL
REMARK 924 INTRA-LIGAND FREE ENERGY PREDICTED BY IDOCK:   -0.76 KCAL/MOL
REMARK 927      BINDING AFFINITY PREDICTED BY RF-SCORE:    0.00 PKD
ROOT
HETATM    1  CA  UNL     1     -10.154  12.438  67.676  1.00  0.00    -0.198 C  
ENDROOT
BRANCH   1   2
HETATM    2  C   UNL     1     -10.827  12.153  66.330  1.00  0.00    -0.317 A  
HETATM    3  C   UNL     1     -12.530  12.766  64.706  1.00  0.00    -0.539 A  
HETATM    4  C   UNL     1     -11.907  11.980  63.740  1.00  0.00    -0.581 A  
HETATM    5  C   UNL     1     -10.789  11.225  64.079  1.00  0.00    -0.414 A  
HETATM    6  C   UNL     1     -11.999  12.849  65.993  1.00  0.00    -0.505 A  
HETATM    7  C   UNL     1     -10.259  11.300  65.369  1.00  0.00    -0.323 A  
ENDBRANCH   1   2
BRANCH   1   8
HETATM    8  C   UNL     1     -10.784  11.521  68.799  1.00  0.00    -0.211 C  
HETATM    9  N   UNL     1      -9.903  10.700  69.477  1.00  0.00    -0.413 N  
HETATM   10  H   UNL     1      -8.919  10.751  69.211  1.00  0.00     0.000 HD 
HETATM   11  O   UNL     1     -11.987  11.526  69.062  1.00  0.00    -0.325 OA 
BRANCH   9  12
HETATM   12  CA  UNL     1     -10.269   9.734  70.581  1.00  0.00    -0.220 C  
HETATM   13  N   UNL     1      -9.598   7.704  70.796  1.00  0.00    -0.166 N  
HETATM   14  CA  UNL     1      -8.743   6.789  69.986  1.00  0.00    -0.141 C  
HETATM   15  C   UNL     1      -9.312   5.355  70.051  1.00  0.00    -0.148 C  
HETATM   16  O   UNL     1      -8.051   9.136  71.795  1.00  0.00    -0.343 OA 
HETATM   17  C   UNL     1      -8.687   7.385  68.562  1.00  0.00    -0.127 C  
HETATM   18  OXT UNL     1      -8.996   4.438  69.307  1.00  0.00    -0.087 OA 
HETATM   19  O   UNL     1     -10.137   5.143  71.107  1.00  0.00    -0.201 OA 
HETATM   20  C   UNL     1      -9.104   8.911  71.246  1.00  0.00    -0.253 C  
HETATM   21  C   UNL     1      -8.327   6.452  67.403  1.00  0.00    -0.112 C  
HETATM   22  S   UNL     1     -10.402   8.029  68.285  1.00  0.00    -0.172 SA 
HETATM   23  C   UNL     1      -7.673   8.540  68.471  1.00  0.00    -0.103 C  
HETATM   24  C   UNL     1     -10.728   8.333  70.074  1.00  0.00    -0.239 C  
ENDBRANCH   9  12
ENDBRANCH   1   8
BRANCH   1  25
HETATM   25  N   UNL     1     -10.157  13.870  67.989  1.00  0.00    -0.238 N  
HETATM   26  H   UNL     1     -11.028  14.327  68.260  1.00  0.00     0.000 HD 
BRANCH  25  27
HETATM   27  C   UNL     1      -8.993  14.603  67.920  1.00  0.00    -0.174 C  
HETATM   28  O   UNL     1      -8.981  15.803  67.652  1.00  0.00    -0.184 OA 
BRANCH  27  29
HETATM   29  N   UNL     1      -7.827  13.913  68.223  1.00  0.00    -0.136 N  
HETATM   30  C   UNL     1      -7.269  12.949  67.293  1.00  0.00    -0.067 C  
HETATM   31  C   UNL     1      -5.943  12.525  67.908  1.00  0.00    -0.101 C  
HETATM   32  C   UNL     1      -6.892  14.205  69.221  1.00  0.00    -0.118 C  
HETATM   33  O   UNL     1      -7.012  15.019  70.121  1.00  0.00    -0.156 OA 
HETATM   34  N   UNL     1      -5.782  13.399  69.035  1.00  0.00    -0.074 NA 
ENDBRANCH  27  29
ENDBRANCH  25  27
ENDBRANCH   1  25
TORSDOF 6
ENDMDL
MODEL      134
REMARK 921   NORMALIZED FREE ENERGY PREDICTED BY IDOCK:   -4.47 KCAL/MOL
REMARK 922        TOTAL FREE ENERGY PREDICTED BY IDOCK:   -8.13 KCAL/MOL
REMARK 923 INTER-LIGAND FREE ENERGY PREDICTED BY IDOCK:   -7.16 KCAL/MOL
REMARK 924 INTRA-LIGAND FREE ENERGY PREDICTED BY IDOCK:   -0.97 KCAL/MOL
REMARK 927      BINDING AFFINITY PREDICTED BY RF-SCORE:    0.00 PKD
ROOT
HETATM    1  CA  UNL     1     -10.060   8.921  68.686  1.00  0.00    -0.188 C  
ENDROOT
BRANCH   1   2
HETATM    2  C   UNL     1      -8.537   8.777  68.607  1.00  0.00    -0.134 A  
HETATM    3  C   UNL     1      -6.382   9.843  68.240  1.00  0.00    -0.054 A  
HETATM    4  C   UNL     1      -5.731   8.742  68.792  1.00  0.00    -0.041 A  
HETATM    5  C   UNL     1      -6.469   7.630  69.187  1.00  0.00    -0.040 A  
HETATM    6  C   UNL     1      -7.773   9.860  68.142  1.00  0.00    -0.082 A  
HETATM    7  C   UNL     1      -7.861   7.641  69.084  1.00  0.00    -0.118 A  
ENDBRANCH   1   2
BRANCH   1   8
HETATM    8  C   UNL     1     -10.597   9.681  67.409  1.00  0.00    -0.268 C  
HETATM    9  N   UNL     1     -10.943  11.007  67.593  1.00  0.00    -0.255 N  
HETATM   10  H   UNL     1     -10.821  11.395  68.529  1.00  0.00     0.000 HD 
HETATM   11  O   UNL     1     -10.708   9.137  66.311  1.00  0.00     0.022 OA 
BRANCH   9  12
HETATM   12  CA  UNL     1     -11.486  11.933  66.528  1.00  0.00    -0.314 C  
HETATM   13  N   UNL     1     -10.579  13.740  65.802  1.00  0.00    -0.286 N  
HETATM   14  CA  UNL     1      -9.351  14.512  66.149  1.00  0.00    -0.209 C  
HETATM   15  C   UNL     1      -9.642  16.025  66.048  1.00  0.00    -0.350 C  
HETATM   16  O   UNL     1      -9.748  11.925  64.597  1.00  0.00    -0.212 OA 
HETATM   17  C   UNL     1      -8.918  14.042  67.555  1.00  0.00    -0.195 C  
HETATM   18  OXT UNL     1      -8.933  16.910  66.503  1.00  0.00    -0.239 OA 
HETATM   19  O   UNL     1     -10.727  16.322  65.289  1.00  0.00    -0.459 OA 
HETATM   20  C   UNL     1     -10.492  12.421  65.410  1.00  0.00    -0.277 C  
HETATM   21  C   UNL     1      -8.024  14.968  68.382  1.00  0.00    -0.131 C  
HETATM   22  S   UNL     1     -10.521  13.814  68.457  1.00  0.00    -0.241 SA 
HETATM   23  C   UNL     1      -8.157  12.704  67.497  1.00  0.00    -0.178 C  
HETATM   24  C   UNL     1     -11.486  13.438  66.933  1.00  0.00    -0.342 C  
ENDBRANCH   9  12
ENDBRANCH   1   8
BRANCH   1  25
HETATM   25  N   UNL     1     -10.481   9.506  69.962  1.00  0.00    -0.228 N  
HETATM   26  H   UNL     1     -10.460  10.519  70.087  1.00  0.00     0.000 HD 
BRANCH  25  27
HETATM   27  C   UNL     1     -10.906   8.700  70.995  1.00  0.00    -0.247 C  
HETATM   28  O   UNL     1     -10.126   8.090  71.723  1.00  0.00    -0.174 OA 
BRANCH  27  29
HETATM   29  N   UNL     1     -12.278   8.653  71.198  1.00  0.00    -0.274 N  
HETATM   30  C   UNL     1     -12.927   7.430  71.633  1.00  0.00    -0.366 C  
HETATM   31  C   UNL     1     -14.379   7.814  71.879  1.00  0.00    -0.422 C  
HETATM   32  C   UNL     1     -13.164   9.728  71.322  1.00  0.00    -0.373 C  
HETATM   33  O   UNL     1     -12.924  10.904  71.105  1.00  0.00    -0.374 OA 
HETATM   34  N   UNL     1     -14.394   9.242  71.729  1.00  0.00    -0.108 NA 
ENDBRANCH  27  29
ENDBRANCH  25  27
ENDBRANCH   1  25
TORSDOF 6
ENDMDL
MODEL      135
REMARK 921   NORMALIZED FREE ENERGY PREDICTED BY IDOCK:   -4.43 KCAL/MOL
REMARK 922        TOTAL FREE ENERGY PREDICTED BY IDOCK:   -8.08 KCAL/MOL
REMARK 923 INTER-LIGAND FREE ENERGY PREDICTED BY IDOCK:   -6.61 KCAL/MOL
REMARK 924 INTRA-LIGAND FREE ENERGY PREDICTED BY IDOCK:   -1.47 KCAL/MOL
REMARK 927      BINDING AFFINITY PREDICTED BY RF-SCORE:    0.00 PKD
ROOT
HETATM    1  CA  UNL     1      -8.447  14.634  68.207  1.00  0.00    -0.158 C  
ENDROOT
BRANCH   1   2
HETATM    2  C   UNL     1      -9.739  14.112  67.571  1.00  0.00    -0.234 A  
HETATM    3  C   UNL     1     -10.873  13.297  65.579  1.00  0.00    -0.297 A  
HETATM    4  C   UNL     1     -11.914  12.804  66.361  1.00  0.00    -0.443 A  
HETATM    5  C   UNL     1     -11.910  13.022  67.735  1.00  0.00    -0.395 A  
HETATM    6  C   UNL     1      -9.795  13.951  66.177  1.00  0.00    -0.316 A  
HETATM    7  C   UNL     1     -10.836  13.683  68.335  1.00  0.00    -0.274 A  
ENDBRANCH   1   2
BRANCH   1   8
HETATM    8  C   UNL     1      -7.641  13.437  68.853  1.00  0.00     0.018 C  
HETATM    9  N   UNL     1      -8.255  12.199  68.808  1.00  0.00    -0.344 N  
HETATM   10  H   UNL     1      -9.170  12.149  68.361  1.00  0.00     0.000 HD 
HETATM   11  O   UNL     1      -6.535  13.585  69.370  1.00  0.00    -0.105 OA 
BRANCH   9  12
HETATM   12  CA  UNL     1      -7.688  10.913  69.365  1.00  0.00    -0.066 C  
HETATM   13  N   UNL     1      -7.260   9.111  68.276  1.00  0.00    -0.077 N  
HETATM   14  CA  UNL     1      -7.439   8.670  66.862  1.00  0.00    -0.083 C  
HETATM   15  C   UNL     1      -7.846   7.181  66.831  1.00  0.00    -0.107 C  
HETATM   16  O   UNL     1      -5.416  10.535  68.162  1.00  0.00    -0.038 OA 
HETATM   17  C   UNL     1      -8.477   9.625  66.233  1.00  0.00    -0.119 C  
HETATM   18  OXT UNL     1      -8.305   6.598  65.860  1.00  0.00    -0.125 OA 
HETATM   19  O   UNL     1      -7.541   6.508  67.969  1.00  0.00    -0.099 OA 
HETATM   20  C   UNL     1      -6.512  10.232  68.572  1.00  0.00    -0.052 C  
HETATM   21  C   UNL     1      -9.235   9.149  64.991  1.00  0.00    -0.180 C  
HETATM   22  S   UNL     1      -9.701   9.909  67.595  1.00  0.00    -0.160 SA 
HETATM   23  C   UNL     1      -7.838  10.963  65.817  1.00  0.00    -0.057 C  
HETATM   24  C   UNL     1      -8.474   9.635  68.943  1.00  0.00    -0.125 C  
ENDBRANCH   9  12
ENDBRANCH   1   8
BRANCH   1  25
HETATM   25  N   UNL     1      -8.709  15.751  69.120  1.00  0.00    -0.239 N  
HETATM   26  H   UNL     1      -8.391  15.700  70.088  1.00  0.00     0.000 HD 
BRANCH  25  27
HETATM   27  C   UNL     1      -9.381  16.870  68.680  1.00  0.00    -0.268 C  
HETATM   28  O   UNL     1     -10.524  17.141  69.042  1.00  0.00    -0.322 OA 
BRANCH  27  29
HETATM   29  N   UNL     1      -8.667  17.709  67.835  1.00  0.00    -0.240 N  
HETATM   30  C   UNL     1      -7.405  18.292  68.255  1.00  0.00    -0.269 C  
HETATM   31  C   UNL     1      -6.872  19.014  67.026  1.00  0.00    -0.198 C  
HETATM   32  C   UNL     1      -8.835  17.884  66.458  1.00  0.00    -0.261 C  
HETATM   33  O   UNL     1      -9.750  17.462  65.772  1.00  0.00    -0.533 OA 
HETATM   34  N   UNL     1      -7.780  18.642  65.978  1.00  0.00    -0.442 NA 
ENDBRANCH  27  29
ENDBRANCH  25  27
ENDBRANCH   1  25
TORSDOF 6
ENDMDL
MODEL      136
REMARK 921   NORMALIZED FREE ENERGY PREDICTED BY IDOCK:   -4.36 KCAL/MOL
REMARK 922        TOTAL FREE ENERGY PREDICTED BY IDOCK:   -7.99 KCAL/MOL
REMARK 923 INTER-LIGAND FREE ENERGY PREDICTED BY IDOCK:   -6.72 KCAL/MOL
REMARK 924 INTRA-LIGAND FREE ENERGY PREDICTED BY IDOCK:   -1.27 KCAL/MOL
REMARK 927      BINDING AFFINITY PREDICTED BY RF-SCORE:    0.00 PKD
ROOT
HETATM    1  CA  UNL     1     -10.504   8.974  69.551  1.00  0.00    -0.219 C  
ENDROOT
BRANCH   1   2
HETATM    2  C   UNL     1     -10.439   8.241  70.894  1.00  0.00    -0.230 A  
HETATM    3  C   UNL     1      -9.336   7.972  73.046  1.00  0.00    -0.344 A  
HETATM    4  C   UNL     1     -10.424   7.245  73.524  1.00  0.00    -0.421 A  
HETATM    5  C   UNL     1     -11.486   6.952  72.675  1.00  0.00    -0.235 A  
HETATM    6  C   UNL     1      -9.340   8.463  71.739  1.00  0.00    -0.293 A  
HETATM    7  C   UNL     1     -11.489   7.435  71.365  1.00  0.00    -0.290 A  
ENDBRANCH   1   2
BRANCH   1   8
HETATM    8  C   UNL     1     -11.346  10.304  69.704  1.00  0.00    -0.257 C  
HETATM    9  N   UNL     1     -11.418  11.108  68.581  1.00  0.00    -0.271 N  
HETATM   10  H   UNL     1     -10.934  10.783  67.744  1.00  0.00     0.000 HD 
HETATM   11  O   UNL     1     -11.905  10.618  70.754  1.00  0.00    -0.323 OA 
BRANCH   9  12
HETATM   12  CA  UNL     1     -12.152  12.426  68.486  1.00  0.00    -0.075 C  
HETATM   13  N   UNL     1     -11.429  14.247  67.606  1.00  0.00    -0.327 N  
HETATM   14  CA  UNL     1     -10.143  14.675  66.982  1.00  0.00    -0.249 C  
HETATM   15  C   UNL     1      -9.838  16.137  67.371  1.00  0.00    -0.238 C  
HETATM   16  O   UNL     1     -12.416  12.934  65.951  1.00  0.00    -0.527 OA 
HETATM   17  C   UNL     1      -9.073  13.659  67.441  1.00  0.00    -0.222 C  
HETATM   18  OXT UNL     1      -8.757  16.691  67.234  1.00  0.00    -0.186 OA 
HETATM   19  O   UNL     1     -10.927  16.829  67.790  1.00  0.00    -0.313 OA 
HETATM   20  C   UNL     1     -12.132  13.174  67.101  1.00  0.00    -0.286 C  
HETATM   21  C   UNL     1      -7.605  14.088  67.393  1.00  0.00    -0.167 C  
HETATM   22  S   UNL     1      -9.525  13.307  69.203  1.00  0.00     0.730 SA 
HETATM   23  C   UNL     1      -9.134  12.360  66.616  1.00  0.00    -0.204 C  
HETATM   24  C   UNL     1     -11.319  13.655  68.959  1.00  0.00    -0.287 C  
ENDBRANCH   9  12
ENDBRANCH   1   8
BRANCH   1  25
HETATM   25  N   UNL     1     -10.958   8.090  68.474  1.00  0.00    -0.414 N  
HETATM   26  H   UNL     1     -11.751   8.364  67.894  1.00  0.00     0.000 HD 
BRANCH  25  27
HETATM   27  C   UNL     1     -10.322   6.891  68.240  1.00  0.00    -0.193 C  
HETATM   28  O   UNL     1     -10.908   5.811  68.280  1.00  0.00    -0.241 OA 
BRANCH  27  29
HETATM   29  N   UNL     1      -8.978   6.977  67.903  1.00  0.00    -0.123 N  
HETATM   30  C   UNL     1      -8.033   5.968  68.346  1.00  0.00    -0.107 C  
HETATM   31  C   UNL     1      -6.720   6.329  67.666  1.00  0.00    -0.061 C  
HETATM   32  C   UNL     1      -8.389   7.780  66.921  1.00  0.00    -0.124 C  
HETATM   33  O   UNL     1      -8.923   8.678  66.293  1.00  0.00    -0.151 OA 
HETATM   34  N   UNL     1      -7.067   7.397  66.773  1.00  0.00    -0.077 NA 
ENDBRANCH  27  29
ENDBRANCH  25  27
ENDBRANCH   1  25
TORSDOF 6
ENDMDL
MODEL      137
REMARK 921   NORMALIZED FREE ENERGY PREDICTED BY IDOCK:   -4.35 KCAL/MOL
REMARK 922        TOTAL FREE ENERGY PREDICTED BY IDOCK:   -7.96 KCAL/MOL
REMARK 923 INTER-LIGAND FREE ENERGY PREDICTED BY IDOCK:   -6.34 KCAL/MOL
REMARK 924 INTRA-LIGAND FREE ENERGY PREDICTED BY IDOCK:   -1.63 KCAL/MOL
REMARK 927      BINDING AFFINITY PREDICTED BY RF-SCORE:    0.00 PKD
ROOT
HETATM    1  CA  UNL     1      -7.553  10.773  68.586  1.00  0.00    -0.106 C  
ENDROOT
BRANCH   1   2
HETATM    2  C   UNL     1      -7.983   9.736  67.544  1.00  0.00    -0.106 A  
HETATM    3  C   UNL     1      -7.586   7.575  66.500  1.00  0.00    -0.089 A  
HETATM    4  C   UNL     1      -8.863   7.598  65.944  1.00  0.00    -0.163 A  
HETATM    5  C   UNL     1      -9.675   8.713  66.123  1.00  0.00    -0.292 A  
HETATM    6  C   UNL     1      -7.146   8.637  67.290  1.00  0.00    -0.079 A  
HETATM    7  C   UNL     1      -9.234   9.781  66.907  1.00  0.00    -0.174 A  
ENDBRANCH   1   2
BRANCH   1   8
HETATM    8  C   UNL     1      -7.013  10.044  69.881  1.00  0.00    -0.118 C  
HETATM    9  N   UNL     1      -7.963   9.417  70.664  1.00  0.00    -0.169 N  
HETATM   10  H   UNL     1      -8.932   9.464  70.349  1.00  0.00     0.000 HD 
HETATM   11  O   UNL     1      -5.820  10.031  70.186  1.00  0.00    -0.043 OA 
BRANCH   9  12
HETATM   12  CA  UNL     1      -7.692   8.667  71.948  1.00  0.00    -0.064 C  
HETATM   13  N   UNL     1      -8.658   6.871  72.625  1.00  0.00    -0.120 N  
HETATM   14  CA  UNL     1      -9.765   6.015  72.108  1.00  0.00    -0.154 C  
HETATM   15  C   UNL     1     -10.620   5.503  73.287  1.00  0.00    -0.250 C  
HETATM   16  O   UNL     1      -6.859   6.306  71.253  1.00  0.00    -0.063 OA 
HETATM   17  C   UNL     1     -10.543   6.872  71.085  1.00  0.00    -0.222 C  
HETATM   18  OXT UNL     1     -11.727   4.996  73.186  1.00  0.00    -0.313 OA 
HETATM   19  O   UNL     1      -9.983   5.554  74.485  1.00  0.00    -0.203 OA 
HETATM   20  C   UNL     1      -7.534   7.103  71.860  1.00  0.00    -0.085 C  
HETATM   21  C   UNL     1     -11.987   6.478  70.764  1.00  0.00    -0.351 C  
HETATM   22  S   UNL     1     -10.550   8.564  71.841  1.00  0.00    -0.349 SA 
HETATM   23  C   UNL     1      -9.830   6.912  69.721  1.00  0.00    -0.177 C  
HETATM   24  C   UNL     1      -8.973   8.311  72.762  1.00  0.00    -0.253 C  
ENDBRANCH   9  12
ENDBRANCH   1   8
BRANCH   1  25
HETATM   25  N   UNL     1      -8.611  11.754  68.839  1.00  0.00    -0.370 N  
HETATM   26  H   UNL     1      -9.289  11.588  69.583  1.00  0.00     0.000 HD 
BRANCH  25  27
HETATM   27  C   UNL     1      -8.698  12.901  68.080  1.00  0.00    -0.190 C  
HETATM   28  O   UNL     1      -7.759  13.322  67.408  1.00  0.00    -0.161 OA 
BRANCH  27  29
HETATM   29  N   UNL     1      -9.934  13.531  68.080  1.00  0.00    -0.234 N  
HETATM   30  C   UNL     1     -10.036  14.971  67.927  1.00  0.00    -0.226 C  
HETATM   31  C   UNL     1     -11.528  15.256  67.832  1.00  0.00    -0.316 C  
HETATM   32  C   UNL     1     -11.195  12.948  67.923  1.00  0.00    -0.269 C  
HETATM   33  O   UNL     1     -11.456  11.757  67.927  1.00  0.00    -0.279 OA 
HETATM   34  N   UNL     1     -12.131  13.956  67.769  1.00  0.00    -0.349 NA 
ENDBRANCH  27  29
ENDBRANCH  25  27
ENDBRANCH   1  25
TORSDOF 6
ENDMDL
MODEL      138
REMARK 921   NORMALIZED FREE ENERGY PREDICTED BY IDOCK:   -4.34 KCAL/MOL
REMARK 922        TOTAL FREE ENERGY PREDICTED BY IDOCK:   -7.95 KCAL/MOL
REMARK 923 INTER-LIGAND FREE ENERGY PREDICTED BY IDOCK:   -6.85 KCAL/MOL
REMARK 924 INTRA-LIGAND FREE ENERGY PREDICTED BY IDOCK:   -1.10 KCAL/MOL
REMARK 927      BINDING AFFINITY PREDICTED BY RF-SCORE:    0.00 PKD
ROOT
HETATM    1  CA  UNL     1      -8.943  11.746  67.730  1.00  0.00    -0.173 C  
ENDROOT
BRANCH   1   2
HETATM    2  C   UNL     1      -8.877  10.579  66.741  1.00  0.00    -0.139 A  
HETATM    3  C   UNL     1      -9.211   9.781  64.467  1.00  0.00    -0.310 A  
HETATM    4  C   UNL     1      -8.461   8.641  64.746  1.00  0.00    -0.168 A  
HETATM    5  C   UNL     1      -7.979   8.429  66.034  1.00  0.00    -0.101 A  
HETATM    6  C   UNL     1      -9.423  10.741  65.457  1.00  0.00    -0.253 A  
HETATM    7  C   UNL     1      -8.196   9.384  67.028  1.00  0.00    -0.116 A  
ENDBRANCH   1   2
BRANCH   1   8
HETATM    8  C   UNL     1      -7.671  12.669  67.560  1.00  0.00    -0.161 C  
HETATM    9  N   UNL     1      -7.903  14.032  67.588  1.00  0.00    -0.161 N  
HETATM   10  H   UNL     1      -8.866  14.338  67.721  1.00  0.00     0.000 HD 
HETATM   11  O   UNL     1      -6.537  12.215  67.409  1.00  0.00    -0.117 OA 
BRANCH   9  12
HETATM   12  CA  UNL     1      -6.852  15.108  67.438  1.00  0.00    -0.133 C  
HETATM   13  N   UNL     1      -7.094  17.211  67.805  1.00  0.00    -0.151 N  
HETATM   14  CA  UNL     1      -8.238  18.084  68.199  1.00  0.00    -0.271 C  
HETATM   15  C   UNL     1      -8.141  19.434  67.455  1.00  0.00    -0.281 C  
HETATM   16  O   UNL     1      -6.525  16.144  69.799  1.00  0.00    -0.198 OA 
HETATM   17  C   UNL     1      -9.525  17.285  67.897  1.00  0.00    -0.266 C  
HETATM   18  OXT UNL     1      -9.042  20.255  67.366  1.00  0.00    -0.345 OA 
HETATM   19  O   UNL     1      -6.899  19.709  66.984  1.00  0.00    -0.199 OA 
HETATM   20  C   UNL     1      -6.709  16.156  68.604  1.00  0.00    -0.128 C  
HETATM   21  C   UNL     1     -10.831  18.062  67.715  1.00  0.00    -0.246 C  
HETATM   22  S   UNL     1      -9.139  16.408  66.311  1.00  0.00    -0.337 SA 
HETATM   23  C   UNL     1      -9.826  16.257  69.003  1.00  0.00    -0.257 C  
HETATM   24  C   UNL     1      -7.323  16.350  66.622  1.00  0.00    -0.206 C  
ENDBRANCH   9  12
ENDBRANCH   1   8
BRANCH   1  25
HETATM   25  N   UNL     1      -9.176  11.280  69.100  1.00  0.00    -0.406 N  
HETATM   26  H   UNL     1      -8.502  11.505  69.833  1.00  0.00     0.000 HD 
BRANCH  25  27
HETATM   27  C   UNL     1     -10.298  10.542  69.406  1.00  0.00    -0.234 C  
HETATM   28  O   UNL     1     -11.420  10.845  69.006  1.00  0.00    -0.255 OA 
BRANCH  27  29
HETATM   29  N   UNL     1     -10.079   9.397  70.160  1.00  0.00    -0.216 N  
HETATM   30  C   UNL     1     -10.972   8.257  70.061  1.00  0.00    -0.197 C  
HETATM   31  C   UNL     1     -10.327   7.172  70.911  1.00  0.00    -0.201 C  
HETATM   32  C   UNL     1      -8.915   9.029  70.843  1.00  0.00    -0.243 C  
HETATM   33  O   UNL     1      -7.934   9.724  71.045  1.00  0.00    -0.242 OA 
HETATM   34  N   UNL     1      -9.054   7.723  71.278  1.00  0.00    -0.136 NA 
ENDBRANCH  27  29
ENDBRANCH  25  27
ENDBRANCH   1  25
TORSDOF 6
ENDMDL
MODEL      139
REMARK 921   NORMALIZED FREE ENERGY PREDICTED BY IDOCK:   -4.32 KCAL/MOL
REMARK 922        TOTAL FREE ENERGY PREDICTED BY IDOCK:   -7.93 KCAL/MOL
REMARK 923 INTER-LIGAND FREE ENERGY PREDICTED BY IDOCK:   -6.49 KCAL/MOL
REMARK 924 INTRA-LIGAND FREE ENERGY PREDICTED BY IDOCK:   -1.44 KCAL/MOL
REMARK 927      BINDING AFFINITY PREDICTED BY RF-SCORE:    0.00 PKD
ROOT
HETATM    1  CA  UNL     1      -8.604  13.555  67.390  1.00  0.00    -0.208 C  
ENDROOT
BRANCH   1   2
HETATM    2  C   UNL     1      -9.839  13.371  66.504  1.00  0.00    -0.286 A  
HETATM    3  C   UNL     1     -10.815  13.480  64.278  1.00  0.00    -0.340 A  
HETATM    4  C   UNL     1     -11.906  12.729  64.708  1.00  0.00    -0.423 A  
HETATM    5  C   UNL     1     -12.006  12.358  66.046  1.00  0.00    -0.419 A  
HETATM    6  C   UNL     1      -9.791  13.804  65.169  1.00  0.00    -0.125 A  
HETATM    7  C   UNL     1     -10.986  12.688  66.941  1.00  0.00    -0.297 A  
ENDBRANCH   1   2
BRANCH   1   8
HETATM    8  C   UNL     1      -7.583  12.373  67.145  1.00  0.00    -0.104 C  
HETATM    9  N   UNL     1      -8.104  11.095  67.229  1.00  0.00    -0.131 N  
HETATM   10  H   UNL     1      -9.100  11.011  67.434  1.00  0.00     0.000 HD 
HETATM   11  O   UNL     1      -6.393  12.565  66.897  1.00  0.00    -0.176 OA 
BRANCH   9  12
HETATM   12  CA  UNL     1      -7.327   9.812  67.044  1.00  0.00    -0.091 C  
HETATM   13  N   UNL     1      -7.686   7.931  68.017  1.00  0.00    -0.122 N  
HETATM   14  CA  UNL     1      -8.643   7.451  69.057  1.00  0.00    -0.133 C  
HETATM   15  C   UNL     1      -7.933   6.448  69.991  1.00  0.00    -0.112 C  
HETATM   16  O   UNL     1      -9.007   8.069  66.100  1.00  0.00    -0.163 OA 
HETATM   17  C   UNL     1      -9.182   8.710  69.771  1.00  0.00    -0.154 C  
HETATM   18  OXT UNL     1      -8.358   6.073  71.074  1.00  0.00    -0.121 OA 
HETATM   19  O   UNL     1      -6.813   5.901  69.454  1.00  0.00    -0.057 OA 
HETATM   20  C   UNL     1      -8.148   8.485  66.841  1.00  0.00    -0.099 C  
HETATM   21  C   UNL     1      -9.771   8.547  71.174  1.00  0.00    -0.257 C  
HETATM   22  S   UNL     1      -7.705   9.824  69.881  1.00  0.00    -0.171 SA 
HETATM   23  C   UNL     1     -10.293   9.394  68.952  1.00  0.00    -0.230 C  
HETATM   24  C   UNL     1      -6.896   9.130  68.377  1.00  0.00    -0.064 C  
ENDBRANCH   9  12
ENDBRANCH   1   8
BRANCH   1  25
HETATM   25  N   UNL     1      -8.972  13.757  68.795  1.00  0.00    -0.374 N  
HETATM   26  H   UNL     1      -8.995  12.960  69.432  1.00  0.00     0.000 HD 
BRANCH  25  27
HETATM   27  C   UNL     1      -9.288  15.014  69.261  1.00  0.00    -0.162 C  
HETATM   28  O   UNL     1      -8.486  15.945  69.251  1.00  0.00    -0.242 OA 
BRANCH  27  29
HETATM   29  N   UNL     1     -10.593  15.183  69.701  1.00  0.00    -0.259 N  
HETATM   30  C   UNL     1     -10.912  15.156  71.118  1.00  0.00    -0.136 C  
HETATM   31  C   UNL     1     -12.388  15.516  71.201  1.00  0.00    -0.411 C  
HETATM   32  C   UNL     1     -11.686  15.675  68.980  1.00  0.00    -0.395 C  
HETATM   33  O   UNL     1     -11.735  15.888  67.781  1.00  0.00    -0.141 OA 
HETATM   34  N   UNL     1     -12.737  15.880  69.857  1.00  0.00    -0.091 NA 
ENDBRANCH  27  29
ENDBRANCH  25  27
ENDBRANCH   1  25
TORSDOF 6
ENDMDL
MODEL      140
REMARK 921   NORMALIZED FREE ENERGY PREDICTED BY IDOCK:   -4.32 KCAL/MOL
REMARK 922        TOTAL FREE ENERGY PREDICTED BY IDOCK:   -7.93 KCAL/MOL
REMARK 923 INTER-LIGAND FREE ENERGY PREDICTED BY IDOCK:   -6.70 KCAL/MOL
REMARK 924 INTRA-LIGAND FREE ENERGY PREDICTED BY IDOCK:   -1.24 KCAL/MOL
REMARK 927      BINDING AFFINITY PREDICTED BY RF-SCORE:    0.00 PKD
ROOT
HETATM    1  CA  UNL     1      -9.477  12.280  66.224  1.00  0.00    -0.231 C  
ENDROOT
BRANCH   1   2
HETATM    2  C   UNL     1     -10.596  13.186  65.701  1.00  0.00    -0.289 A  
HETATM    3  C   UNL     1     -11.219  15.205  64.497  1.00  0.00    -0.283 A  
HETATM    4  C   UNL     1     -12.527  14.741  64.375  1.00  0.00    -0.274 A  
HETATM    5  C   UNL     1     -12.892  13.539  64.972  1.00  0.00    -0.330 A  
HETATM    6  C   UNL     1     -10.261  14.438  65.159  1.00  0.00    -0.420 A  
HETATM    7  C   UNL     1     -11.937  12.772  65.642  1.00  0.00    -0.503 A  
ENDBRANCH   1   2
BRANCH   1   8
HETATM    8  C   UNL     1      -9.917  10.765  66.116  1.00  0.00    -0.232 C  
HETATM    9  N   UNL     1      -9.907  10.046  67.297  1.00  0.00    -0.174 N  
HETATM   10  H   UNL     1      -9.627  10.542  68.143  1.00  0.00     0.000 HD 
HETATM   11  O   UNL     1     -10.246  10.244  65.051  1.00  0.00    -0.320 OA 
BRANCH   9  12
HETATM   12  CA  UNL     1     -10.276   8.587  67.444  1.00  0.00    -0.261 C  
HETATM   13  N   UNL     1      -9.427   7.171  68.818  1.00  0.00    -0.142 N  
HETATM   14  CA  UNL     1      -8.335   7.217  69.834  1.00  0.00    -0.135 C  
HETATM   15  C   UNL     1      -7.564   5.880  69.829  1.00  0.00    -0.081 C  
HETATM   16  O   UNL     1     -11.178   8.301  69.864  1.00  0.00    -0.171 OA 
HETATM   17  C   UNL     1      -7.468   8.450  69.491  1.00  0.00    -0.088 C  
HETATM   18  OXT UNL     1      -6.477   5.692  70.354  1.00  0.00    -0.033 OA 
HETATM   19  O   UNL     1      -8.257   4.853  69.275  1.00  0.00    -0.081 OA 
HETATM   20  C   UNL     1     -10.499   8.034  68.901  1.00  0.00    -0.191 C  
HETATM   21  C   UNL     1      -6.029   8.487  70.011  1.00  0.00    -0.027 C  
HETATM   22  S   UNL     1      -7.424   8.458  67.639  1.00  0.00    -0.095 SA 
HETATM   23  C   UNL     1      -8.109   9.753  70.004  1.00  0.00    -0.203 C  
HETATM   24  C   UNL     1      -9.055   7.619  67.456  1.00  0.00    -0.125 C  
ENDBRANCH   9  12
ENDBRANCH   1   8
BRANCH   1  25
HETATM   25  N   UNL     1      -9.031  12.688  67.559  1.00  0.00    -0.177 N  
HETATM   26  H   UNL     1      -8.050  12.581  67.820  1.00  0.00     0.000 HD 
BRANCH  25  27
HETATM   27  C   UNL     1      -9.925  13.216  68.464  1.00  0.00    -0.180 C  
HETATM   28  O   UNL     1     -10.723  12.520  69.089  1.00  0.00    -0.153 OA 
BRANCH  27  29
HETATM   29  N   UNL     1      -9.838  14.586  68.668  1.00  0.00    -0.230 N  
HETATM   30  C   UNL     1      -8.549  15.245  68.767  1.00  0.00    -0.190 C  
HETATM   31  C   UNL     1      -8.866  16.731  68.841  1.00  0.00    -0.228 C  
HETATM   32  C   UNL     1     -10.848  15.542  68.517  1.00  0.00    -0.272 C  
HETATM   33  O   UNL     1     -12.036  15.330  68.342  1.00  0.00    -0.303 OA 
HETATM   34  N   UNL     1     -10.281  16.801  68.609  1.00  0.00    -0.278 NA 
ENDBRANCH  27  29
ENDBRANCH  25  27
ENDBRANCH   1  25
TORSDOF 6
ENDMDL
MODEL      141
REMARK 921   NORMALIZED FREE ENERGY PREDICTED BY IDOCK:   -4.31 KCAL/MOL
REMARK 922        TOTAL FREE ENERGY PREDICTED BY IDOCK:   -7.91 KCAL/MOL
REMARK 923 INTER-LIGAND FREE ENERGY PREDICTED BY IDOCK:   -6.40 KCAL/MOL
REMARK 924 INTRA-LIGAND FREE ENERGY PREDICTED BY IDOCK:   -1.51 KCAL/MOL
REMARK 927      BINDING AFFINITY PREDICTED BY RF-SCORE:    0.00 PKD
ROOT
HETATM    1  CA  UNL     1      -8.383  11.857  68.297  1.00  0.00    -0.159 C  
ENDROOT
BRANCH   1   2
HETATM    2  C   UNL     1      -8.693  11.018  67.053  1.00  0.00    -0.141 A  
HETATM    3  C   UNL     1      -7.861   9.904  65.058  1.00  0.00    -0.131 A  
HETATM    4  C   UNL     1      -9.052   9.189  64.949  1.00  0.00    -0.190 A  
HETATM    5  C   UNL     1     -10.090   9.434  65.842  1.00  0.00    -0.243 A  
HETATM    6  C   UNL     1      -7.684  10.816  66.098  1.00  0.00    -0.149 A  
HETATM    7  C   UNL     1      -9.918  10.352  66.880  1.00  0.00    -0.254 A  
ENDBRANCH   1   2
BRANCH   1   8
HETATM    8  C   UNL     1      -7.532  11.006  69.322  1.00  0.00    -0.100 C  
HETATM    9  N   UNL     1      -8.231  10.071  70.062  1.00  0.00    -0.298 N  
HETATM   10  H   UNL     1      -9.233   9.995  69.888  1.00  0.00     0.000 HD 
HETATM   11  O   UNL     1      -6.319  11.160  69.465  1.00  0.00    -0.075 OA 
BRANCH   9  12
HETATM   12  CA  UNL     1      -7.640   9.151  71.105  1.00  0.00    -0.059 C  
HETATM   13  N   UNL     1      -8.364   7.210  71.677  1.00  0.00    -0.110 N  
HETATM   14  CA  UNL     1      -9.537   6.371  71.293  1.00  0.00    -0.170 C  
HETATM   15  C   UNL     1     -10.071   5.626  72.535  1.00  0.00    -0.178 C  
HETATM   16  O   UNL     1      -6.928   6.988  69.853  1.00  0.00    -0.058 OA 
HETATM   17  C   UNL     1     -10.561   7.322  70.635  1.00  0.00    -0.226 C  
HETATM   18  OXT UNL     1     -11.155   5.067  72.608  1.00  0.00    -0.234 OA 
HETATM   19  O   UNL     1      -9.170   5.534  73.545  1.00  0.00    -0.131 OA 
HETATM   20  C   UNL     1      -7.462   7.634  70.724  1.00  0.00    -0.071 C  
HETATM   21  C   UNL     1     -12.027   6.886  70.593  1.00  0.00    -0.400 C  
HETATM   22  S   UNL     1     -10.438   8.872  71.643  1.00  0.00    -0.354 SA 
HETATM   23  C   UNL     1     -10.195   7.622  69.169  1.00  0.00    -0.204 C  
HETATM   24  C   UNL     1      -8.680   8.587  72.121  1.00  0.00    -0.197 C  
ENDBRANCH   9  12
ENDBRANCH   1   8
BRANCH   1  25
HETATM   25  N   UNL     1      -9.596  12.452  68.864  1.00  0.00    -0.403 N  
HETATM   26  H   UNL     1      -9.971  12.098  69.744  1.00  0.00     0.000 HD 
BRANCH  25  27
HETATM   27  C   UNL     1     -10.236  13.486  68.216  1.00  0.00    -0.250 C  
HETATM   28  O   UNL     1     -11.457  13.530  68.082  1.00  0.00    -0.266 OA 
BRANCH  27  29
HETATM   29  N   UNL     1      -9.417  14.511  67.762  1.00  0.00    -0.207 N  
HETATM   30  C   UNL     1      -9.609  15.091  66.445  1.00  0.00    -0.289 C  
HETATM   31  C   UNL     1      -8.633  16.257  66.378  1.00  0.00    -0.326 C  
HETATM   32  C   UNL     1      -8.554  15.315  68.513  1.00  0.00    -0.167 C  
HETATM   33  O   UNL     1      -8.231  15.155  69.678  1.00  0.00    -0.210 OA 
HETATM   34  N   UNL     1      -8.098  16.345  67.707  1.00  0.00    -0.155 NA 
ENDBRANCH  27  29
ENDBRANCH  25  27
ENDBRANCH   1  25
TORSDOF 6
ENDMDL
MODEL      142
REMARK 921   NORMALIZED FREE ENERGY PREDICTED BY IDOCK:   -4.28 KCAL/MOL
REMARK 922        TOTAL FREE ENERGY PREDICTED BY IDOCK:   -7.88 KCAL/MOL
REMARK 923 INTER-LIGAND FREE ENERGY PREDICTED BY IDOCK:   -6.36 KCAL/MOL
REMARK 924 INTRA-LIGAND FREE ENERGY PREDICTED BY IDOCK:   -1.52 KCAL/MOL
REMARK 927      BINDING AFFINITY PREDICTED BY RF-SCORE:    0.00 PKD
ROOT
HETATM    1  CA  UNL     1     -10.024   8.162  71.639  1.00  0.00    -0.192 C  
ENDROOT
BRANCH   1   2
HETATM    2  C   UNL     1     -11.536   8.356  71.492  1.00  0.00    -0.338 A  
HETATM    3  C   UNL     1     -13.755   7.359  71.514  1.00  0.00    -0.467 A  
HETATM    4  C   UNL     1     -14.333   8.622  71.615  1.00  0.00    -0.451 A  
HETATM    5  C   UNL     1     -13.527   9.755  71.584  1.00  0.00    -0.436 A  
HETATM    6  C   UNL     1     -12.367   7.225  71.447  1.00  0.00    -0.403 A  
HETATM    7  C   UNL     1     -12.139   9.625  71.510  1.00  0.00    -0.482 A  
ENDBRANCH   1   2
BRANCH   1   8
HETATM    8  C   UNL     1      -9.409   7.665  70.270  1.00  0.00    -0.157 C  
HETATM    9  N   UNL     1      -8.896   8.647  69.443  1.00  0.00    -0.142 N  
HETATM   10  H   UNL     1      -8.945   9.609  69.777  1.00  0.00     0.000 HD 
HETATM   11  O   UNL     1      -9.386   6.478  69.946  1.00  0.00    -0.151 OA 
BRANCH   9  12
HETATM   12  CA  UNL     1      -8.268   8.419  68.087  1.00  0.00    -0.124 C  
HETATM   13  N   UNL     1      -8.483   9.650  66.340  1.00  0.00    -0.122 N  
HETATM   14  CA  UNL     1      -9.261  10.879  66.010  1.00  0.00    -0.188 C  
HETATM   15  C   UNL     1      -9.776  10.793  64.557  1.00  0.00    -0.295 C  
HETATM   16  O   UNL     1      -6.727  10.463  67.642  1.00  0.00    -0.072 OA 
HETATM   17  C   UNL     1     -10.376  10.992  67.073  1.00  0.00    -0.228 C  
HETATM   18  OXT UNL     1     -10.641  11.508  64.073  1.00  0.00    -0.317 OA 
HETATM   19  O   UNL     1      -9.095   9.906  63.789  1.00  0.00    -0.236 OA 
HETATM   20  C   UNL     1      -7.583   9.649  67.385  1.00  0.00    -0.095 C  
HETATM   21  C   UNL     1     -11.613  11.827  66.734  1.00  0.00    -0.287 C  
HETATM   22  S   UNL     1     -10.908   9.238  67.343  1.00  0.00     0.037 SA 
HETATM   23  C   UNL     1      -9.845  11.586  68.390  1.00  0.00    -0.204 C  
HETATM   24  C   UNL     1      -9.268   8.525  66.896  1.00  0.00    -0.158 C  
ENDBRANCH   9  12
ENDBRANCH   1   8
BRANCH   1  25
HETATM   25  N   UNL     1      -9.697   7.319  72.792  1.00  0.00    -0.153 N  
HETATM   26  H   UNL     1     -10.428   6.765  73.239  1.00  0.00     0.000 HD 
BRANCH  25  27
HETATM   27  C   UNL     1      -8.409   7.268  73.277  1.00  0.00    -0.119 C  
HETATM   28  O   UNL     1      -7.945   8.132  74.019  1.00  0.00    -0.200 OA 
BRANCH  27  29
HETATM   29  N   UNL     1      -7.673   6.148  72.917  1.00  0.00    -0.104 N  
HETATM   30  C   UNL     1      -8.179   4.810  73.168  1.00  0.00    -0.101 C  
HETATM   31  C   UNL     1      -7.174   3.875  72.512  1.00  0.00    -0.057 C  
HETATM   32  C   UNL     1      -6.575   6.084  72.053  1.00  0.00    -0.062 C  
HETATM   33  O   UNL     1      -5.953   7.024  71.589  1.00  0.00    -0.037 OA 
HETATM   34  N   UNL     1      -6.284   4.753  71.807  1.00  0.00    -0.021 NA 
ENDBRANCH  27  29
ENDBRANCH  25  27
ENDBRANCH   1  25
TORSDOF 6
ENDMDL
MODEL      143
REMARK 921   NORMALIZED FREE ENERGY PREDICTED BY IDOCK:   -4.28 KCAL/MOL
REMARK 922        TOTAL FREE ENERGY PREDICTED BY IDOCK:   -7.88 KCAL/MOL
REMARK 923 INTER-LIGAND FREE ENERGY PREDICTED BY IDOCK:   -7.03 KCAL/MOL
REMARK 924 INTRA-LIGAND FREE ENERGY PREDICTED BY IDOCK:   -0.84 KCAL/MOL
REMARK 927      BINDING AFFINITY PREDICTED BY RF-SCORE:    0.00 PKD
ROOT
HETATM    1  CA  UNL     1     -11.404  10.420  68.217  1.00  0.00    -0.224 C  
ENDROOT
BRANCH   1   2
HETATM    2  C   UNL     1     -11.109  11.849  67.751  1.00  0.00    -0.295 A  
HETATM    3  C   UNL     1      -9.910  13.933  68.122  1.00  0.00    -0.240 A  
HETATM    4  C   UNL     1     -10.197  14.340  66.821  1.00  0.00    -0.272 A  
HETATM    5  C   UNL     1     -10.995  13.544  66.006  1.00  0.00    -0.281 A  
HETATM    6  C   UNL     1     -10.367  12.699  68.587  1.00  0.00    -0.192 A  
HETATM    7  C   UNL     1     -11.460  12.312  66.472  1.00  0.00    -0.438 A  
ENDBRANCH   1   2
BRANCH   1   8
HETATM    8  C   UNL     1     -11.490  10.374  69.795  1.00  0.00    -0.280 C  
HETATM    9  N   UNL     1     -10.937   9.261  70.400  1.00  0.00    -0.242 N  
HETATM   10  H   UNL     1     -10.513   8.562  69.791  1.00  0.00     0.000 HD 
HETATM   11  O   UNL     1     -12.018  11.268  70.457  1.00  0.00    -0.343 OA 
BRANCH   9  12
HETATM   12  CA  UNL     1     -10.906   8.990  71.887  1.00  0.00    -0.343 C  
HETATM   13  N   UNL     1     -10.045   7.286  72.872  1.00  0.00    -0.205 N  
HETATM   14  CA  UNL     1      -9.379   6.032  72.413  1.00  0.00    -0.146 C  
HETATM   15  C   UNL     1      -9.793   4.860  73.328  1.00  0.00    -0.148 C  
HETATM   16  O   UNL     1      -8.398   8.909  72.563  1.00  0.00    -0.388 OA 
HETATM   17  C   UNL     1      -9.767   5.846  70.930  1.00  0.00    -0.172 C  
HETATM   18  OXT UNL     1      -9.625   3.676  73.075  1.00  0.00    -0.114 OA 
HETATM   19  O   UNL     1     -10.274   5.253  74.535  1.00  0.00    -0.239 OA 
HETATM   20  C   UNL     1      -9.541   8.519  72.514  1.00  0.00    -0.254 C  
HETATM   21  C   UNL     1      -9.670   4.442  70.329  1.00  0.00    -0.281 C  
HETATM   22  S   UNL     1     -11.537   6.392  70.864  1.00  0.00    -0.282 SA 
HETATM   23  C   UNL     1      -8.912   6.733  70.005  1.00  0.00    -0.141 C  
HETATM   24  C   UNL     1     -11.376   7.557  72.283  1.00  0.00    -0.292 C  
ENDBRANCH   9  12
ENDBRANCH   1   8
BRANCH   1  25
HETATM   25  N   UNL     1     -10.466   9.457  67.633  1.00  0.00    -0.254 N  
HETATM   26  H   UNL     1     -10.820   8.603  67.201  1.00  0.00     0.000 HD 
BRANCH  25  27
HETATM   27  C   UNL     1      -9.110   9.697  67.662  1.00  0.00    -0.131 C  
HETATM   28  O   UNL     1      -8.513  10.000  68.693  1.00  0.00    -0.110 OA 
BRANCH  27  29
HETATM   29  N   UNL     1      -8.442   9.526  66.458  1.00  0.00    -0.125 N  
HETATM   30  C   UNL     1      -7.414  10.460  66.036  1.00  0.00    -0.134 C  
HETATM   31  C   UNL     1      -6.830   9.862  64.765  1.00  0.00    -0.129 C  
HETATM   32  C   UNL     1      -8.399   8.381  65.655  1.00  0.00    -0.154 C  
HETATM   33  O   UNL     1      -9.079   7.376  65.776  1.00  0.00    -0.092 OA 
HETATM   34  N   UNL     1      -7.450   8.571  64.666  1.00  0.00    -0.092 NA 
ENDBRANCH  27  29
ENDBRANCH  25  27
ENDBRANCH   1  25
TORSDOF 6
ENDMDL
MODEL      144
REMARK 921   NORMALIZED FREE ENERGY PREDICTED BY IDOCK:   -4.24 KCAL/MOL
REMARK 922        TOTAL FREE ENERGY PREDICTED BY IDOCK:   -7.82 KCAL/MOL
REMARK 923 INTER-LIGAND FREE ENERGY PREDICTED BY IDOCK:   -6.82 KCAL/MOL
REMARK 924 INTRA-LIGAND FREE ENERGY PREDICTED BY IDOCK:   -1.00 KCAL/MOL
REMARK 927      BINDING AFFINITY PREDICTED BY RF-SCORE:    0.00 PKD
ROOT
HETATM    1  CA  UNL     1      -9.787  12.882  68.332  1.00  0.00    -0.197 C  
ENDROOT
BRANCH   1   2
HETATM    2  C   UNL     1      -9.596  14.312  67.816  1.00  0.00    -0.221 A  
HETATM    3  C   UNL     1      -9.296  15.793  65.910  1.00  0.00    -0.356 A  
HETATM    4  C   UNL     1      -9.610  16.894  66.703  1.00  0.00    -0.282 A  
HETATM    5  C   UNL     1      -9.847  16.721  68.063  1.00  0.00    -0.265 A  
HETATM    6  C   UNL     1      -9.284  14.511  66.461  1.00  0.00    -0.282 A  
HETATM    7  C   UNL     1      -9.827  15.441  68.619  1.00  0.00    -0.208 A  
ENDBRANCH   1   2
BRANCH   1   8
HETATM    8  C   UNL     1      -8.443  12.066  68.167  1.00  0.00    -0.171 C  
HETATM    9  N   UNL     1      -8.565  10.801  67.622  1.00  0.00    -0.122 N  
HETATM   10  H   UNL     1      -9.503  10.494  67.362  1.00  0.00     0.000 HD 
HETATM   11  O   UNL     1      -7.348  12.515  68.503  1.00  0.00    -0.106 OA 
BRANCH   9  12
HETATM   12  CA  UNL     1      -7.430   9.833  67.376  1.00  0.00    -0.091 C  
HETATM   13  N   UNL     1      -7.561   7.692  67.251  1.00  0.00    -0.106 N  
HETATM   14  CA  UNL     1      -8.660   6.696  67.412  1.00  0.00    -0.119 C  
HETATM   15  C   UNL     1      -8.116   5.434  68.116  1.00  0.00    -0.095 C  
HETATM   16  O   UNL     1      -7.980   8.612  65.149  1.00  0.00    -0.112 OA 
HETATM   17  C   UNL     1      -9.793   7.411  68.180  1.00  0.00    -0.156 C  
HETATM   18  OXT UNL     1      -8.803   4.554  68.612  1.00  0.00    -0.096 OA 
HETATM   19  O   UNL     1      -6.767   5.307  68.042  1.00  0.00    -0.051 OA 
HETATM   20  C   UNL     1      -7.658   8.697  66.311  1.00  0.00    -0.094 C  
HETATM   21  C   UNL     1     -10.814   6.550  68.927  1.00  0.00    -0.354 C  
HETATM   22  S   UNL     1      -8.896   8.461  69.416  1.00  0.00    -0.142 SA 
HETATM   23  C   UNL     1     -10.633   8.304  67.249  1.00  0.00    -0.335 C  
HETATM   24  C   UNL     1      -7.384   8.638  68.376  1.00  0.00    -0.086 C  
ENDBRANCH   9  12
ENDBRANCH   1   8
BRANCH   1  25
HETATM   25  N   UNL     1     -10.962  12.244  67.732  1.00  0.00    -0.221 N  
HETATM   26  H   UNL     1     -11.103  11.239  67.840  1.00  0.00     0.000 HD 
BRANCH  25  27
HETATM   27  C   UNL     1     -11.877  12.990  67.023  1.00  0.00    -0.377 C  
HETATM   28  O   UNL     1     -12.596  13.835  67.553  1.00  0.00    -0.024 OA 
BRANCH  27  29
HETATM   29  N   UNL     1     -11.907  12.766  65.654  1.00  0.00    -0.402 N  
HETATM   30  C   UNL     1     -12.569  13.699  64.760  1.00  0.00    -0.295 C  
HETATM   31  C   UNL     1     -12.263  13.191  63.358  1.00  0.00    -0.444 C  
HETATM   32  C   UNL     1     -11.125  11.874  64.913  1.00  0.00    -0.307 C  
HETATM   33  O   UNL     1     -10.390  11.005  65.353  1.00  0.00    -0.261 OA 
HETATM   34  N   UNL     1     -11.324  12.125  63.567  1.00  0.00    -0.444 NA 
ENDBRANCH  27  29
ENDBRANCH  25  27
ENDBRANCH   1  25
TORSDOF 6
ENDMDL
MODEL      145
REMARK 921   NORMALIZED FREE ENERGY PREDICTED BY IDOCK:   -4.23 KCAL/MOL
REMARK 922        TOTAL FREE ENERGY PREDICTED BY IDOCK:   -7.81 KCAL/MOL
REMARK 923 INTER-LIGAND FREE ENERGY PREDICTED BY IDOCK:   -8.57 KCAL/MOL
REMARK 924 INTRA-LIGAND FREE ENERGY PREDICTED BY IDOCK:    0.76 KCAL/MOL
REMARK 927      BINDING AFFINITY PREDICTED BY RF-SCORE:    0.00 PKD
ROOT
HETATM    1  CA  UNL     1      -8.758  15.209  69.676  1.00  0.00    -0.049 C  
ENDROOT
BRANCH   1   2
HETATM    2  C   UNL     1      -8.462  16.345  68.693  1.00  0.00    -0.229 A  
HETATM    3  C   UNL     1      -7.232  17.116  66.742  1.00  0.00    -0.260 A  
HETATM    4  C   UNL     1      -8.096  18.200  66.612  1.00  0.00    -0.283 A  
HETATM    5  C   UNL     1      -9.098  18.402  67.556  1.00  0.00    -0.278 A  
HETATM    6  C   UNL     1      -7.408  16.197  67.777  1.00  0.00    -0.153 A  
HETATM    7  C   UNL     1      -9.272  17.489  68.597  1.00  0.00    -0.267 A  
ENDBRANCH   1   2
BRANCH   1   8
HETATM    8  C   UNL     1      -8.970  13.855  68.888  1.00  0.00     0.104 C  
HETATM    9  N   UNL     1     -10.256  13.607  68.445  1.00  0.00    -0.242 N  
HETATM   10  H   UNL     1     -10.964  14.312  68.652  1.00  0.00     0.000 HD 
HETATM   11  O   UNL     1      -8.055  13.060  68.677  1.00  0.00    -0.112 OA 
BRANCH   9  12
HETATM   12  CA  UNL     1     -10.705  12.382  67.681  1.00  0.00    -0.221 C  
HETATM   13  N   UNL     1     -11.116  12.251  65.576  1.00  0.00    -0.297 N  
HETATM   14  CA  UNL     1     -11.129  13.224  64.446  1.00  0.00    -0.384 C  
HETATM   15  C   UNL     1     -12.290  12.888  63.485  1.00  0.00    -0.434 C  
HETATM   16  O   UNL     1      -8.841  11.885  65.940  1.00  0.00    -0.095 OA 
HETATM   17  C   UNL     1     -11.215  14.631  65.078  1.00  0.00    -0.386 C  
HETATM   18  OXT UNL     1     -12.720  13.630  62.614  1.00  0.00    -0.211 OA 
HETATM   19  O   UNL     1     -12.745  11.615  63.604  1.00  0.00    -0.400 OA 
HETATM   20  C   UNL     1      -9.973  12.061  66.325  1.00  0.00    -0.227 C  
HETATM   21  C   UNL     1     -11.743  15.779  64.213  1.00  0.00    -0.162 C  
HETATM   22  S   UNL     1     -12.364  14.401  66.513  1.00  0.00    -0.083 SA 
HETATM   23  C   UNL     1      -9.841  15.112  65.580  1.00  0.00    -0.356 C  
HETATM   24  C   UNL     1     -11.934  12.625  66.753  1.00  0.00    -0.292 C  
ENDBRANCH   9  12
ENDBRANCH   1   8
BRANCH   1  25
HETATM   25  N   UNL     1      -9.850  15.556  70.590  1.00  0.00     0.084 N  
HETATM   26  H   UNL     1      -9.638  15.843  71.546  1.00  0.00     0.000 HD 
BRANCH  25  27
HETATM   27  C   UNL     1     -11.160  15.498  70.168  1.00  0.00    -0.323 C  
HETATM   28  O   UNL     1     -11.513  15.869  69.051  1.00  0.00    -0.341 OA 
BRANCH  27  29
HETATM   29  N   UNL     1     -12.059  14.945  71.069  1.00  0.00    -0.299 N  
HETATM   30  C   UNL     1     -12.514  13.574  70.922  1.00  0.00    -0.369 C  
HETATM   31  C   UNL     1     -13.357  13.300  72.159  1.00  0.00    -0.523 C  
HETATM   32  C   UNL     1     -12.418  15.430  72.331  1.00  0.00    -0.379 C  
HETATM   33  O   UNL     1     -12.138  16.518  72.804  1.00  0.00    -0.508 OA 
HETATM   34  N   UNL     1     -13.172  14.465  72.976  1.00  0.00    -0.598 NA 
ENDBRANCH  27  29
ENDBRANCH  25  27
ENDBRANCH   1  25
TORSDOF 6
ENDMDL
MODEL      146
REMARK 921   NORMALIZED FREE ENERGY PREDICTED BY IDOCK:   -4.20 KCAL/MOL
REMARK 922        TOTAL FREE ENERGY PREDICTED BY IDOCK:   -7.77 KCAL/MOL
REMARK 923 INTER-LIGAND FREE ENERGY PREDICTED BY IDOCK:   -7.77 KCAL/MOL
REMARK 924 INTRA-LIGAND FREE ENERGY PREDICTED BY IDOCK:    0.00 KCAL/MOL
REMARK 927      BINDING AFFINITY PREDICTED BY RF-SCORE:    0.00 PKD
ROOT
HETATM    1  CA  UNL     1      -8.809  12.217  66.958  1.00  0.00    -0.203 C  
ENDROOT
BRANCH   1   2
HETATM    2  C   UNL     1     -10.036  12.019  67.854  1.00  0.00    -0.199 A  
HETATM    3  C   UNL     1     -11.660  10.486  68.816  1.00  0.00    -0.252 A  
HETATM    4  C   UNL     1     -12.040  11.454  69.743  1.00  0.00    -0.388 A  
HETATM    5  C   UNL     1     -11.475  12.724  69.687  1.00  0.00    -0.255 A  
HETATM    6  C   UNL     1     -10.670  10.766  67.875  1.00  0.00    -0.282 A  
HETATM    7  C   UNL     1     -10.489  13.010  68.741  1.00  0.00    -0.186 A  
ENDBRANCH   1   2
BRANCH   1   8
HETATM    8  C   UNL     1      -7.749  13.132  67.690  1.00  0.00    -0.168 C  
HETATM    9  N   UNL     1      -7.423  14.313  67.049  1.00  0.00    -0.266 N  
HETATM   10  H   UNL     1      -7.891  14.508  66.164  1.00  0.00     0.000 HD 
HETATM   11  O   UNL     1      -7.234  12.823  68.764  1.00  0.00    -0.099 OA 
BRANCH   9  12
HETATM   12  CA  UNL     1      -6.433  15.342  67.546  1.00  0.00    -0.129 C  
HETATM   13  N   UNL     1      -6.874  17.317  68.268  1.00  0.00    -0.178 N  
HETATM   14  CA  UNL     1      -8.115  18.134  68.402  1.00  0.00    -0.303 C  
HETATM   15  C   UNL     1      -7.802  19.610  68.076  1.00  0.00    -0.306 C  
HETATM   16  O   UNL     1      -7.041  15.800  70.031  1.00  0.00    -0.049 OA 
HETATM   17  C   UNL     1      -9.168  17.489  67.474  1.00  0.00    -0.242 C  
HETATM   18  OXT UNL     1      -8.638  20.474  67.852  1.00  0.00    -0.159 OA 
HETATM   19  O   UNL     1      -6.485  19.923  68.171  1.00  0.00    -0.238 OA 
HETATM   20  C   UNL     1      -6.771  16.090  68.889  1.00  0.00    -0.138 C  
HETATM   21  C   UNL     1     -10.343  18.351  67.007  1.00  0.00    -0.419 C  
HETATM   22  S   UNL     1      -8.190  16.975  65.986  1.00  0.00     0.004 SA 
HETATM   23  C   UNL     1      -9.816  16.253  68.125  1.00  0.00    -0.229 C  
HETATM   24  C   UNL     1      -6.617  16.758  66.921  1.00  0.00    -0.213 C  
ENDBRANCH   9  12
ENDBRANCH   1   8
BRANCH   1  25
HETATM   25  N   UNL     1      -9.187  12.678  65.619  1.00  0.00    -0.430 N  
HETATM   26  H   UNL     1      -8.644  12.382  64.809  1.00  0.00     0.000 HD 
BRANCH  25  27
HETATM   27  C   UNL     1     -10.273  13.509  65.447  1.00  0.00    -0.302 C  
HETATM   28  O   UNL     1     -10.407  14.561  66.069  1.00  0.00    -0.285 OA 
BRANCH  27  29
HETATM   29  N   UNL     1     -11.190  13.110  64.485  1.00  0.00    -0.337 N  
HETATM   30  C   UNL     1     -11.419  11.703  64.211  1.00  0.00    -0.250 C  
HETATM   31  C   UNL     1     -12.576  11.673  63.223  1.00  0.00    -0.112 C  
HETATM   32  C   UNL     1     -12.193  13.879  63.885  1.00  0.00    -0.328 C  
HETATM   33  O   UNL     1     -12.339  15.086  63.969  1.00  0.00    -0.706 OA 
HETATM   34  N   UNL     1     -13.012  13.039  63.151  1.00  0.00    -0.124 NA 
ENDBRANCH  27  29
ENDBRANCH  25  27
ENDBRANCH   1  25
TORSDOF 6
ENDMDL
MODEL      147
REMARK 921   NORMALIZED FREE ENERGY PREDICTED BY IDOCK:   -4.17 KCAL/MOL
REMARK 922        TOTAL FREE ENERGY PREDICTED BY IDOCK:   -7.73 KCAL/MOL
REMARK 923 INTER-LIGAND FREE ENERGY PREDICTED BY IDOCK:   -6.57 KCAL/MOL
REMARK 924 INTRA-LIGAND FREE ENERGY PREDICTED BY IDOCK:   -1.15 KCAL/MOL
REMARK 927      BINDING AFFINITY PREDICTED BY RF-SCORE:    0.00 PKD
ROOT
HETATM    1  CA  UNL     1      -9.332   9.293  65.601  1.00  0.00    -0.244 C  
ENDROOT
BRANCH   1   2
HETATM    2  C   UNL     1      -7.944   9.881  65.872  1.00  0.00    -0.115 A  
HETATM    3  C   UNL     1      -5.868  10.767  64.966  1.00  0.00    -0.002 A  
HETATM    4  C   UNL     1      -5.539  11.299  66.211  1.00  0.00    -0.131 A  
HETATM    5  C   UNL     1      -6.370  11.065  67.303  1.00  0.00    -0.069 A  
HETATM    6  C   UNL     1      -7.058  10.059  64.797  1.00  0.00    -0.137 A  
HETATM    7  C   UNL     1      -7.557  10.350  67.139  1.00  0.00    -0.096 A  
ENDBRANCH   1   2
BRANCH   1   8
HETATM    8  C   UNL     1     -10.383   9.905  66.612  1.00  0.00    -0.205 C  
HETATM    9  N   UNL     1     -10.856  11.167  66.304  1.00  0.00    -0.242 N  
HETATM   10  H   UNL     1     -10.501  11.603  65.453  1.00  0.00     0.000 HD 
HETATM   11  O   UNL     1     -10.763   9.306  67.617  1.00  0.00    -0.269 OA 
BRANCH   9  12
HETATM   12  CA  UNL     1     -11.854  11.957  67.119  1.00  0.00    -0.139 C  
HETATM   13  N   UNL     1     -11.937  14.092  67.344  1.00  0.00    -0.412 N  
HETATM   14  CA  UNL     1     -11.101  15.232  66.867  1.00  0.00    -0.288 C  
HETATM   15  C   UNL     1     -11.016  16.310  67.969  1.00  0.00    -0.328 C  
HETATM   16  O   UNL     1     -13.132  13.473  65.440  1.00  0.00    -0.663 OA 
HETATM   17  C   UNL     1      -9.736  14.636  66.458  1.00  0.00    -0.280 C  
HETATM   18  OXT UNL     1     -10.217  17.235  67.990  1.00  0.00    -0.297 OA 
HETATM   19  O   UNL     1     -12.005  16.223  68.895  1.00  0.00    -0.224 OA 
HETATM   20  C   UNL     1     -12.510  13.219  66.444  1.00  0.00    -0.165 C  
HETATM   21  C   UNL     1      -8.525  15.571  66.410  1.00  0.00    -0.226 C  
HETATM   22  S   UNL     1      -9.421  13.333  67.738  1.00  0.00    -0.216 SA 
HETATM   23  C   UNL     1      -9.795  13.992  65.061  1.00  0.00    -0.074 C  
HETATM   24  C   UNL     1     -11.209  13.020  68.060  1.00  0.00    -0.278 C  
ENDBRANCH   9  12
ENDBRANCH   1   8
BRANCH   1  25
HETATM   25  N   UNL     1      -9.302   7.828  65.571  1.00  0.00    -0.357 N  
HETATM   26  H   UNL     1     -10.022   7.317  65.060  1.00  0.00     0.000 HD 
BRANCH  25  27
HETATM   27  C   UNL     1      -8.308   7.136  66.228  1.00  0.00    -0.129 C  
HETATM   28  O   UNL     1      -7.187   6.974  65.751  1.00  0.00    -0.070 OA 
BRANCH  27  29
HETATM   29  N   UNL     1      -8.635   6.669  67.494  1.00  0.00    -0.120 N  
HETATM   30  C   UNL     1      -7.888   7.100  68.662  1.00  0.00    -0.122 C  
HETATM   31  C   UNL     1      -8.626   6.498  69.849  1.00  0.00    -0.139 C  
HETATM   32  C   UNL     1      -9.807   6.021  67.894  1.00  0.00    -0.120 C  
HETATM   33  O   UNL     1     -10.690   5.593  67.170  1.00  0.00    -0.264 OA 
HETATM   34  N   UNL     1      -9.810   5.926  69.275  1.00  0.00    -0.152 NA 
ENDBRANCH  27  29
ENDBRANCH  25  27
ENDBRANCH   1  25
TORSDOF 6
ENDMDL
MODEL      148
REMARK 921   NORMALIZED FREE ENERGY PREDICTED BY IDOCK:   -4.16 KCAL/MOL
REMARK 922        TOTAL FREE ENERGY PREDICTED BY IDOCK:   -7.71 KCAL/MOL
REMARK 923 INTER-LIGAND FREE ENERGY PREDICTED BY IDOCK:   -6.49 KCAL/MOL
REMARK 924 INTRA-LIGAND FREE ENERGY PREDICTED BY IDOCK:   -1.22 KCAL/MOL
REMARK 927      BINDING AFFINITY PREDICTED BY RF-SCORE:    0.00 PKD
ROOT
HETATM    1  CA  UNL     1     -10.682   9.649  68.527  1.00  0.00    -0.200 C  
ENDROOT
BRANCH   1   2
HETATM    2  C   UNL     1      -9.186   9.978  68.518  1.00  0.00    -0.141 A  
HETATM    3  C   UNL     1      -7.142  10.313  69.793  1.00  0.00    -0.140 A  
HETATM    4  C   UNL     1      -6.386  10.204  68.628  1.00  0.00    -0.052 A  
HETATM    5  C   UNL     1      -7.025  10.055  67.401  1.00  0.00    -0.083 A  
HETATM    6  C   UNL     1      -8.532  10.206  69.740  1.00  0.00    -0.147 A  
HETATM    7  C   UNL     1      -8.416   9.956  67.344  1.00  0.00    -0.118 A  
ENDBRANCH   1   2
BRANCH   1   8
HETATM    8  C   UNL     1     -11.519  10.950  68.851  1.00  0.00    -0.300 C  
HETATM    9  N   UNL     1     -11.538  11.921  67.866  1.00  0.00    -0.322 N  
HETATM   10  H   UNL     1     -11.021  11.724  67.009  1.00  0.00     0.000 HD 
HETATM   11  O   UNL     1     -12.120  11.105  69.914  1.00  0.00    -0.304 OA 
BRANCH   9  12
HETATM   12  CA  UNL     1     -12.257  13.248  67.950  1.00  0.00    -0.087 C  
HETATM   13  N   UNL     1     -11.507  15.165  67.337  1.00  0.00    -0.315 N  
HETATM   14  CA  UNL     1     -10.211  15.660  66.789  1.00  0.00    -0.276 C  
HETATM   15  C   UNL     1      -9.893  17.051  67.380  1.00  0.00    -0.262 C  
HETATM   16  O   UNL     1     -12.491  14.106  65.508  1.00  0.00    -0.457 OA 
HETATM   17  C   UNL     1      -9.156  14.578  67.111  1.00  0.00    -0.225 C  
HETATM   18  OXT UNL     1      -8.806  17.606  67.329  1.00  0.00    -0.231 OA 
HETATM   19  O   UNL     1     -10.980  17.690  67.882  1.00  0.00    -0.316 OA 
HETATM   20  C   UNL     1     -12.215  14.180  66.682  1.00  0.00    -0.418 C  
HETATM   21  C   UNL     1      -7.682  14.993  67.135  1.00  0.00    -0.202 C  
HETATM   22  S   UNL     1      -9.628  13.990  68.803  1.00  0.00    -0.026 SA 
HETATM   23  C   UNL     1      -9.222  13.407  66.113  1.00  0.00     0.008 C  
HETATM   24  C   UNL     1     -11.415  14.390  68.595  1.00  0.00    -0.287 C  
ENDBRANCH   9  12
ENDBRANCH   1   8
BRANCH   1  25
HETATM   25  N   UNL     1     -10.979   8.506  69.394  1.00  0.00    -0.427 N  
HETATM   26  H   UNL     1     -11.833   8.500  69.951  1.00  0.00     0.000 HD 
BRANCH  25  27
HETATM   27  C   UNL     1     -10.112   7.437  69.463  1.00  0.00    -0.187 C  
HETATM   28  O   UNL     1      -9.482   7.160  70.481  1.00  0.00    -0.162 OA 
BRANCH  27  29
HETATM   29  N   UNL     1     -10.028   6.655  68.320  1.00  0.00    -0.140 N  
HETATM   30  C   UNL     1     -11.222   6.282  67.582  1.00  0.00    -0.117 C  
HETATM   31  C   UNL     1     -10.714   5.565  66.340  1.00  0.00    -0.194 C  
HETATM   32  C   UNL     1      -8.892   6.369  67.557  1.00  0.00    -0.111 C  
HETATM   33  O   UNL     1      -7.734   6.614  67.849  1.00  0.00    -0.104 OA 
HETATM   34  N   UNL     1      -9.290   5.737  66.391  1.00  0.00    -0.153 NA 
ENDBRANCH  27  29
ENDBRANCH  25  27
ENDBRANCH   1  25
TORSDOF 6
ENDMDL
MODEL      149
REMARK 921   NORMALIZED FREE ENERGY PREDICTED BY IDOCK:   -4.15 KCAL/MOL
REMARK 922        TOTAL FREE ENERGY PREDICTED BY IDOCK:   -7.69 KCAL/MOL
REMARK 923 INTER-LIGAND FREE ENERGY PREDICTED BY IDOCK:   -7.04 KCAL/MOL
REMARK 924 INTRA-LIGAND FREE ENERGY PREDICTED BY IDOCK:   -0.66 KCAL/MOL
REMARK 927      BINDING AFFINITY PREDICTED BY RF-SCORE:    0.00 PKD
ROOT
HETATM    1  CA  UNL     1     -10.630   7.207  67.231  1.00  0.00    -0.327 C  
ENDROOT
BRANCH   1   2
HETATM    2  C   UNL     1      -9.981   6.016  66.518  1.00  0.00    -0.189 A  
HETATM    3  C   UNL     1     -10.274   3.990  65.205  1.00  0.00    -0.149 A  
HETATM    4  C   UNL     1      -8.922   4.000  64.869  1.00  0.00    -0.134 A  
HETATM    5  C   UNL     1      -8.083   4.969  65.409  1.00  0.00    -0.116 A  
HETATM    6  C   UNL     1     -10.800   4.987  66.027  1.00  0.00    -0.152 A  
HETATM    7  C   UNL     1      -8.606   5.964  66.238  1.00  0.00    -0.132 A  
ENDBRANCH   1   2
BRANCH   1   8
HETATM    8  C   UNL     1      -9.539   8.306  67.548  1.00  0.00    -0.154 C  
HETATM    9  N   UNL     1      -9.476   9.369  66.667  1.00  0.00    -0.165 N  
HETATM   10  H   UNL     1     -10.136   9.370  65.889  1.00  0.00     0.000 HD 
HETATM   11  O   UNL     1      -8.783   8.229  68.516  1.00  0.00    -0.132 OA 
BRANCH   9  12
HETATM   12  CA  UNL     1      -8.513  10.532  66.756  1.00  0.00    -0.127 C  
HETATM   13  N   UNL     1      -9.015  12.614  66.922  1.00  0.00    -0.215 N  
HETATM   14  CA  UNL     1     -10.289  13.391  66.932  1.00  0.00    -0.257 C  
HETATM   15  C   UNL     1     -10.092  14.720  66.171  1.00  0.00    -0.296 C  
HETATM   16  O   UNL     1      -8.950  11.667  69.052  1.00  0.00     0.021 OA 
HETATM   17  C   UNL     1     -11.370  12.468  66.328  1.00  0.00    -0.338 C  
HETATM   18  OXT UNL     1     -10.993  15.452  65.788  1.00  0.00    -0.330 OA 
HETATM   19  O   UNL     1      -8.793  15.092  66.050  1.00  0.00    -0.198 OA 
HETATM   20  C   UNL     1      -8.790  11.624  67.855  1.00  0.00    -0.155 C  
HETATM   21  C   UNL     1     -12.629  13.117  65.746  1.00  0.00    -0.351 C  
HETATM   22  S   UNL     1     -10.484  11.581  64.964  1.00  0.00    -0.303 SA 
HETATM   23  C   UNL     1     -11.890  11.452  67.362  1.00  0.00    -0.038 C  
HETATM   24  C   UNL     1      -8.831  11.699  65.773  1.00  0.00    -0.004 C  
ENDBRANCH   9  12
ENDBRANCH   1   8
BRANCH   1  25
HETATM   25  N   UNL     1     -11.415   6.778  68.392  1.00  0.00    -0.524 N  
HETATM   26  H   UNL     1     -12.422   6.936  68.409  1.00  0.00     0.000 HD 
BRANCH  25  27
HETATM   27  C   UNL     1     -10.801   6.163  69.461  1.00  0.00    -0.361 C  
HETATM   28  O   UNL     1     -10.139   5.134  69.343  1.00  0.00    -0.205 OA 
BRANCH  27  29
HETATM   29  N   UNL     1     -10.935   6.805  70.684  1.00  0.00    -0.252 N  
HETATM   30  C   UNL     1      -9.791   7.421  71.332  1.00  0.00    -0.185 C  
HETATM   31  C   UNL     1     -10.360   8.132  72.551  1.00  0.00    -0.330 C  
HETATM   32  C   UNL     1     -12.114   7.221  71.311  1.00  0.00    -0.338 C  
HETATM   33  O   UNL     1     -13.255   6.945  70.981  1.00  0.00    -0.234 OA 
HETATM   34  N   UNL     1     -11.781   8.006  72.401  1.00  0.00    -0.367 NA 
ENDBRANCH  27  29
ENDBRANCH  25  27
ENDBRANCH   1  25
TORSDOF 6
ENDMDL
MODEL      150
REMARK 921   NORMALIZED FREE ENERGY PREDICTED BY IDOCK:   -4.12 KCAL/MOL
REMARK 922        TOTAL FREE ENERGY PREDICTED BY IDOCK:   -7.66 KCAL/MOL
REMARK 923 INTER-LIGAND FREE ENERGY PREDICTED BY IDOCK:   -7.07 KCAL/MOL
REMARK 924 INTRA-LIGAND FREE ENERGY PREDICTED BY IDOCK:   -0.58 KCAL/MOL
REMARK 927      BINDING AFFINITY PREDICTED BY RF-SCORE:    0.00 PKD
ROOT
HETATM    1  CA  UNL     1      -9.189   9.327  70.952  1.00  0.00    -0.233 C  
ENDROOT
BRANCH   1   2
HETATM    2  C   UNL     1     -10.719   9.409  70.959  1.00  0.00    -0.407 A  
HETATM    3  C   UNL     1     -12.836   8.380  71.571  1.00  0.00    -0.322 A  
HETATM    4  C   UNL     1     -13.494   9.591  71.371  1.00  0.00    -0.405 A  
HETATM    5  C   UNL     1     -12.787  10.692  70.899  1.00  0.00    -0.473 A  
HETATM    6  C   UNL     1     -11.460   8.286  71.361  1.00  0.00    -0.314 A  
HETATM    7  C   UNL     1     -11.411  10.600  70.682  1.00  0.00    -0.374 A  
ENDBRANCH   1   2
BRANCH   1   8
HETATM    8  C   UNL     1      -8.654   9.365  69.465  1.00  0.00    -0.158 C  
HETATM    9  N   UNL     1      -9.602   9.596  68.485  1.00  0.00    -0.144 N  
HETATM   10  H   UNL     1     -10.565   9.731  68.792  1.00  0.00     0.000 HD 
HETATM   11  O   UNL     1      -7.468   9.197  69.183  1.00  0.00    -0.070 OA 
BRANCH   9  12
HETATM   12  CA  UNL     1      -9.334   9.667  66.999  1.00  0.00    -0.147 C  
HETATM   13  N   UNL     1      -9.424  11.415  65.752  1.00  0.00    -0.229 N  
HETATM   14  CA  UNL     1      -9.788  12.844  65.971  1.00  0.00    -0.255 C  
HETATM   15  C   UNL     1     -10.548  13.381  64.739  1.00  0.00    -0.405 C  
HETATM   16  O   UNL     1      -7.298  11.254  66.698  1.00  0.00    -0.142 OA 
HETATM   17  C   UNL     1     -10.597  12.895  67.286  1.00  0.00    -0.234 C  
HETATM   18  OXT UNL     1     -11.192  14.419  64.707  1.00  0.00    -0.366 OA 
HETATM   19  O   UNL     1     -10.350  12.648  63.614  1.00  0.00    -0.399 OA 
HETATM   20  C   UNL     1      -8.409  10.830  66.480  1.00  0.00    -0.146 C  
HETATM   21  C   UNL     1     -11.520  14.093  67.520  1.00  0.00    -0.365 C  
HETATM   22  S   UNL     1     -11.632  11.359  67.229  1.00  0.00    -0.030 SA 
HETATM   23  C   UNL     1      -9.676  12.859  68.520  1.00  0.00    -0.129 C  
HETATM   24  C   UNL     1     -10.432  10.422  66.189  1.00  0.00    -0.154 C  
ENDBRANCH   9  12
ENDBRANCH   1   8
BRANCH   1  25
HETATM   25  N   UNL     1      -8.706   8.191  71.742  1.00  0.00    -0.136 N  
HETATM   26  H   UNL     1      -8.849   8.178  72.752  1.00  0.00     0.000 HD 
BRANCH  25  27
HETATM   27  C   UNL     1      -8.059   7.140  71.130  1.00  0.00    -0.104 C  
HETATM   28  O   UNL     1      -6.834   7.055  71.079  1.00  0.00    -0.055 OA 
BRANCH  27  29
HETATM   29  N   UNL     1      -8.879   6.146  70.613  1.00  0.00    -0.142 N  
HETATM   30  C   UNL     1      -8.783   5.751  69.220  1.00  0.00    -0.113 C  
HETATM   31  C   UNL     1      -9.721   4.561  69.078  1.00  0.00    -0.165 C  
HETATM   32  C   UNL     1      -9.646   5.214  71.318  1.00  0.00    -0.162 C  
HETATM   33  O   UNL     1      -9.872   5.208  72.516  1.00  0.00    -0.155 OA 
HETATM   34  N   UNL     1     -10.135   4.278  70.423  1.00  0.00    -0.139 NA 
ENDBRANCH  27  29
ENDBRANCH  25  27
ENDBRANCH   1  25
TORSDOF 6
ENDMDL
MODEL      151
REMARK 921   NORMALIZED FREE ENERGY PREDICTED BY IDOCK:   -4.11 KCAL/MOL
REMARK 922        TOTAL FREE ENERGY PREDICTED BY IDOCK:   -7.65 KCAL/MOL
REMARK 923 INTER-LIGAND FREE ENERGY PREDICTED BY IDOCK:   -6.39 KCAL/MOL
REMARK 924 INTRA-LIGAND FREE ENERGY PREDICTED BY IDOCK:   -1.26 KCAL/MOL
REMARK 927      BINDING AFFINITY PREDICTED BY RF-SCORE:    0.00 PKD
ROOT
HETATM    1  CA  UNL     1     -10.036   7.915  72.251  1.00  0.00    -0.236 C  
ENDROOT
BRANCH   1   2
HETATM    2  C   UNL     1     -11.311   8.712  71.958  1.00  0.00    -0.432 A  
HETATM    3  C   UNL     1     -12.371  10.529  70.737  1.00  0.00    -0.474 A  
HETATM    4  C   UNL     1     -13.628  10.020  71.050  1.00  0.00    -0.137 A  
HETATM    5  C   UNL     1     -13.737   8.902  71.872  1.00  0.00    -0.488 A  
HETATM    6  C   UNL     1     -11.219   9.885  71.191  1.00  0.00    -0.404 A  
HETATM    7  C   UNL     1     -12.586   8.260  72.334  1.00  0.00    -0.323 A  
ENDBRANCH   1   2
BRANCH   1   8
HETATM    8  C   UNL     1      -9.595   7.111  70.964  1.00  0.00    -0.158 C  
HETATM    9  N   UNL     1      -8.682   7.741  70.138  1.00  0.00    -0.139 N  
HETATM   10  H   UNL     1      -8.359   8.666  70.422  1.00  0.00     0.000 HD 
HETATM   11  O   UNL     1     -10.032   5.991  70.699  1.00  0.00    -0.176 OA 
BRANCH   9  12
HETATM   12  CA  UNL     1      -8.121   7.179  68.852  1.00  0.00    -0.121 C  
HETATM   13  N   UNL     1      -7.988   8.177  66.955  1.00  0.00    -0.102 N  
HETATM   14  CA  UNL     1      -8.414   9.510  66.436  1.00  0.00    -0.126 C  
HETATM   15  C   UNL     1      -8.919   9.364  64.984  1.00  0.00    -0.211 C  
HETATM   16  O   UNL     1      -6.095   8.678  68.222  1.00  0.00    -0.048 OA 
HETATM   17  C   UNL     1      -9.473  10.047  67.425  1.00  0.00    -0.152 C  
HETATM   18  OXT UNL     1      -9.561  10.206  64.375  1.00  0.00    -0.287 OA 
HETATM   19  O   UNL     1      -8.485   8.237  64.367  1.00  0.00    -0.120 OA 
HETATM   20  C   UNL     1      -7.131   8.085  68.031  1.00  0.00    -0.086 C  
HETATM   21  C   UNL     1     -10.445  11.119  66.927  1.00  0.00    -0.289 C  
HETATM   22  S   UNL     1     -10.447   8.542  67.891  1.00  0.00    -0.164 SA 
HETATM   23  C   UNL     1      -8.819  10.657  68.679  1.00  0.00    -0.151 C  
HETATM   24  C   UNL     1      -9.046   7.377  67.613  1.00  0.00    -0.125 C  
ENDBRANCH   9  12
ENDBRANCH   1   8
BRANCH   1  25
HETATM   25  N   UNL     1     -10.178   7.096  73.458  1.00  0.00    -0.316 N  
HETATM   26  H   UNL     1     -11.017   7.180  74.032  1.00  0.00     0.000 HD 
BRANCH  25  27
HETATM   27  C   UNL     1      -9.186   6.213  73.824  1.00  0.00    -0.129 C  
HETATM   28  O   UNL     1      -8.090   6.583  74.241  1.00  0.00    -0.119 OA 
BRANCH  27  29
HETATM   29  N   UNL     1      -9.516   4.867  73.742  1.00  0.00    -0.127 N  
HETATM   30  C   UNL     1     -10.900   4.433  73.815  1.00  0.00    -0.287 C  
HETATM   31  C   UNL     1     -10.862   2.936  73.545  1.00  0.00    -0.213 C  
HETATM   32  C   UNL     1      -8.712   3.811  73.302  1.00  0.00    -0.087 C  
HETATM   33  O   UNL     1      -7.516   3.850  73.070  1.00  0.00    -0.068 OA 
HETATM   34  N   UNL     1      -9.499   2.680  73.177  1.00  0.00    -0.088 NA 
ENDBRANCH  27  29
ENDBRANCH  25  27
ENDBRANCH   1  25
TORSDOF 6
ENDMDL
MODEL      152
REMARK 921   NORMALIZED FREE ENERGY PREDICTED BY IDOCK:   -4.10 KCAL/MOL
REMARK 922        TOTAL FREE ENERGY PREDICTED BY IDOCK:   -7.63 KCAL/MOL
REMARK 923 INTER-LIGAND FREE ENERGY PREDICTED BY IDOCK:   -5.84 KCAL/MOL
REMARK 924 INTRA-LIGAND FREE ENERGY PREDICTED BY IDOCK:   -1.79 KCAL/MOL
REMARK 927      BINDING AFFINITY PREDICTED BY RF-SCORE:    0.00 PKD
ROOT
HETATM    1  CA  UNL     1      -8.354   6.535  66.684  1.00  0.00    -0.113 C  
ENDROOT
BRANCH   1   2
HETATM    2  C   UNL     1      -9.093   6.549  68.025  1.00  0.00    -0.114 A  
HETATM    3  C   UNL     1     -11.201   6.335  69.219  1.00  0.00    -0.458 A  
HETATM    4  C   UNL     1     -10.516   6.185  70.422  1.00  0.00    -0.288 A  
HETATM    5  C   UNL     1      -9.128   6.286  70.445  1.00  0.00    -0.157 A  
HETATM    6  C   UNL     1     -10.497   6.521  68.029  1.00  0.00    -0.265 A  
HETATM    7  C   UNL     1      -8.422   6.480  69.257  1.00  0.00    -0.127 A  
ENDBRANCH   1   2
BRANCH   1   8
HETATM    8  C   UNL     1      -7.705   7.950  66.410  1.00  0.00    -0.096 C  
HETATM    9  N   UNL     1      -8.589   9.002  66.251  1.00  0.00    -0.124 N  
HETATM   10  H   UNL     1      -9.583   8.790  66.327  1.00  0.00     0.000 HD 
HETATM   11  O   UNL     1      -6.488   8.120  66.338  1.00  0.00    -0.049 OA 
BRANCH   9  12
HETATM   12  CA  UNL     1      -8.209  10.438  65.973  1.00  0.00    -0.144 C  
HETATM   13  N   UNL     1      -8.665  12.153  67.185  1.00  0.00    -0.183 N  
HETATM   14  CA  UNL     1      -9.437  12.376  68.442  1.00  0.00    -0.169 C  
HETATM   15  C   UNL     1     -10.194  13.719  68.355  1.00  0.00    -0.248 C  
HETATM   16  O   UNL     1      -6.683  11.184  67.940  1.00  0.00    -0.062 OA 
HETATM   17  C   UNL     1     -10.351  11.144  68.620  1.00  0.00    -0.203 C  
HETATM   18  OXT UNL     1     -11.098  14.067  69.100  1.00  0.00    -0.253 OA 
HETATM   19  O   UNL     1      -9.689  14.570  67.426  1.00  0.00    -0.218 OA 
HETATM   20  C   UNL     1      -7.602  11.275  67.161  1.00  0.00    -0.137 C  
HETATM   21  C   UNL     1     -11.593  11.289  69.504  1.00  0.00    -0.398 C  
HETATM   22  S   UNL     1     -10.901  10.747  66.896  1.00  0.00    -0.186 SA 
HETATM   23  C   UNL     1      -9.581   9.948  69.212  1.00  0.00    -0.215 C  
HETATM   24  C   UNL     1      -9.390  11.447  66.104  1.00  0.00    -0.215 C  
ENDBRANCH   9  12
ENDBRANCH   1   8
BRANCH   1  25
HETATM   25  N   UNL     1      -9.209   6.041  65.601  1.00  0.00    -0.359 N  
HETATM   26  H   UNL     1     -10.223   6.065  65.705  1.00  0.00     0.000 HD 
BRANCH  25  27
HETATM   27  C   UNL     1      -8.653   5.544  64.442  1.00  0.00    -0.025 C  
HETATM   28  O   UNL     1      -8.028   6.248  63.652  1.00  0.00    -0.113 OA 
BRANCH  27  29
HETATM   29  N   UNL     1      -8.798   4.178  64.242  1.00  0.00    -0.133 N  
HETATM   30  C   UNL     1      -7.677   3.274  64.425  1.00  0.00    -0.077 C  
HETATM   31  C   UNL     1      -8.261   1.879  64.259  1.00  0.00    -0.074 C  
HETATM   32  C   UNL     1      -9.986   3.446  64.148  1.00  0.00    -0.185 C  
HETATM   33  O   UNL     1     -11.116   3.894  64.055  1.00  0.00    -0.312 OA 
HETATM   34  N   UNL     1      -9.676   2.098  64.166  1.00  0.00    -0.140 NA 
ENDBRANCH  27  29
ENDBRANCH  25  27
ENDBRANCH   1  25
TORSDOF 6
ENDMDL
MODEL      153
REMARK 921   NORMALIZED FREE ENERGY PREDICTED BY IDOCK:   -4.09 KCAL/MOL
REMARK 922        TOTAL FREE ENERGY PREDICTED BY IDOCK:   -7.62 KCAL/MOL
REMARK 923 INTER-LIGAND FREE ENERGY PREDICTED BY IDOCK:   -6.98 KCAL/MOL
REMARK 924 INTRA-LIGAND FREE ENERGY PREDICTED BY IDOCK:   -0.64 KCAL/MOL
REMARK 927      BINDING AFFINITY PREDICTED BY RF-SCORE:    0.00 PKD
ROOT
HETATM    1  CA  UNL     1      -8.021  12.025  67.559  1.00  0.00    -0.159 C  
ENDROOT
BRANCH   1   2
HETATM    2  C   UNL     1      -8.761  10.796  68.095  1.00  0.00    -0.130 A  
HETATM    3  C   UNL     1     -10.846   9.830  68.893  1.00  0.00    -0.220 A  
HETATM    4  C   UNL     1     -10.324   8.548  68.734  1.00  0.00    -0.233 A  
HETATM    5  C   UNL     1      -9.004   8.384  68.326  1.00  0.00    -0.139 A  
HETATM    6  C   UNL     1     -10.070  10.947  68.581  1.00  0.00    -0.200 A  
HETATM    7  C   UNL     1      -8.223   9.500  68.021  1.00  0.00    -0.114 A  
ENDBRANCH   1   2
BRANCH   1   8
HETATM    8  C   UNL     1      -7.897  13.118  68.695  1.00  0.00    -0.056 C  
HETATM    9  N   UNL     1      -8.739  14.209  68.582  1.00  0.00    -0.278 N  
HETATM   10  H   UNL     1      -9.376  14.225  67.785  1.00  0.00     0.000 HD 
HETATM   11  O   UNL     1      -7.101  13.017  69.628  1.00  0.00     0.160 OA 
BRANCH   9  12
HETATM   12  CA  UNL     1      -8.797  15.380  69.535  1.00  0.00    -0.217 C  
HETATM   13  N   UNL     1      -8.611  17.462  69.038  1.00  0.00    -0.130 N  
HETATM   14  CA  UNL     1      -8.345  18.223  67.782  1.00  0.00    -0.255 C  
HETATM   15  C   UNL     1      -7.444  19.437  68.092  1.00  0.00    -0.293 C  
HETATM   16  O   UNL     1     -10.839  16.814  68.808  1.00  0.00    -0.328 OA 
HETATM   17  C   UNL     1      -7.733  17.218  66.781  1.00  0.00    -0.244 C  
HETATM   18  OXT UNL     1      -6.849  20.103  67.257  1.00  0.00    -0.216 OA 
HETATM   19  O   UNL     1      -7.448  19.800  69.399  1.00  0.00    -0.295 OA 
HETATM   20  C   UNL     1      -9.691  16.610  69.126  1.00  0.00    -0.226 C  
HETATM   21  C   UNL     1      -6.906  17.772  65.618  1.00  0.00    -0.109 C  
HETATM   22  S   UNL     1      -6.633  16.161  67.832  1.00  0.00    -0.152 SA 
HETATM   23  C   UNL     1      -8.817  16.347  66.118  1.00  0.00    -0.349 C  
HETATM   24  C   UNL     1      -7.631  16.401  69.363  1.00  0.00    -0.098 C  
ENDBRANCH   9  12
ENDBRANCH   1   8
BRANCH   1  25
HETATM   25  N   UNL     1      -8.617  12.513  66.312  1.00  0.00    -0.403 N  
HETATM   26  H   UNL     1      -8.695  13.516  66.145  1.00  0.00     0.000 HD 
BRANCH  25  27
HETATM   27  C   UNL     1      -9.072  11.626  65.362  1.00  0.00     0.002 C  
HETATM   28  O   UNL     1      -8.411  10.661  64.985  1.00  0.00    -0.169 OA 
BRANCH  27  29
HETATM   29  N   UNL     1     -10.355  11.859  64.885  1.00  0.00    -0.275 N  
HETATM   30  C   UNL     1     -11.308  12.633  65.659  1.00  0.00    -0.322 C  
HETATM   31  C   UNL     1     -12.523  12.787  64.755  1.00  0.00    -0.472 C  
HETATM   32  C   UNL     1     -10.830  11.691  63.581  1.00  0.00    -0.432 C  
HETATM   33  O   UNL     1     -10.251  11.147  62.655  1.00  0.00    -0.096 OA 
HETATM   34  N   UNL     1     -12.097  12.241  63.498  1.00  0.00    -0.532 NA 
ENDBRANCH  27  29
ENDBRANCH  25  27
ENDBRANCH   1  25
TORSDOF 6
ENDMDL
MODEL      154
REMARK 921   NORMALIZED FREE ENERGY PREDICTED BY IDOCK:   -4.05 KCAL/MOL
REMARK 922        TOTAL FREE ENERGY PREDICTED BY IDOCK:   -7.56 KCAL/MOL
REMARK 923 INTER-LIGAND FREE ENERGY PREDICTED BY IDOCK:   -6.20 KCAL/MOL
REMARK 924 INTRA-LIGAND FREE ENERGY PREDICTED BY IDOCK:   -1.37 KCAL/MOL
REMARK 927      BINDING AFFINITY PREDICTED BY RF-SCORE:    0.00 PKD
ROOT
HETATM    1  CA  UNL     1      -7.992  13.318  67.342  1.00  0.00    -0.170 C  
ENDROOT
BRANCH   1   2
HETATM    2  C   UNL     1      -9.408  13.099  66.799  1.00  0.00    -0.244 A  
HETATM    3  C   UNL     1     -11.700  12.412  67.235  1.00  0.00    -0.419 A  
HETATM    4  C   UNL     1     -12.114  13.000  66.043  1.00  0.00    -0.493 A  
HETATM    5  C   UNL     1     -11.174  13.575  65.192  1.00  0.00    -0.320 A  
HETATM    6  C   UNL     1     -10.357  12.455  67.609  1.00  0.00    -0.223 A  
HETATM    7  C   UNL     1      -9.828  13.613  65.561  1.00  0.00    -0.175 A  
ENDBRANCH   1   2
BRANCH   1   8
HETATM    8  C   UNL     1      -7.014  12.225  66.752  1.00  0.00     0.189 C  
HETATM    9  N   UNL     1      -7.582  11.301  65.895  1.00  0.00    -0.366 N  
HETATM   10  H   UNL     1      -8.579  11.396  65.703  1.00  0.00     0.000 HD 
HETATM   11  O   UNL     1      -5.816  12.187  67.033  1.00  0.00    -0.170 OA 
BRANCH   9  12
HETATM   12  CA  UNL     1      -6.854  10.163  65.218  1.00  0.00    -0.137 C  
HETATM   13  N   UNL     1      -7.395   8.084  65.247  1.00  0.00    -0.068 N  
HETATM   14  CA  UNL     1      -8.467   7.286  65.911  1.00  0.00    -0.144 C  
HETATM   15  C   UNL     1      -7.898   5.922  66.356  1.00  0.00    -0.101 C  
HETATM   16  O   UNL     1      -8.522   9.146  63.503  1.00  0.00    -0.188 OA 
HETATM   17  C   UNL     1      -9.009   8.155  67.067  1.00  0.00    -0.141 C  
HETATM   18  OXT UNL     1      -8.440   5.154  67.137  1.00  0.00    -0.107 OA 
HETATM   19  O   UNL     1      -6.761   5.567  65.706  1.00  0.00    -0.052 OA 
HETATM   20  C   UNL     1      -7.716   9.127  64.405  1.00  0.00    -0.119 C  
HETATM   21  C   UNL     1      -9.734   7.453  68.218  1.00  0.00    -0.159 C  
HETATM   22  S   UNL     1      -7.496   8.983  67.745  1.00  0.00    -0.085 SA 
HETATM   23  C   UNL     1     -10.003   9.217  66.561  1.00  0.00    -0.359 C  
HETATM   24  C   UNL     1      -6.584   8.938  66.144  1.00  0.00    -0.065 C  
ENDBRANCH   9  12
ENDBRANCH   1   8
BRANCH   1  25
HETATM   25  N   UNL     1      -7.984  13.414  68.804  1.00  0.00    -0.320 N  
HETATM   26  H   UNL     1      -8.374  12.655  69.364  1.00  0.00     0.000 HD 
BRANCH  25  27
HETATM   27  C   UNL     1      -7.452  14.520  69.429  1.00  0.00    -0.068 C  
HETATM   28  O   UNL     1      -6.396  14.483  70.058  1.00  0.00    -0.145 OA 
BRANCH  27  29
HETATM   29  N   UNL     1      -8.160  15.703  69.265  1.00  0.00    -0.233 N  
HETATM   30  C   UNL     1      -7.558  16.846  68.602  1.00  0.00    -0.232 C  
HETATM   31  C   UNL     1      -8.675  17.874  68.490  1.00  0.00    -0.292 C  
HETATM   32  C   UNL     1      -9.537  15.905  69.399  1.00  0.00    -0.265 C  
HETATM   33  O   UNL     1     -10.351  15.118  69.852  1.00  0.00    -0.246 OA 
HETATM   34  N   UNL     1      -9.844  17.173  68.938  1.00  0.00    -0.279 NA 
ENDBRANCH  27  29
ENDBRANCH  25  27
ENDBRANCH   1  25
TORSDOF 6
ENDMDL
MODEL      155
REMARK 921   NORMALIZED FREE ENERGY PREDICTED BY IDOCK:   -4.05 KCAL/MOL
REMARK 922        TOTAL FREE ENERGY PREDICTED BY IDOCK:   -7.56 KCAL/MOL
REMARK 923 INTER-LIGAND FREE ENERGY PREDICTED BY IDOCK:   -6.20 KCAL/MOL
REMARK 924 INTRA-LIGAND FREE ENERGY PREDICTED BY IDOCK:   -1.36 KCAL/MOL
REMARK 927      BINDING AFFINITY PREDICTED BY RF-SCORE:    0.00 PKD
ROOT
HETATM    1  CA  UNL     1      -8.293   9.428  69.003  1.00  0.00    -0.124 C  
ENDROOT
BRANCH   1   2
HETATM    2  C   UNL     1      -8.987   8.941  70.278  1.00  0.00    -0.201 A  
HETATM    3  C   UNL     1      -8.780   8.226  72.594  1.00  0.00    -0.291 A  
HETATM    4  C   UNL     1     -10.150   8.397  72.780  1.00  0.00    -0.268 A  
HETATM    5  C   UNL     1     -10.952   8.770  71.706  1.00  0.00    -0.415 A  
HETATM    6  C   UNL     1      -8.202   8.490  71.352  1.00  0.00    -0.186 A  
HETATM    7  C   UNL     1     -10.377   9.028  70.460  1.00  0.00    -0.266 A  
ENDBRANCH   1   2
BRANCH   1   8
HETATM    8  C   UNL     1      -8.071  10.992  69.073  1.00  0.00    -0.104 C  
HETATM    9  N   UNL     1      -9.017  11.768  68.431  1.00  0.00    -0.208 N  
HETATM   10  H   UNL     1      -9.785  11.279  67.969  1.00  0.00     0.000 HD 
HETATM   11  O   UNL     1      -7.115  11.501  69.659  1.00  0.00    -0.053 OA 
BRANCH   9  12
HETATM   12  CA  UNL     1      -9.014  13.277  68.353  1.00  0.00    -0.124 C  
HETATM   13  N   UNL     1     -10.406  14.519  67.286  1.00  0.00    -0.259 N  
HETATM   14  CA  UNL     1     -11.573  14.262  66.393  1.00  0.00    -0.372 C  
HETATM   15  C   UNL     1     -11.597  15.307  65.257  1.00  0.00    -0.139 C  
HETATM   16  O   UNL     1     -11.251  14.069  69.413  1.00  0.00    -0.252 OA 
HETATM   17  C   UNL     1     -11.443  12.801  65.909  1.00  0.00    -0.356 C  
HETATM   18  OXT UNL     1     -12.265  15.222  64.237  1.00  0.00    -0.539 OA 
HETATM   19  O   UNL     1     -10.882  16.427  65.531  1.00  0.00    -0.307 OA 
HETATM   20  C   UNL     1     -10.384  14.022  68.572  1.00  0.00    -0.247 C  
HETATM   21  C   UNL     1     -12.172  12.399  64.624  1.00  0.00    -0.499 C  
HETATM   22  S   UNL     1      -9.622  12.584  65.643  1.00  0.00    -0.008 SA 
HETATM   23  C   UNL     1     -11.937  11.805  66.974  1.00  0.00     0.066 C  
HETATM   24  C   UNL     1      -9.146  13.841  66.905  1.00  0.00    -0.242 C  
ENDBRANCH   9  12
ENDBRANCH   1   8
BRANCH   1  25
HETATM   25  N   UNL     1      -8.990   8.968  67.799  1.00  0.00    -0.128 N  
HETATM   26  H   UNL     1     -10.010   8.967  67.774  1.00  0.00     0.000 HD 
BRANCH  25  27
HETATM   27  C   UNL     1      -8.279   8.538  66.701  1.00  0.00    -0.108 C  
HETATM   28  O   UNL     1      -7.951   9.291  65.787  1.00  0.00    -0.106 OA 
BRANCH  27  29
HETATM   29  N   UNL     1      -7.908   7.200  66.709  1.00  0.00    -0.101 N  
HETATM   30  C   UNL     1      -8.890   6.153  66.491  1.00  0.00    -0.133 C  
HETATM   31  C   UNL     1      -8.087   4.862  66.430  1.00  0.00    -0.107 C  
HETATM   32  C   UNL     1      -6.619   6.667  66.620  1.00  0.00    -0.044 C  
HETATM   33  O   UNL     1      -5.567   7.279  66.688  1.00  0.00    -0.022 OA 
HETATM   34  N   UNL     1      -6.719   5.297  66.447  1.00  0.00    -0.056 NA 
ENDBRANCH  27  29
ENDBRANCH  25  27
ENDBRANCH   1  25
TORSDOF 6
ENDMDL
MODEL      156
REMARK 921   NORMALIZED FREE ENERGY PREDICTED BY IDOCK:   -4.02 KCAL/MOL
REMARK 922        TOTAL FREE ENERGY PREDICTED BY IDOCK:   -7.53 KCAL/MOL
REMARK 923 INTER-LIGAND FREE ENERGY PREDICTED BY IDOCK:   -6.48 KCAL/MOL
REMARK 924 INTRA-LIGAND FREE ENERGY PREDICTED BY IDOCK:   -1.05 KCAL/MOL
REMARK 927      BINDING AFFINITY PREDICTED BY RF-SCORE:    0.00 PKD
ROOT
HETATM    1  CA  UNL     1      -9.289  10.469  65.635  1.00  0.00    -0.200 C  
ENDROOT
BRANCH   1   2
HETATM    2  C   UNL     1      -9.975  11.012  66.892  1.00  0.00    -0.231 A  
HETATM    3  C   UNL     1     -10.281  12.866  68.437  1.00  0.00    -0.238 A  
HETATM    4  C   UNL     1     -11.424  12.260  68.953  1.00  0.00    -0.355 A  
HETATM    5  C   UNL     1     -11.807  11.003  68.496  1.00  0.00    -0.286 A  
HETATM    6  C   UNL     1      -9.557  12.245  67.418  1.00  0.00    -0.179 A  
HETATM    7  C   UNL     1     -11.081  10.377  67.482  1.00  0.00    -0.336 A  
ENDBRANCH   1   2
BRANCH   1   8
HETATM    8  C   UNL     1      -7.881   9.858  66.010  1.00  0.00    -0.111 C  
HETATM    9  N   UNL     1      -7.737   9.421  67.314  1.00  0.00    -0.092 N  
HETATM   10  H   UNL     1      -8.544   9.518  67.929  1.00  0.00     0.000 HD 
HETATM   11  O   UNL     1      -6.957   9.773  65.200  1.00  0.00    -0.104 OA 
BRANCH   9  12
HETATM   12  CA  UNL     1      -6.487   8.811  67.907  1.00  0.00    -0.057 C  
HETATM   13  N   UNL     1      -6.289   6.855  68.772  1.00  0.00    -0.027 N  
HETATM   14  CA  UNL     1      -7.226   5.727  69.047  1.00  0.00    -0.078 C  
HETATM   15  C   UNL     1      -6.856   5.059  70.388  1.00  0.00    -0.044 C  
HETATM   16  O   UNL     1      -5.944   6.715  66.470  1.00  0.00    -0.026 OA 
HETATM   17  C   UNL     1      -8.652   6.321  69.007  1.00  0.00    -0.123 C  
HETATM   18  OXT UNL     1      -7.568   4.284  71.009  1.00  0.00    -0.056 OA 
HETATM   19  O   UNL     1      -5.585   5.313  70.791  1.00  0.00    -0.004 OA 
HETATM   20  C   UNL     1      -6.127   7.337  67.490  1.00  0.00    -0.042 C  
HETATM   21  C   UNL     1      -9.770   5.563  69.726  1.00  0.00    -0.236 C  
HETATM   22  S   UNL     1      -8.461   7.982  69.806  1.00  0.00    -0.128 SA 
HETATM   23  C   UNL     1      -9.154   6.492  67.561  1.00  0.00    -0.115 C  
HETATM   24  C   UNL     1      -6.695   8.172  69.313  1.00  0.00    -0.040 C  
ENDBRANCH   9  12
ENDBRANCH   1   8
BRANCH   1  25
HETATM   25  N   UNL     1      -9.250  11.471  64.566  1.00  0.00    -0.413 N  
HETATM   26  H   UNL     1      -8.380  11.964  64.365  1.00  0.00     0.000 HD 
BRANCH  25  27
HETATM   27  C   UNL     1     -10.380  11.753  63.831  1.00  0.00    -0.385 C  
HETATM   28  O   UNL     1     -10.645  11.178  62.777  1.00  0.00    -0.015 OA 
BRANCH  27  29
HETATM   29  N   UNL     1     -11.236  12.699  64.379  1.00  0.00    -0.326 N  
HETATM   30  C   UNL     1     -10.762  14.032  64.706  1.00  0.00    -0.427 C  
HETATM   31  C   UNL     1     -12.003  14.800  65.137  1.00  0.00    -0.278 C  
HETATM   32  C   UNL     1     -12.633  12.669  64.423  1.00  0.00    -0.387 C  
HETATM   33  O   UNL     1     -13.354  11.727  64.140  1.00  0.00    -0.521 OA 
HETATM   34  N   UNL     1     -13.087  13.901  64.859  1.00  0.00    -0.621 NA 
ENDBRANCH  27  29
ENDBRANCH  25  27
ENDBRANCH   1  25
TORSDOF 6
ENDMDL
MODEL      157
REMARK 921   NORMALIZED FREE ENERGY PREDICTED BY IDOCK:   -4.02 KCAL/MOL
REMARK 922        TOTAL FREE ENERGY PREDICTED BY IDOCK:   -7.52 KCAL/MOL
REMARK 923 INTER-LIGAND FREE ENERGY PREDICTED BY IDOCK:   -6.24 KCAL/MOL
REMARK 924 INTRA-LIGAND FREE ENERGY PREDICTED BY IDOCK:   -1.27 KCAL/MOL
REMARK 927      BINDING AFFINITY PREDICTED BY RF-SCORE:    0.00 PKD
ROOT
HETATM    1  CA  UNL     1      -6.476  13.097  68.927  1.00  0.00    -0.097 C  
ENDROOT
BRANCH   1   2
HETATM    2  C   UNL     1      -5.875  13.756  70.172  1.00  0.00    -0.142 A  
HETATM    3  C   UNL     1      -5.252  15.806  71.322  1.00  0.00    -0.065 A  
HETATM    4  C   UNL     1      -5.140  15.110  72.524  1.00  0.00    -0.023 A  
HETATM    5  C   UNL     1      -5.323  13.731  72.543  1.00  0.00    -0.150 A  
HETATM    6  C   UNL     1      -5.612  15.135  70.153  1.00  0.00    -0.129 A  
HETATM    7  C   UNL     1      -5.675  13.056  71.373  1.00  0.00     0.121 A  
ENDBRANCH   1   2
BRANCH   1   8
HETATM    8  C   UNL     1      -7.214  14.182  68.045  1.00  0.00    -0.143 C  
HETATM    9  N   UNL     1      -8.577  14.300  68.245  1.00  0.00    -0.170 N  
HETATM   10  H   UNL     1      -9.000  13.690  68.945  1.00  0.00     0.000 HD 
HETATM   11  O   UNL     1      -6.623  14.883  67.224  1.00  0.00    -0.297 OA 
BRANCH   9  12
HETATM   12  CA  UNL     1      -9.495  15.256  67.518  1.00  0.00    -0.202 C  
HETATM   13  N   UNL     1     -11.269  14.756  66.414  1.00  0.00    -0.341 N  
HETATM   14  CA  UNL     1     -11.960  13.484  66.056  1.00  0.00    -0.409 C  
HETATM   15  C   UNL     1     -12.532  13.588  64.626  1.00  0.00    -0.323 C  
HETATM   16  O   UNL     1     -11.819  15.050  68.661  1.00  0.00    -0.327 OA 
HETATM   17  C   UNL     1     -10.923  12.353  66.243  1.00  0.00    -0.286 C  
HETATM   18  OXT UNL     1     -12.927  12.646  63.955  1.00  0.00    -0.712 OA 
HETATM   19  O   UNL     1     -12.679  14.865  64.189  1.00  0.00    -0.750 OA 
HETATM   20  C   UNL     1     -11.044  15.086  67.734  1.00  0.00    -0.310 C  
HETATM   21  C   UNL     1     -11.151  11.035  65.498  1.00  0.00     0.001 C  
HETATM   22  S   UNL     1      -9.339  13.102  65.640  1.00  0.00     0.378 SA 
HETATM   23  C   UNL     1     -10.783  11.953  67.723  1.00  0.00    -0.243 C  
HETATM   24  C   UNL     1      -9.833  14.828  66.058  1.00  0.00    -0.324 C  
ENDBRANCH   9  12
ENDBRANCH   1   8
BRANCH   1  25
HETATM   25  N   UNL     1      -7.300  11.936  69.275  1.00  0.00    -0.329 N  
HETATM   26  H   UNL     1      -8.167  12.068  69.796  1.00  0.00     0.000 HD 
BRANCH  25  27
HETATM   27  C   UNL     1      -6.913  10.667  68.904  1.00  0.00    -0.073 C  
HETATM   28  O   UNL     1      -5.740  10.369  68.688  1.00  0.00    -0.041 OA 
BRANCH  27  29
HETATM   29  N   UNL     1      -7.928   9.723  68.834  1.00  0.00    -0.089 N  
HETATM   30  C   UNL     1      -8.717   9.389  70.006  1.00  0.00    -0.210 C  
HETATM   31  C   UNL     1      -9.799   8.446  69.502  1.00  0.00    -0.181 C  
HETATM   32  C   UNL     1      -8.538   9.201  67.689  1.00  0.00    -0.117 C  
HETATM   33  O   UNL     1      -8.175   9.350  66.534  1.00  0.00    -0.113 OA 
HETATM   34  N   UNL     1      -9.640   8.458  68.075  1.00  0.00    -0.147 NA 
ENDBRANCH  27  29
ENDBRANCH  25  27
ENDBRANCH   1  25
TORSDOF 6
ENDMDL
MODEL      158
REMARK 921   NORMALIZED FREE ENERGY PREDICTED BY IDOCK:   -4.01 KCAL/MOL
REMARK 922        TOTAL FREE ENERGY PREDICTED BY IDOCK:   -7.51 KCAL/MOL
REMARK 923 INTER-LIGAND FREE ENERGY PREDICTED BY IDOCK:   -6.35 KCAL/MOL
REMARK 924 INTRA-LIGAND FREE ENERGY PREDICTED BY IDOCK:   -1.16 KCAL/MOL
REMARK 927      BINDING AFFINITY PREDICTED BY RF-SCORE:    0.00 PKD
ROOT
HETATM    1  CA  UNL     1     -11.090  11.425  68.471  1.00  0.00    -0.235 C  
ENDROOT
BRANCH   1   2
HETATM    2  C   UNL     1     -10.972  12.921  68.780  1.00  0.00    -0.292 A  
HETATM    3  C   UNL     1     -12.012  14.929  69.676  1.00  0.00    -0.360 A  
HETATM    4  C   UNL     1     -10.770  15.558  69.733  1.00  0.00    -0.301 A  
HETATM    5  C   UNL     1      -9.641  14.904  69.251  1.00  0.00    -0.131 A  
HETATM    6  C   UNL     1     -12.114  13.622  69.198  1.00  0.00    -0.361 A  
HETATM    7  C   UNL     1      -9.742  13.599  68.765  1.00  0.00    -0.040 A  
ENDBRANCH   1   2
BRANCH   1   8
HETATM    8  C   UNL     1     -11.360  10.619  69.803  1.00  0.00    -0.301 C  
HETATM    9  N   UNL     1     -10.896   9.317  69.829  1.00  0.00    -0.233 N  
HETATM   10  H   UNL     1     -10.413   8.978  68.998  1.00  0.00     0.000 HD 
HETATM   11  O   UNL     1     -11.950  11.108  70.766  1.00  0.00    -0.339 OA 
BRANCH   9  12
HETATM   12  CA  UNL     1     -11.044   8.351  70.983  1.00  0.00    -0.258 C  
HETATM   13  N   UNL     1     -10.095   6.435  71.193  1.00  0.00    -0.184 N  
HETATM   14  CA  UNL     1      -9.193   5.610  70.338  1.00  0.00    -0.152 C  
HETATM   15  C   UNL     1      -9.560   4.117  70.486  1.00  0.00    -0.191 C  
HETATM   16  O   UNL     1      -8.677   8.090  72.023  1.00  0.00    -0.122 OA 
HETATM   17  C   UNL     1      -9.329   6.156  68.900  1.00  0.00    -0.124 C  
HETATM   18  OXT UNL     1      -9.186   3.223  69.742  1.00  0.00    -0.121 OA 
HETATM   19  O   UNL     1     -10.264   3.838  71.612  1.00  0.00    -0.125 OA 
HETATM   20  C   UNL     1      -9.731   7.711  71.569  1.00  0.00    -0.165 C  
HETATM   21  C   UNL     1      -8.941   5.237  67.739  1.00  0.00    -0.110 C  
HETATM   22  S   UNL     1     -11.131   6.563  68.750  1.00  0.00    -0.243 SA 
HETATM   23  C   UNL     1      -8.487   7.430  68.695  1.00  0.00    -0.129 C  
HETATM   24  C   UNL     1     -11.351   6.885  70.551  1.00  0.00    -0.327 C  
ENDBRANCH   9  12
ENDBRANCH   1   8
BRANCH   1  25
HETATM   25  N   UNL     1      -9.945  10.943  67.693  1.00  0.00    -0.170 N  
HETATM   26  H   UNL     1      -9.092  10.653  68.172  1.00  0.00     0.000 HD 
BRANCH  25  27
HETATM   27  C   UNL     1     -10.012  10.879  66.318  1.00  0.00    -0.227 C  
HETATM   28  O   UNL     1     -10.948  11.351  65.677  1.00  0.00    -0.266 OA 
BRANCH  27  29
HETATM   29  N   UNL     1      -8.925  10.287  65.689  1.00  0.00    -0.164 N  
HETATM   30  C   UNL     1      -8.993   9.900  64.292  1.00  0.00    -0.243 C  
HETATM   31  C   UNL     1      -7.588   9.432  63.940  1.00  0.00    -0.118 C  
HETATM   32  C   UNL     1      -7.598  10.242  66.129  1.00  0.00    -0.124 C  
HETATM   33  O   UNL     1      -7.180  10.566  67.228  1.00  0.00    -0.086 OA 
HETATM   34  N   UNL     1      -6.810   9.750  65.104  1.00  0.00    -0.103 NA 
ENDBRANCH  27  29
ENDBRANCH  25  27
ENDBRANCH   1  25
TORSDOF 6
ENDMDL
MODEL      159
REMARK 921   NORMALIZED FREE ENERGY PREDICTED BY IDOCK:   -3.97 KCAL/MOL
REMARK 922        TOTAL FREE ENERGY PREDICTED BY IDOCK:   -7.45 KCAL/MOL
REMARK 923 INTER-LIGAND FREE ENERGY PREDICTED BY IDOCK:   -5.64 KCAL/MOL
REMARK 924 INTRA-LIGAND FREE ENERGY PREDICTED BY IDOCK:   -1.81 KCAL/MOL
REMARK 927      BINDING AFFINITY PREDICTED BY RF-SCORE:    0.00 PKD
ROOT
HETATM    1  CA  UNL     1      -9.485   5.906  71.623  1.00  0.00    -0.149 C  
ENDROOT
BRANCH   1   2
HETATM    2  C   UNL     1     -10.055   4.540  72.018  1.00  0.00    -0.264 A  
HETATM    3  C   UNL     1     -10.000   2.124  71.739  1.00  0.00    -0.209 A  
HETATM    4  C   UNL     1     -10.742   1.962  72.906  1.00  0.00    -0.240 A  
HETATM    5  C   UNL     1     -11.204   3.081  73.593  1.00  0.00    -0.298 A  
HETATM    6  C   UNL     1      -9.663   3.403  71.293  1.00  0.00    -0.227 A  
HETATM    7  C   UNL     1     -10.874   4.362  73.145  1.00  0.00    -0.321 A  
ENDBRANCH   1   2
BRANCH   1   8
HETATM    8  C   UNL     1     -10.388   6.564  70.505  1.00  0.00    -0.201 C  
HETATM    9  N   UNL     1      -9.756   7.468  69.671  1.00  0.00    -0.167 N  
HETATM   10  H   UNL     1      -8.763   7.636  69.832  1.00  0.00     0.000 HD 
HETATM   11  O   UNL     1     -11.583   6.300  70.376  1.00  0.00    -0.381 OA 
BRANCH   9  12
HETATM   12  CA  UNL     1     -10.409   8.228  68.539  1.00  0.00    -0.199 C  
HETATM   13  N   UNL     1      -9.823   8.224  66.472  1.00  0.00    -0.256 N  
HETATM   14  CA  UNL     1      -8.715   7.597  65.695  1.00  0.00    -0.092 C  
HETATM   15  C   UNL     1      -8.232   8.573  64.600  1.00  0.00    -0.160 C  
HETATM   16  O   UNL     1     -11.276   6.442  66.863  1.00  0.00    -0.368 OA 
HETATM   17  C   UNL     1      -7.627   7.206  66.720  1.00  0.00    -0.093 C  
HETATM   18  OXT UNL     1      -7.190   8.464  63.970  1.00  0.00    -0.087 OA 
HETATM   19  O   UNL     1      -9.136   9.537  64.292  1.00  0.00    -0.233 OA 
HETATM   20  C   UNL     1     -10.695   7.446  67.204  1.00  0.00    -0.330 C  
HETATM   21  C   UNL     1      -6.195   7.013  66.214  1.00  0.00    -0.039 C  
HETATM   22  S   UNL     1      -7.637   8.607  67.933  1.00  0.00    -0.099 SA 
HETATM   23  C   UNL     1      -7.973   5.889  67.439  1.00  0.00    -0.102 C  
HETATM   24  C   UNL     1      -9.409   9.025  67.646  1.00  0.00    -0.136 C  
ENDBRANCH   9  12
ENDBRANCH   1   8
BRANCH   1  25
HETATM   25  N   UNL     1      -8.063   5.819  71.281  1.00  0.00    -0.112 N  
HETATM   26  H   UNL     1      -7.778   5.791  70.302  1.00  0.00     0.000 HD 
BRANCH  25  27
HETATM   27  C   UNL     1      -7.107   5.774  72.273  1.00  0.00    -0.084 C  
HETATM   28  O   UNL     1      -6.463   4.758  72.526  1.00  0.00    -0.041 OA 
BRANCH  27  29
HETATM   29  N   UNL     1      -6.877   6.968  72.942  1.00  0.00    -0.069 N  
HETATM   30  C   UNL     1      -6.166   6.988  74.208  1.00  0.00    -0.074 C  
HETATM   31  C   UNL     1      -5.990   8.462  74.542  1.00  0.00    -0.117 C  
HETATM   32  C   UNL     1      -6.985   8.268  72.439  1.00  0.00    -0.090 C  
HETATM   33  O   UNL     1      -7.465   8.602  71.370  1.00  0.00    -0.090 OA 
HETATM   34  N   UNL     1      -6.458   9.146  73.371  1.00  0.00    -0.312 NA 
ENDBRANCH  27  29
ENDBRANCH  25  27
ENDBRANCH   1  25
TORSDOF 6
ENDMDL
MODEL      160
REMARK 921   NORMALIZED FREE ENERGY PREDICTED BY IDOCK:   -3.93 KCAL/MOL
REMARK 922        TOTAL FREE ENERGY PREDICTED BY IDOCK:   -7.40 KCAL/MOL
REMARK 923 INTER-LIGAND FREE ENERGY PREDICTED BY IDOCK:   -5.60 KCAL/MOL
REMARK 924 INTRA-LIGAND FREE ENERGY PREDICTED BY IDOCK:   -1.80 KCAL/MOL
REMARK 927      BINDING AFFINITY PREDICTED BY RF-SCORE:    0.00 PKD
ROOT
HETATM    1  CA  UNL     1     -10.887   8.400  68.773  1.00  0.00     0.052 C  
ENDROOT
BRANCH   1   2
HETATM    2  C   UNL     1     -10.953   7.872  70.209  1.00  0.00    -0.249 A  
HETATM    3  C   UNL     1     -10.162   8.032  72.504  1.00  0.00    -0.361 A  
HETATM    4  C   UNL     1     -11.235   7.257  72.938  1.00  0.00    -0.336 A  
HETATM    5  C   UNL     1     -12.127   6.729  72.010  1.00  0.00    -0.344 A  
HETATM    6  C   UNL     1     -10.018   8.333  71.149  1.00  0.00    -0.230 A  
HETATM    7  C   UNL     1     -11.981   7.023  70.653  1.00  0.00    -0.361 A  
ENDBRANCH   1   2
BRANCH   1   8
HETATM    8  C   UNL     1     -10.211   7.325  67.833  1.00  0.00    -0.191 C  
HETATM    9  N   UNL     1      -9.007   6.806  68.272  1.00  0.00    -0.124 N  
HETATM   10  H   UNL     1      -8.651   7.147  69.165  1.00  0.00     0.000 HD 
HETATM   11  O   UNL     1     -10.714   6.964  66.769  1.00  0.00    -0.297 OA 
BRANCH   9  12
HETATM   12  CA  UNL     1      -8.173   5.776  67.545  1.00  0.00    -0.101 C  
HETATM   13  N   UNL     1      -7.389   3.945  68.350  1.00  0.00    -0.055 N  
HETATM   14  CA  UNL     1      -7.401   3.298  69.694  1.00  0.00    -0.045 C  
HETATM   15  C   UNL     1      -6.047   2.600  69.946  1.00  0.00    -0.024 C  
HETATM   16  O   UNL     1      -9.552   3.574  67.561  1.00  0.00    -0.207 OA 
HETATM   17  C   UNL     1      -7.740   4.409  70.713  1.00  0.00    -0.056 C  
HETATM   18  OXT UNL     1      -5.651   2.203  71.032  1.00  0.00    -0.011 OA 
HETATM   19  O   UNL     1      -5.346   2.345  68.812  1.00  0.00    -0.012 OA 
HETATM   20  C   UNL     1      -8.571   4.263  67.714  1.00  0.00    -0.099 C  
HETATM   21  C   UNL     1      -7.342   4.193  72.175  1.00  0.00    -0.065 C  
HETATM   22  S   UNL     1      -6.832   5.891  70.071  1.00  0.00    -0.059 SA 
HETATM   23  C   UNL     1      -9.252   4.699  70.753  1.00  0.00    -0.200 C  
HETATM   24  C   UNL     1      -6.889   5.338  68.313  1.00  0.00    -0.056 C  
ENDBRANCH   9  12
ENDBRANCH   1   8
BRANCH   1  25
HETATM   25  N   UNL     1     -10.271   9.729  68.715  1.00  0.00    -0.186 N  
HETATM   26  H   UNL     1     -10.430  10.395  69.471  1.00  0.00     0.000 HD 
BRANCH  25  27
HETATM   27  C   UNL     1      -9.478  10.086  67.646  1.00  0.00    -0.144 C  
HETATM   28  O   UNL     1      -8.259   9.932  67.645  1.00  0.00    -0.113 OA 
BRANCH  27  29
HETATM   29  N   UNL     1     -10.149  10.589  66.540  1.00  0.00    -0.218 N  
HETATM   30  C   UNL     1     -10.946  11.798  66.637  1.00  0.00    -0.294 C  
HETATM   31  C   UNL     1     -11.389  12.098  65.213  1.00  0.00    -0.336 C  
HETATM   32  C   UNL     1      -9.956  10.256  65.195  1.00  0.00    -0.325 C  
HETATM   33  O   UNL     1      -9.283   9.338  64.757  1.00  0.00    -0.209 OA 
HETATM   34  N   UNL     1     -10.675  11.143  64.414  1.00  0.00    -0.344 NA 
ENDBRANCH  27  29
ENDBRANCH  25  27
ENDBRANCH   1  25
TORSDOF 6
ENDMDL
MODEL      161
REMARK 921   NORMALIZED FREE ENERGY PREDICTED BY IDOCK:   -3.88 KCAL/MOL
REMARK 922        TOTAL FREE ENERGY PREDICTED BY IDOCK:   -7.33 KCAL/MOL
REMARK 923 INTER-LIGAND FREE ENERGY PREDICTED BY IDOCK:   -6.79 KCAL/MOL
REMARK 924 INTRA-LIGAND FREE ENERGY PREDICTED BY IDOCK:   -0.54 KCAL/MOL
REMARK 927      BINDING AFFINITY PREDICTED BY RF-SCORE:    0.00 PKD
ROOT
HETATM    1  CA  UNL     1      -9.062  16.441  68.162  1.00  0.00    -0.201 C  
ENDROOT
BRANCH   1   2
HETATM    2  C   UNL     1      -9.728  17.745  67.710  1.00  0.00    -0.285 A  
HETATM    3  C   UNL     1     -10.396  20.017  68.262  1.00  0.00    -0.494 A  
HETATM    4  C   UNL     1     -10.585  20.301  66.911  1.00  0.00    -0.212 A  
HETATM    5  C   UNL     1     -10.417  19.295  65.964  1.00  0.00    -0.573 A  
HETATM    6  C   UNL     1      -9.976  18.748  68.661  1.00  0.00    -0.444 A  
HETATM    7  C   UNL     1     -10.004  18.022  66.361  1.00  0.00    -0.362 A  
ENDBRANCH   1   2
BRANCH   1   8
HETATM    8  C   UNL     1     -10.160  15.332  68.409  1.00  0.00    -0.220 C  
HETATM    9  N   UNL     1     -10.365  14.440  67.373  1.00  0.00    -0.251 N  
HETATM   10  H   UNL     1      -9.794  14.558  66.536  1.00  0.00     0.000 HD 
HETATM   11  O   UNL     1     -10.804  15.257  69.456  1.00  0.00    -0.242 OA 
BRANCH   9  12
HETATM   12  CA  UNL     1     -11.363  13.304  67.371  1.00  0.00    -0.303 C  
HETATM   13  N   UNL     1     -10.943  11.215  67.648  1.00  0.00    -0.249 N  
HETATM   14  CA  UNL     1      -9.702  10.408  67.833  1.00  0.00    -0.149 C  
HETATM   15  C   UNL     1      -9.841   9.064  67.086  1.00  0.00    -0.203 C  
HETATM   16  O   UNL     1     -11.241  12.222  69.731  1.00  0.00    -0.126 OA 
HETATM   17  C   UNL     1      -8.530  11.288  67.344  1.00  0.00    -0.137 C  
HETATM   18  OXT UNL     1      -8.920   8.301  66.835  1.00  0.00    -0.137 OA 
HETATM   19  O   UNL     1     -11.125   8.721  66.816  1.00  0.00     0.183 OA 
HETATM   20  C   UNL     1     -11.253  12.236  68.522  1.00  0.00    -0.271 C  
HETATM   21  C   UNL     1      -7.228  10.593  66.938  1.00  0.00    -0.110 C  
HETATM   22  S   UNL     1      -9.218  12.159  65.861  1.00  0.00     0.014 SA 
HETATM   23  C   UNL     1      -8.112  12.319  68.409  1.00  0.00    -0.151 C  
HETATM   24  C   UNL     1     -10.960  12.103  66.463  1.00  0.00    -0.284 C  
ENDBRANCH   9  12
ENDBRANCH   1   8
BRANCH   1  25
HETATM   25  N   UNL     1      -8.157  16.661  69.294  1.00  0.00    -0.136 N  
HETATM   26  H   UNL     1      -8.328  16.185  70.180  1.00  0.00     0.000 HD 
BRANCH  25  27
HETATM   27  C   UNL     1      -7.076  17.507  69.170  1.00  0.00    -0.195 C  
HETATM   28  O   UNL     1      -6.485  17.972  70.143  1.00  0.00     0.023 OA 
BRANCH  27  29
HETATM   29  N   UNL     1      -6.658  17.765  67.872  1.00  0.00    -0.186 N  
HETATM   30  C   UNL     1      -6.483  19.128  67.403  1.00  0.00    -0.186 C  
HETATM   31  C   UNL     1      -5.888  18.995  66.009  1.00  0.00    -0.158 C  
HETATM   32  C   UNL     1      -6.081  16.874  66.963  1.00  0.00    -0.190 C  
HETATM   33  O   UNL     1      -5.993  15.663  67.080  1.00  0.00    -0.328 OA 
HETATM   34  N   UNL     1      -5.621  17.591  65.873  1.00  0.00    -0.230 NA 
ENDBRANCH  27  29
ENDBRANCH  25  27
ENDBRANCH   1  25
TORSDOF 6
ENDMDL
MODEL      162
REMARK 921   NORMALIZED FREE ENERGY PREDICTED BY IDOCK:   -3.85 KCAL/MOL
REMARK 922        TOTAL FREE ENERGY PREDICTED BY IDOCK:   -7.30 KCAL/MOL
REMARK 923 INTER-LIGAND FREE ENERGY PREDICTED BY IDOCK:   -6.67 KCAL/MOL
REMARK 924 INTRA-LIGAND FREE ENERGY PREDICTED BY IDOCK:   -0.63 KCAL/MOL
REMARK 927      BINDING AFFINITY PREDICTED BY RF-SCORE:    0.00 PKD
ROOT
HETATM    1  CA  UNL     1     -10.010   9.918  66.596  1.00  0.00    -0.217 C  
ENDROOT
BRANCH   1   2
HETATM    2  C   UNL     1     -10.676  10.945  65.676  1.00  0.00    -0.178 A  
HETATM    3  C   UNL     1     -11.372  11.553  63.426  1.00  0.00    -0.303 A  
HETATM    4  C   UNL     1     -12.188  12.558  63.939  1.00  0.00    -0.590 A  
HETATM    5  C   UNL     1     -12.199  12.809  65.307  1.00  0.00    -0.535 A  
HETATM    6  C   UNL     1     -10.616  10.755  64.286  1.00  0.00    -0.225 A  
HETATM    7  C   UNL     1     -11.438  12.017  66.170  1.00  0.00    -0.401 A  
ENDBRANCH   1   2
BRANCH   1   8
HETATM    8  C   UNL     1     -10.888   9.707  67.894  1.00  0.00    -0.215 C  
HETATM    9  N   UNL     1     -10.571   8.606  68.668  1.00  0.00    -0.367 N  
HETATM   10  H   UNL     1      -9.798   8.021  68.351  1.00  0.00     0.000 HD 
HETATM   11  O   UNL     1     -11.803  10.468  68.206  1.00  0.00    -0.406 OA 
BRANCH   9  12
HETATM   12  CA  UNL     1     -11.271   8.194  69.942  1.00  0.00    -0.028 C  
HETATM   13  N   UNL     1     -10.458   8.224  71.931  1.00  0.00    -0.251 N  
HETATM   14  CA  UNL     1      -9.128   8.560  72.517  1.00  0.00    -0.214 C  
HETATM   15  C   UNL     1      -8.817   7.597  73.684  1.00  0.00    -0.243 C  
HETATM   16  O   UNL     1     -11.368  10.315  71.441  1.00  0.00    -0.218 OA 
HETATM   17  C   UNL     1      -8.109   8.501  71.358  1.00  0.00    -0.140 C  
HETATM   18  OXT UNL     1      -7.718   7.447  74.198  1.00  0.00    -0.114 OA 
HETATM   19  O   UNL     1      -9.916   6.986  74.194  1.00  0.00    -0.313 OA 
HETATM   20  C   UNL     1     -11.150   9.154  71.184  1.00  0.00    -0.323 C  
HETATM   21  C   UNL     1      -6.632   8.300  71.705  1.00  0.00    -0.061 C  
HETATM   22  S   UNL     1      -8.675   7.057  70.344  1.00  0.00    -0.147 SA 
HETATM   23  C   UNL     1      -8.145   9.783  70.506  1.00  0.00    -0.046 C  
HETATM   24  C   UNL     1     -10.443   7.224  70.839  1.00  0.00    -0.213 C  
ENDBRANCH   9  12
ENDBRANCH   1   8
BRANCH   1  25
HETATM   25  N   UNL     1      -8.609  10.258  66.861  1.00  0.00    -0.126 N  
HETATM   26  H   UNL     1      -8.380  11.134  67.331  1.00  0.00     0.000 HD 
BRANCH  25  27
HETATM   27  C   UNL     1      -7.598   9.403  66.480  1.00  0.00    -0.093 C  
HETATM   28  O   UNL     1      -6.766   8.965  67.272  1.00  0.00    -0.064 OA 
BRANCH  27  29
HETATM   29  N   UNL     1      -7.602   9.022  65.145  1.00  0.00    -0.096 N  
HETATM   30  C   UNL     1      -6.866   9.781  64.150  1.00  0.00    -0.120 C  
HETATM   31  C   UNL     1      -6.995   8.980  62.863  1.00  0.00    -0.092 C  
HETATM   32  C   UNL     1      -8.003   7.796  64.604  1.00  0.00    -0.136 C  
HETATM   33  O   UNL     1      -8.583   6.894  65.184  1.00  0.00    -0.072 OA 
HETATM   34  N   UNL     1      -7.641   7.764  63.268  1.00  0.00    -0.119 NA 
ENDBRANCH  27  29
ENDBRANCH  25  27
ENDBRANCH   1  25
TORSDOF 6
ENDMDL
MODEL      163
REMARK 921   NORMALIZED FREE ENERGY PREDICTED BY IDOCK:   -3.84 KCAL/MOL
REMARK 922        TOTAL FREE ENERGY PREDICTED BY IDOCK:   -7.29 KCAL/MOL
REMARK 923 INTER-LIGAND FREE ENERGY PREDICTED BY IDOCK:   -8.93 KCAL/MOL
REMARK 924 INTRA-LIGAND FREE ENERGY PREDICTED BY IDOCK:    1.64 KCAL/MOL
REMARK 927      BINDING AFFINITY PREDICTED BY RF-SCORE:    0.00 PKD
ROOT
HETATM    1  CA  UNL     1     -11.167  12.399  68.414  1.00  0.00    -0.273 C  
ENDROOT
BRANCH   1   2
HETATM    2  C   UNL     1     -11.787  13.466  69.321  1.00  0.00    -0.385 A  
HETATM    3  C   UNL     1     -12.587  14.079  71.535  1.00  0.00    -0.432 A  
HETATM    4  C   UNL     1     -12.571  15.425  71.179  1.00  0.00    -0.485 A  
HETATM    5  C   UNL     1     -12.234  15.793  69.881  1.00  0.00    -0.271 A  
HETATM    6  C   UNL     1     -12.203  13.105  70.612  1.00  0.00    -0.402 A  
HETATM    7  C   UNL     1     -11.857  14.820  68.953  1.00  0.00    -0.331 A  
ENDBRANCH   1   2
BRANCH   1   8
HETATM    8  C   UNL     1      -9.616  12.661  68.254  1.00  0.00    -0.208 C  
HETATM    9  N   UNL     1      -9.250  13.956  67.933  1.00  0.00    -0.190 N  
HETATM   10  H   UNL     1     -10.000  14.640  67.832  1.00  0.00     0.000 HD 
HETATM   11  O   UNL     1      -8.775  11.775  68.399  1.00  0.00    -0.162 OA 
BRANCH   9  12
HETATM   12  CA  UNL     1      -7.836  14.445  67.721  1.00  0.00    -0.160 C  
HETATM   13  N   UNL     1      -7.104  16.445  68.003  1.00  0.00    -0.132 N  
HETATM   14  CA  UNL     1      -7.725  17.748  68.380  1.00  0.00    -0.278 C  
HETATM   15  C   UNL     1      -7.063  18.890  67.579  1.00  0.00    -0.206 C  
HETATM   16  O   UNL     1      -7.002  15.296  70.030  1.00  0.00    -0.153 OA 
HETATM   17  C   UNL     1      -9.243  17.598  68.134  1.00  0.00    -0.282 C  
HETATM   18  OXT UNL     1      -7.507  20.023  67.472  1.00  0.00    -0.266 OA 
HETATM   19  O   UNL     1      -5.845  18.567  67.076  1.00  0.00    -0.146 OA 
HETATM   20  C   UNL     1      -7.202  15.353  68.839  1.00  0.00    -0.139 C  
HETATM   21  C   UNL     1     -10.072  18.871  67.943  1.00  0.00    -0.431 C  
HETATM   22  S   UNL     1      -9.342  16.595  66.579  1.00  0.00    -0.283 SA 
HETATM   23  C   UNL     1      -9.933  16.846  69.287  1.00  0.00    -0.184 C  
HETATM   24  C   UNL     1      -7.732  15.742  66.862  1.00  0.00    -0.219 C  
ENDBRANCH   9  12
ENDBRANCH   1   8
BRANCH   1  25
HETATM   25  N   UNL     1     -11.895  12.278  67.148  1.00  0.00    -0.324 N  
HETATM   26  H   UNL     1     -12.905  12.132  67.156  1.00  0.00     0.000 HD 
BRANCH  25  27
HETATM   27  C   UNL     1     -11.227  12.360  65.946  1.00  0.00    -0.336 C  
HETATM   28  O   UNL     1     -10.293  11.615  65.655  1.00  0.00    -0.242 OA 
BRANCH  27  29
HETATM   29  N   UNL     1     -11.705  13.310  65.054  1.00  0.00    -0.321 N  
HETATM   30  C   UNL     1     -11.468  14.726  65.274  1.00  0.00    -0.352 C  
HETATM   31  C   UNL     1     -12.008  15.417  64.031  1.00  0.00     0.024 C  
HETATM   32  C   UNL     1     -12.176  13.106  63.754  1.00  0.00    -0.456 C  
HETATM   33  O   UNL     1     -12.414  12.035  63.221  1.00  0.00    -0.566 OA 
HETATM   34  N   UNL     1     -12.347  14.338  63.148  1.00  0.00    -0.338 NA 
ENDBRANCH  27  29
ENDBRANCH  25  27
ENDBRANCH   1  25
TORSDOF 6
ENDMDL
MODEL      164
REMARK 921   NORMALIZED FREE ENERGY PREDICTED BY IDOCK:   -3.83 KCAL/MOL
REMARK 922        TOTAL FREE ENERGY PREDICTED BY IDOCK:   -7.27 KCAL/MOL
REMARK 923 INTER-LIGAND FREE ENERGY PREDICTED BY IDOCK:   -6.34 KCAL/MOL
REMARK 924 INTRA-LIGAND FREE ENERGY PREDICTED BY IDOCK:   -0.92 KCAL/MOL
REMARK 927      BINDING AFFINITY PREDICTED BY RF-SCORE:    0.00 PKD
ROOT
HETATM    1  CA  UNL     1      -8.112  10.818  66.712  1.00  0.00    -0.137 C  
ENDROOT
BRANCH   1   2
HETATM    2  C   UNL     1      -7.941   9.390  66.183  1.00  0.00    -0.110 A  
HETATM    3  C   UNL     1      -6.515   7.432  65.956  1.00  0.00    -0.045 A  
HETATM    4  C   UNL     1      -7.617   6.659  65.599  1.00  0.00    -0.086 A  
HETATM    5  C   UNL     1      -8.867   7.257  65.463  1.00  0.00     0.011 A  
HETATM    6  C   UNL     1      -6.673   8.789  66.241  1.00  0.00    -0.073 A  
HETATM    7  C   UNL     1      -9.026   8.616  65.740  1.00  0.00    -0.244 A  
ENDBRANCH   1   2
BRANCH   1   8
HETATM    8  C   UNL     1      -8.608  10.782  68.212  1.00  0.00    -0.135 C  
HETATM    9  N   UNL     1      -9.528   9.797  68.523  1.00  0.00    -0.144 N  
HETATM   10  H   UNL     1      -9.809   9.169  67.770  1.00  0.00     0.000 HD 
HETATM   11  O   UNL     1      -8.211  11.579  69.062  1.00  0.00    -0.068 OA 
BRANCH   9  12
HETATM   12  CA  UNL     1     -10.152   9.570  69.881  1.00  0.00    -0.232 C  
HETATM   13  N   UNL     1      -9.979   7.813  71.105  1.00  0.00    -0.176 N  
HETATM   14  CA  UNL     1      -9.329   6.480  70.944  1.00  0.00    -0.161 C  
HETATM   15  C   UNL     1     -10.217   5.389  71.581  1.00  0.00    -0.209 C  
HETATM   16  O   UNL     1      -8.182   9.234  71.543  1.00  0.00    -0.327 OA 
HETATM   17  C   UNL     1      -9.081   6.292  69.431  1.00  0.00    -0.139 C  
HETATM   18  OXT UNL     1     -10.094   4.187  71.400  1.00  0.00    -0.173 OA 
HETATM   19  O   UNL     1     -11.110   5.871  72.482  1.00  0.00    -0.252 OA 
HETATM   20  C   UNL     1      -9.236   8.971  71.013  1.00  0.00    -0.264 C  
HETATM   21  C   UNL     1      -8.902   4.868  68.901  1.00  0.00    -0.115 C  
HETATM   22  S   UNL     1     -10.587   7.028  68.641  1.00  0.00    -0.193 SA 
HETATM   23  C   UNL     1      -7.823   7.049  68.965  1.00  0.00    -0.115 C  
HETATM   24  C   UNL     1     -10.903   8.211  70.018  1.00  0.00    -0.233 C  
ENDBRANCH   9  12
ENDBRANCH   1   8
BRANCH   1  25
HETATM   25  N   UNL     1      -8.943  11.629  65.817  1.00  0.00    -0.380 N  
HETATM   26  H   UNL     1      -8.599  11.872  64.888  1.00  0.00     0.000 HD 
BRANCH  25  27
HETATM   27  C   UNL     1     -10.185  12.066  66.222  1.00  0.00    -0.222 C  
HETATM   28  O   UNL     1     -11.120  11.297  66.435  1.00  0.00    -0.276 OA 
BRANCH  27  29
HETATM   29  N   UNL     1     -10.306  13.433  66.426  1.00  0.00    -0.282 N  
HETATM   30  C   UNL     1      -9.149  14.242  66.766  1.00  0.00    -0.249 C  
HETATM   31  C   UNL     1      -9.653  15.678  66.762  1.00  0.00    -0.240 C  
HETATM   32  C   UNL     1     -11.375  14.262  66.071  1.00  0.00    -0.335 C  
HETATM   33  O   UNL     1     -12.472  13.911  65.671  1.00  0.00    -0.453 OA 
HETATM   34  N   UNL     1     -10.993  15.579  66.259  1.00  0.00    -0.287 NA 
ENDBRANCH  27  29
ENDBRANCH  25  27
ENDBRANCH   1  25
TORSDOF 6
ENDMDL
MODEL      165
REMARK 921   NORMALIZED FREE ENERGY PREDICTED BY IDOCK:   -3.72 KCAL/MOL
REMARK 922        TOTAL FREE ENERGY PREDICTED BY IDOCK:   -7.12 KCAL/MOL
REMARK 923 INTER-LIGAND FREE ENERGY PREDICTED BY IDOCK:   -6.63 KCAL/MOL
REMARK 924 INTRA-LIGAND FREE ENERGY PREDICTED BY IDOCK:   -0.49 KCAL/MOL
REMARK 927      BINDING AFFINITY PREDICTED BY RF-SCORE:    0.00 PKD
ROOT
HETATM    1  CA  UNL     1     -10.615   7.875  69.053  1.00  0.00    -0.162 C  
ENDROOT
BRANCH   1   2
HETATM    2  C   UNL     1      -9.140   7.910  69.465  1.00  0.00    -0.149 A  
HETATM    3  C   UNL     1      -7.449   8.740  71.003  1.00  0.00    -0.105 A  
HETATM    4  C   UNL     1      -6.550   7.777  70.551  1.00  0.00    -0.038 A  
HETATM    5  C   UNL     1      -6.913   6.926  69.512  1.00  0.00    -0.063 A  
HETATM    6  C   UNL     1      -8.732   8.812  70.462  1.00  0.00    -0.196 A  
HETATM    7  C   UNL     1      -8.195   7.000  68.963  1.00  0.00    -0.125 A  
ENDBRANCH   1   2
BRANCH   1   8
HETATM    8  C   UNL     1     -11.269   9.298  69.267  1.00  0.00     0.092 C  
HETATM    9  N   UNL     1     -11.291  10.128  68.162  1.00  0.00    -0.523 N  
HETATM   10  H   UNL     1     -10.894   9.762  67.297  1.00  0.00     0.000 HD 
HETATM   11  O   UNL     1     -11.732   9.659  70.349  1.00  0.00    -0.257 OA 
BRANCH   9  12
HETATM   12  CA  UNL     1     -11.853  11.531  68.124  1.00  0.00    -0.236 C  
HETATM   13  N   UNL     1     -10.890  13.289  67.350  1.00  0.00    -0.264 N  
HETATM   14  CA  UNL     1      -9.548  13.581  66.767  1.00  0.00    -0.267 C  
HETATM   15  C   UNL     1      -9.070  14.972  67.236  1.00  0.00    -0.201 C  
HETATM   16  O   UNL     1     -11.998  12.193  65.615  1.00  0.00    -0.503 OA 
HETATM   17  C   UNL     1      -8.623  12.417  67.189  1.00  0.00    -0.189 C  
HETATM   18  OXT UNL     1      -7.926  15.392  67.143  1.00  0.00    -0.183 OA 
HETATM   19  O   UNL     1     -10.073  15.774  67.674  1.00  0.00    -0.241 OA 
HETATM   20  C   UNL     1     -11.710  12.338  66.780  1.00  0.00    -0.342 C  
HETATM   21  C   UNL     1      -7.111  12.660  67.186  1.00  0.00    -0.035 C  
HETATM   22  S   UNL     1      -9.152  12.038  68.924  1.00  0.00     0.327 SA 
HETATM   23  C   UNL     1      -8.827  11.179  66.298  1.00  0.00    -0.190 C  
HETATM   24  C   UNL     1     -10.883  12.621  68.672  1.00  0.00    -0.249 C  
ENDBRANCH   9  12
ENDBRANCH   1   8
BRANCH   1  25
HETATM   25  N   UNL     1     -11.331   6.774  69.703  1.00  0.00    -0.522 N  
HETATM   26  H   UNL     1     -11.500   5.908  69.192  1.00  0.00     0.000 HD 
BRANCH  25  27
HETATM   27  C   UNL     1     -11.778   6.901  71.000  1.00  0.00    -0.345 C  
HETATM   28  O   UNL     1     -12.961   7.090  71.278  1.00  0.00    -0.378 OA 
BRANCH  27  29
HETATM   29  N   UNL     1     -10.814   6.752  71.987  1.00  0.00    -0.222 N  
HETATM   30  C   UNL     1     -10.937   7.440  73.260  1.00  0.00    -0.318 C  
HETATM   31  C   UNL     1      -9.787   6.917  74.108  1.00  0.00    -0.311 C  
HETATM   32  C   UNL     1      -9.816   5.776  72.072  1.00  0.00    -0.155 C  
HETATM   33  O   UNL     1      -9.499   4.976  71.207  1.00  0.00    -0.144 OA 
HETATM   34  N   UNL     1      -9.217   5.864  73.316  1.00  0.00    -0.133 NA 
ENDBRANCH  27  29
ENDBRANCH  25  27
ENDBRANCH   1  25
TORSDOF 6
ENDMDL
MODEL      166
REMARK 921   NORMALIZED FREE ENERGY PREDICTED BY IDOCK:   -3.66 KCAL/MOL
REMARK 922        TOTAL FREE ENERGY PREDICTED BY IDOCK:   -7.03 KCAL/MOL
REMARK 923 INTER-LIGAND FREE ENERGY PREDICTED BY IDOCK:   -6.30 KCAL/MOL
REMARK 924 INTRA-LIGAND FREE ENERGY PREDICTED BY IDOCK:   -0.73 KCAL/MOL
REMARK 927      BINDING AFFINITY PREDICTED BY RF-SCORE:    0.00 PKD
ROOT
HETATM    1  CA  UNL     1     -10.376  16.613  66.562  1.00  0.00    -0.299 C  
ENDROOT
BRANCH   1   2
HETATM    2  C   UNL     1      -8.895  16.659  66.950  1.00  0.00    -0.235 A  
HETATM    3  C   UNL     1      -6.662  17.497  66.468  1.00  0.00    -0.276 A  
HETATM    4  C   UNL     1      -6.239  17.133  67.744  1.00  0.00    -0.154 A  
HETATM    5  C   UNL     1      -7.114  16.470  68.600  1.00  0.00    -0.175 A  
HETATM    6  C   UNL     1      -7.978  17.258  66.070  1.00  0.00    -0.196 A  
HETATM    7  C   UNL     1      -8.429  16.223  68.201  1.00  0.00    -0.174 A  
ENDBRANCH   1   2
BRANCH   1   8
HETATM    8  C   UNL     1     -11.239  16.113  67.788  1.00  0.00    -0.199 C  
HETATM    9  N   UNL     1     -11.673  14.802  67.730  1.00  0.00    -0.392 N  
HETATM   10  H   UNL     1     -11.402  14.257  66.911  1.00  0.00     0.000 HD 
HETATM   11  O   UNL     1     -11.518  16.839  68.743  1.00  0.00    -0.172 OA 
BRANCH   9  12
HETATM   12  CA  UNL     1     -12.516  14.105  68.773  1.00  0.00     0.165 C  
HETATM   13  N   UNL     1     -11.977  12.371  69.922  1.00  0.00    -0.324 N  
HETATM   14  CA  UNL     1     -10.797  11.459  69.956  1.00  0.00     0.298 C  
HETATM   15  C   UNL     1     -11.269  10.009  70.204  1.00  0.00    -0.304 C  
HETATM   16  O   UNL     1     -11.204  14.284  71.010  1.00  0.00     0.075 OA 
HETATM   17  C   UNL     1     -10.045  11.662  68.622  1.00  0.00    -0.198 C  
HETATM   18  OXT UNL     1     -10.586   9.009  70.038  1.00  0.00    -0.214 OA 
HETATM   19  O   UNL     1     -12.509   9.925  70.749  1.00  0.00    -0.296 OA 
HETATM   20  C   UNL     1     -11.823  13.725  70.135  1.00  0.00    -0.290 C  
HETATM   21  C   UNL     1      -9.113  10.547  68.142  1.00  0.00    -0.141 C  
HETATM   22  S   UNL     1     -11.402  11.868  67.377  1.00  0.00    -0.326 SA 
HETATM   23  C   UNL     1      -9.167  12.926  68.653  1.00  0.00     0.036 C  
HETATM   24  C   UNL     1     -12.603  12.559  68.593  1.00  0.00     0.961 C  
ENDBRANCH   9  12
ENDBRANCH   1   8
BRANCH   1  25
HETATM   25  N   UNL     1     -10.586  15.857  65.324  1.00  0.00    -0.418 N  
HETATM   26  H   UNL     1     -11.011  16.314  64.517  1.00  0.00     0.000 HD 
BRANCH  25  27
HETATM   27  C   UNL     1     -10.214  14.533  65.242  1.00  0.00    -0.402 C  
HETATM   28  O   UNL     1      -9.251  14.076  65.855  1.00  0.00    -0.055 OA 
BRANCH  27  29
HETATM   29  N   UNL     1     -11.027  13.726  64.458  1.00  0.00    -0.399 N  
HETATM   30  C   UNL     1     -10.468  12.629  63.688  1.00  0.00    -0.314 C  
HETATM   31  C   UNL     1     -11.670  11.909  63.092  1.00  0.00    -0.152 C  
HETATM   32  C   UNL     1     -12.420  13.615  64.498  1.00  0.00    -0.287 C  
HETATM   33  O   UNL     1     -13.195  14.331  65.110  1.00  0.00    -0.686 OA 
HETATM   34  N   UNL     1     -12.801  12.546  63.705  1.00  0.00    -0.754 NA 
ENDBRANCH  27  29
ENDBRANCH  25  27
ENDBRANCH   1  25
TORSDOF 6
ENDMDL
MODEL      167
REMARK 921   NORMALIZED FREE ENERGY PREDICTED BY IDOCK:   -3.59 KCAL/MOL
REMARK 922        TOTAL FREE ENERGY PREDICTED BY IDOCK:   -6.93 KCAL/MOL
REMARK 923 INTER-LIGAND FREE ENERGY PREDICTED BY IDOCK:   -5.07 KCAL/MOL
REMARK 924 INTRA-LIGAND FREE ENERGY PREDICTED BY IDOCK:   -1.86 KCAL/MOL
REMARK 927      BINDING AFFINITY PREDICTED BY RF-SCORE:    0.00 PKD
ROOT
HETATM    1  CA  UNL     1      -8.792   9.025  66.630  1.00  0.00    -0.132 C  
ENDROOT
BRANCH   1   2
HETATM    2  C   UNL     1      -9.272   7.571  66.588  1.00  0.00    -0.201 A  
HETATM    3  C   UNL     1     -11.104   5.996  66.865  1.00  0.00    -0.253 A  
HETATM    4  C   UNL     1     -10.375   5.015  66.196  1.00  0.00    -0.309 A  
HETATM    5  C   UNL     1      -9.073   5.281  65.786  1.00  0.00    -0.161 A  
HETATM    6  C   UNL     1     -10.556   7.263  67.065  1.00  0.00    -0.415 A  
HETATM    7  C   UNL     1      -8.519   6.546  65.991  1.00  0.00    -0.145 A  
ENDBRANCH   1   2
BRANCH   1   8
HETATM    8  C   UNL     1      -7.972   9.284  67.956  1.00  0.00    -0.100 C  
HETATM    9  N   UNL     1      -8.599   8.930  69.136  1.00  0.00    -0.132 N  
HETATM   10  H   UNL     1      -9.532   8.525  69.065  1.00  0.00     0.000 HD 
HETATM   11  O   UNL     1      -6.843   9.775  67.953  1.00  0.00    -0.071 OA 
BRANCH   9  12
HETATM   12  CA  UNL     1      -8.021   9.089  70.524  1.00  0.00    -0.139 C  
HETATM   13  N   UNL     1      -7.981   7.613  72.085  1.00  0.00    -0.100 N  
HETATM   14  CA  UNL     1      -8.501   6.222  72.229  1.00  0.00    -0.115 C  
HETATM   15  C   UNL     1      -9.016   6.008  73.669  1.00  0.00    -0.127 C  
HETATM   16  O   UNL     1      -6.106   7.344  70.724  1.00  0.00    -0.034 OA 
HETATM   17  C   UNL     1      -9.578   6.040  71.137  1.00  0.00    -0.172 C  
HETATM   18  OXT UNL     1      -9.721   5.078  74.033  1.00  0.00    -0.132 OA 
HETATM   19  O   UNL     1      -8.519   6.898  74.565  1.00  0.00    -0.151 OA 
HETATM   20  C   UNL     1      -7.104   7.932  71.070  1.00  0.00    -0.049 C  
HETATM   21  C   UNL     1     -10.625   4.942  71.333  1.00  0.00    -0.104 C  
HETATM   22  S   UNL     1     -10.445   7.677  71.093  1.00  0.00    -0.209 SA 
HETATM   23  C   UNL     1      -8.947   5.746  69.763  1.00  0.00    -0.137 C  
HETATM   24  C   UNL     1      -8.975   8.629  71.668  1.00  0.00    -0.235 C  
ENDBRANCH   9  12
ENDBRANCH   1   8
BRANCH   1  25
HETATM   25  N   UNL     1      -9.895   9.964  66.407  1.00  0.00    -0.212 N  
HETATM   26  H   UNL     1     -10.860   9.649  66.514  1.00  0.00     0.000 HD 
BRANCH  25  27
HETATM   27  C   UNL     1      -9.640  11.271  66.054  1.00  0.00    -0.218 C  
HETATM   28  O   UNL     1      -9.720  11.672  64.894  1.00  0.00    -0.243 OA 
BRANCH  27  29
HETATM   29  N   UNL     1      -9.333  12.129  67.100  1.00  0.00    -0.188 N  
HETATM   30  C   UNL     1      -8.255  13.095  66.980  1.00  0.00    -0.051 C  
HETATM   31  C   UNL     1      -8.326  13.929  68.251  1.00  0.00    -0.163 C  
HETATM   32  C   UNL     1     -10.110  12.424  68.225  1.00  0.00    -0.227 C  
HETATM   33  O   UNL     1     -11.127  11.854  68.582  1.00  0.00    -0.213 OA 
HETATM   34  N   UNL     1      -9.528  13.484  68.898  1.00  0.00     0.066 NA 
ENDBRANCH  27  29
ENDBRANCH  25  27
ENDBRANCH   1  25
TORSDOF 6
ENDMDL
MODEL      168
REMARK 921   NORMALIZED FREE ENERGY PREDICTED BY IDOCK:   -3.58 KCAL/MOL
REMARK 922        TOTAL FREE ENERGY PREDICTED BY IDOCK:   -6.93 KCAL/MOL
REMARK 923 INTER-LIGAND FREE ENERGY PREDICTED BY IDOCK:   -5.32 KCAL/MOL
REMARK 924 INTRA-LIGAND FREE ENERGY PREDICTED BY IDOCK:   -1.62 KCAL/MOL
REMARK 927      BINDING AFFINITY PREDICTED BY RF-SCORE:    0.00 PKD
ROOT
HETATM    1  CA  UNL     1     -10.095   5.307  69.349  1.00  0.00    -0.241 C  
ENDROOT
BRANCH   1   2
HETATM    2  C   UNL     1      -9.628   5.197  67.894  1.00  0.00    -0.167 A  
HETATM    3  C   UNL     1      -7.826   4.698  66.339  1.00  0.00    -0.099 A  
HETATM    4  C   UNL     1      -8.741   4.601  65.294  1.00  0.00    -0.137 A  
HETATM    5  C   UNL     1     -10.086   4.869  65.526  1.00  0.00    -0.096 A  
HETATM    6  C   UNL     1      -8.264   5.000  67.629  1.00  0.00    -0.105 A  
HETATM    7  C   UNL     1     -10.526   5.178  66.814  1.00  0.00    -0.306 A  
ENDBRANCH   1   2
BRANCH   1   8
HETATM    8  C   UNL     1     -10.739   6.728  69.603  1.00  0.00    -0.251 C  
HETATM    9  N   UNL     1      -9.927   7.817  69.345  1.00  0.00    -0.184 N  
HETATM   10  H   UNL     1      -8.984   7.625  69.007  1.00  0.00     0.000 HD 
HETATM   11  O   UNL     1     -11.892   6.871  70.008  1.00  0.00    -0.260 OA 
BRANCH   9  12
HETATM   12  CA  UNL     1     -10.315   9.268  69.520  1.00  0.00    -0.216 C  
HETATM   13  N   UNL     1      -9.500  10.959  68.474  1.00  0.00    -0.178 N  
HETATM   14  CA  UNL     1      -8.422  11.147  67.461  1.00  0.00    -0.126 C  
HETATM   15  C   UNL     1      -7.667  12.463  67.746  1.00  0.00    -0.139 C  
HETATM   16  O   UNL     1     -11.253  10.055  67.228  1.00  0.00    -0.167 OA 
HETATM   17  C   UNL     1      -7.537   9.883  67.520  1.00  0.00    -0.091 C  
HETATM   18  OXT UNL     1      -6.589  12.775  67.261  1.00  0.00    -0.159 OA 
HETATM   19  O   UNL     1      -8.364  13.337  68.515  1.00  0.00    -0.148 OA 
HETATM   20  C   UNL     1     -10.564  10.118  68.219  1.00  0.00    -0.226 C  
HETATM   21  C   UNL     1      -6.105   9.979  66.989  1.00  0.00    -0.055 C  
HETATM   22  S   UNL     1      -7.467   9.476  69.326  1.00  0.00    -0.084 SA 
HETATM   23  C   UNL     1      -8.169   8.712  66.745  1.00  0.00    -0.108 C  
HETATM   24  C   UNL     1      -9.105  10.233  69.703  1.00  0.00    -0.125 C  
ENDBRANCH   9  12
ENDBRANCH   1   8
BRANCH   1  25
HETATM   25  N   UNL     1      -9.027   4.950  70.287  1.00  0.00    -0.105 N  
HETATM   26  H   UNL     1      -8.282   4.319  69.990  1.00  0.00     0.000 HD 
BRANCH  25  27
HETATM   27  C   UNL     1      -9.022   5.459  71.567  1.00  0.00    -0.135 C  
HETATM   28  O   UNL     1      -8.345   6.433  71.890  1.00  0.00    -0.116 OA 
BRANCH  27  29
HETATM   29  N   UNL     1      -9.870   4.832  72.469  1.00  0.00    -0.151 N  
HETATM   30  C   UNL     1      -9.877   3.387  72.606  1.00  0.00    -0.146 C  
HETATM   31  C   UNL     1     -10.814   3.102  73.771  1.00  0.00    -0.217 C  
HETATM   32  C   UNL     1     -10.575   5.411  73.528  1.00  0.00    -0.270 C  
HETATM   33  O   UNL     1     -10.710   6.602  73.754  1.00  0.00    -0.296 OA 
HETATM   34  N   UNL     1     -11.123   4.400  74.299  1.00  0.00    -0.213 NA 
ENDBRANCH  27  29
ENDBRANCH  25  27
ENDBRANCH   1  25
TORSDOF 6
ENDMDL
MODEL      169
REMARK 921   NORMALIZED FREE ENERGY PREDICTED BY IDOCK:   -3.50 KCAL/MOL
REMARK 922        TOTAL FREE ENERGY PREDICTED BY IDOCK:   -6.82 KCAL/MOL
REMARK 923 INTER-LIGAND FREE ENERGY PREDICTED BY IDOCK:   -6.23 KCAL/MOL
REMARK 924 INTRA-LIGAND FREE ENERGY PREDICTED BY IDOCK:   -0.59 KCAL/MOL
REMARK 927      BINDING AFFINITY PREDICTED BY RF-SCORE:    0.00 PKD
ROOT
HETATM    1  CA  UNL     1      -9.829  12.414  66.433  1.00  0.00    -0.240 C  
ENDROOT
BRANCH   1   2
HETATM    2  C   UNL     1      -9.985  11.576  67.706  1.00  0.00    -0.195 A  
HETATM    3  C   UNL     1     -11.380  10.100  69.044  1.00  0.00    -0.188 A  
HETATM    4  C   UNL     1     -10.271   9.720  69.798  1.00  0.00    -0.271 A  
HETATM    5  C   UNL     1      -9.036  10.314  69.559  1.00  0.00    -0.187 A  
HETATM    6  C   UNL     1     -11.240  11.025  68.009  1.00  0.00    -0.372 A  
HETATM    7  C   UNL     1      -8.896  11.246  68.529  1.00  0.00    -0.159 A  
ENDBRANCH   1   2
BRANCH   1   8
HETATM    8  C   UNL     1      -9.207  11.532  65.279  1.00  0.00    -0.080 C  
HETATM    9  N   UNL     1      -7.967  10.978  65.541  1.00  0.00    -0.365 N  
HETATM   10  H   UNL     1      -7.553  11.172  66.453  1.00  0.00     0.000 HD 
HETATM   11  O   UNL     1      -9.779  11.343  64.206  1.00  0.00    -0.234 OA 
BRANCH   9  12
HETATM   12  CA  UNL     1      -7.172  10.109  64.593  1.00  0.00    -0.124 C  
HETATM   13  N   UNL     1      -7.203   7.964  64.472  1.00  0.00    -0.076 N  
HETATM   14  CA  UNL     1      -7.886   6.878  65.235  1.00  0.00    -0.118 C  
HETATM   15  C   UNL     1      -6.935   5.671  65.382  1.00  0.00    -0.064 C  
HETATM   16  O   UNL     1      -8.908   8.834  63.140  1.00  0.00    -0.075 OA 
HETATM   17  C   UNL     1      -8.335   7.499  66.576  1.00  0.00    -0.126 C  
HETATM   18  OXT UNL     1      -7.097   4.738  66.155  1.00  0.00    -0.071 OA 
HETATM   19  O   UNL     1      -5.925   5.658  64.476  1.00  0.00    -0.023 OA 
HETATM   20  C   UNL     1      -7.937   8.951  63.849  1.00  0.00    -0.154 C  
HETATM   21  C   UNL     1      -8.601   6.558  67.753  1.00  0.00    -0.117 C  
HETATM   22  S   UNL     1      -6.937   8.627  67.031  1.00  0.00    -0.075 SA 
HETATM   23  C   UNL     1      -9.633   8.312  66.418  1.00  0.00    -0.300 C  
HETATM   24  C   UNL     1      -6.427   8.927  65.286  1.00  0.00    -0.067 C  
ENDBRANCH   9  12
ENDBRANCH   1   8
BRANCH   1  25
HETATM   25  N   UNL     1      -9.111  13.665  66.695  1.00  0.00    -0.399 N  
HETATM   26  H   UNL     1      -8.121  13.638  66.943  1.00  0.00     0.000 HD 
BRANCH  25  27
HETATM   27  C   UNL     1      -9.761  14.876  66.608  1.00  0.00    -0.261 C  
HETATM   28  O   UNL     1     -10.947  14.970  66.299  1.00  0.00    -0.332 OA 
BRANCH  27  29
HETATM   29  N   UNL     1      -9.005  15.991  66.941  1.00  0.00    -0.211 N  
HETATM   30  C   UNL     1      -7.768  15.857  67.688  1.00  0.00    -0.150 C  
HETATM   31  C   UNL     1      -7.172  17.257  67.726  1.00  0.00    -0.159 C  
HETATM   32  C   UNL     1      -9.101  17.282  66.412  1.00  0.00    -0.253 C  
HETATM   33  O   UNL     1      -9.979  17.711  65.682  1.00  0.00    -0.558 OA 
HETATM   34  N   UNL     1      -8.024  18.025  66.863  1.00  0.00    -0.223 NA 
ENDBRANCH  27  29
ENDBRANCH  25  27
ENDBRANCH   1  25
TORSDOF 6
ENDMDL
MODEL      170
REMARK 921   NORMALIZED FREE ENERGY PREDICTED BY IDOCK:   -3.36 KCAL/MOL
REMARK 922        TOTAL FREE ENERGY PREDICTED BY IDOCK:   -6.63 KCAL/MOL
REMARK 923 INTER-LIGAND FREE ENERGY PREDICTED BY IDOCK:   -5.04 KCAL/MOL
REMARK 924 INTRA-LIGAND FREE ENERGY PREDICTED BY IDOCK:   -1.60 KCAL/MOL
REMARK 927      BINDING AFFINITY PREDICTED BY RF-SCORE:    0.00 PKD
ROOT
HETATM    1  CA  UNL     1     -10.407   6.342  71.915  1.00  0.00    -0.204 C  
ENDROOT
BRANCH   1   2
HETATM    2  C   UNL     1     -10.348   4.812  71.940  1.00  0.00    -0.242 A  
HETATM    3  C   UNL     1      -9.488   2.764  70.947  1.00  0.00    -0.224 A  
HETATM    4  C   UNL     1      -9.852   2.048  72.084  1.00  0.00    -0.207 A  
HETATM    5  C   UNL     1     -10.525   2.689  73.120  1.00  0.00    -0.249 A  
HETATM    6  C   UNL     1      -9.738   4.135  70.872  1.00  0.00    -0.259 A  
HETATM    7  C   UNL     1     -10.783   4.059  73.044  1.00  0.00    -0.251 A  
ENDBRANCH   1   2
BRANCH   1   8
HETATM    8  C   UNL     1     -11.124   6.832  70.594  1.00  0.00    -0.291 C  
HETATM    9  N   UNL     1     -10.318   7.469  69.668  1.00  0.00    -0.220 N  
HETATM   10  H   UNL     1      -9.330   7.568  69.900  1.00  0.00     0.000 HD 
HETATM   11  O   UNL     1     -12.326   6.666  70.391  1.00  0.00    -0.274 OA 
BRANCH   9  12
HETATM   12  CA  UNL     1     -10.775   8.030  68.341  1.00  0.00    -0.016 C  
HETATM   13  N   UNL     1      -9.753   7.888  66.456  1.00  0.00    -0.222 N  
HETATM   14  CA  UNL     1      -8.447   7.321  66.010  1.00  0.00    -0.145 C  
HETATM   15  C   UNL     1      -7.829   8.232  64.927  1.00  0.00    -0.126 C  
HETATM   16  O   UNL     1     -11.083   5.996  66.753  1.00  0.00    -0.291 OA 
HETATM   17  C   UNL     1      -7.579   7.165  67.278  1.00  0.00    -0.104 C  
HETATM   18  OXT UNL     1      -6.669   8.184  64.545  1.00  0.00    -0.066 OA 
HETATM   19  O   UNL     1      -8.729   9.048  64.322  1.00  0.00    -0.185 OA 
HETATM   20  C   UNL     1     -10.687   7.090  67.082  1.00  0.00    -0.363 C  
HETATM   21  C   UNL     1      -6.059   7.092  67.108  1.00  0.00    -0.041 C  
HETATM   22  S   UNL     1      -7.986   8.669  68.281  1.00  0.00    -0.111 SA 
HETATM   23  C   UNL     1      -7.950   5.895  68.066  1.00  0.00    -0.105 C  
HETATM   24  C   UNL     1      -9.683   8.846  67.584  1.00  0.00    -0.161 C  
ENDBRANCH   9  12
ENDBRANCH   1   8
BRANCH   1  25
HETATM   25  N   UNL     1      -9.088   6.937  72.145  1.00  0.00    -0.133 N  
HETATM   26  H   UNL     1      -8.721   7.627  71.489  1.00  0.00     0.000 HD 
BRANCH  25  27
HETATM   27  C   UNL     1      -8.338   6.572  73.242  1.00  0.00    -0.116 C  
HETATM   28  O   UNL     1      -8.606   6.946  74.382  1.00  0.00    -0.151 OA 
BRANCH  27  29
HETATM   29  N   UNL     1      -7.281   5.709  72.989  1.00  0.00    -0.089 N  
HETATM   30  C   UNL     1      -6.184   6.107  72.123  1.00  0.00    -0.042 C  
HETATM   31  C   UNL     1      -5.176   4.971  72.212  1.00  0.00    -0.005 C  
HETATM   32  C   UNL     1      -6.936   4.547  73.685  1.00  0.00    -0.066 C  
HETATM   33  O   UNL     1      -7.599   3.981  74.538  1.00  0.00    -0.072 OA 
HETATM   34  N   UNL     1      -5.699   4.115  73.239  1.00  0.00    -0.007 NA 
ENDBRANCH  27  29
ENDBRANCH  25  27
ENDBRANCH   1  25
TORSDOF 6
ENDMDL
MODEL      171
REMARK 921   NORMALIZED FREE ENERGY PREDICTED BY IDOCK:   -3.32 KCAL/MOL
REMARK 922        TOTAL FREE ENERGY PREDICTED BY IDOCK:   -6.57 KCAL/MOL
REMARK 923 INTER-LIGAND FREE ENERGY PREDICTED BY IDOCK:   -5.05 KCAL/MOL
REMARK 924 INTRA-LIGAND FREE ENERGY PREDICTED BY IDOCK:   -1.53 KCAL/MOL
REMARK 927      BINDING AFFINITY PREDICTED BY RF-SCORE:    0.00 PKD
ROOT
HETATM    1  CA  UNL     1      -7.513   8.086  70.443  1.00  0.00    -0.075 C  
ENDROOT
BRANCH   1   2
HETATM    2  C   UNL     1      -8.893   7.453  70.236  1.00  0.00    -0.147 A  
HETATM    3  C   UNL     1     -10.222   5.427  70.025  1.00  0.00    -0.349 A  
HETATM    4  C   UNL     1     -11.389   6.159  70.233  1.00  0.00    -0.414 A  
HETATM    5  C   UNL     1     -11.323   7.541  70.371  1.00  0.00    -0.253 A  
HETATM    6  C   UNL     1      -8.983   6.069  70.021  1.00  0.00    -0.149 A  
HETATM    7  C   UNL     1     -10.085   8.187  70.360  1.00  0.00    -0.196 A  
ENDBRANCH   1   2
BRANCH   1   8
HETATM    8  C   UNL     1      -6.742   8.161  69.065  1.00  0.00    -0.048 C  
HETATM    9  N   UNL     1      -7.531   8.199  67.930  1.00  0.00    -0.096 N  
HETATM   10  H   UNL     1      -8.542   8.184  68.065  1.00  0.00     0.000 HD 
HETATM   11  O   UNL     1      -5.514   8.181  68.993  1.00  0.00    -0.026 OA 
BRANCH   9  12
HETATM   12  CA  UNL     1      -7.025   8.263  66.507  1.00  0.00    -0.068 C  
HETATM   13  N   UNL     1      -7.663   9.621  64.969  1.00  0.00    -0.113 N  
HETATM   14  CA  UNL     1      -8.693  10.697  64.878  1.00  0.00    -0.168 C  
HETATM   15  C   UNL     1      -9.340  10.678  63.477  1.00  0.00    -0.290 C  
HETATM   16  O   UNL     1      -5.961  10.616  66.215  1.00  0.00    -0.082 OA 
HETATM   17  C   UNL     1      -9.684  10.456  66.038  1.00  0.00    -0.211 C  
HETATM   18  OXT UNL     1     -10.373  11.255  63.171  1.00  0.00    -0.342 OA 
HETATM   19  O   UNL     1      -8.592  10.044  62.539  1.00  0.00    -0.152 OA 
HETATM   20  C   UNL     1      -6.669   9.681  65.923  1.00  0.00    -0.084 C  
HETATM   21  C   UNL     1     -11.087  11.056  65.924  1.00  0.00    -0.038 C  
HETATM   22  S   UNL     1      -9.839   8.611  66.111  1.00  0.00    -0.101 SA 
HETATM   23  C   UNL     1      -9.133  10.987  67.374  1.00  0.00    -0.143 C  
HETATM   24  C   UNL     1      -8.153   8.303  65.432  1.00  0.00    -0.135 C  
ENDBRANCH   9  12
ENDBRANCH   1   8
BRANCH   1  25
HETATM   25  N   UNL     1      -6.771   7.421  71.518  1.00  0.00    -0.050 N  
HETATM   26  H   UNL     1      -6.098   6.688  71.291  1.00  0.00     0.000 HD 
BRANCH  25  27
HETATM   27  C   UNL     1      -6.974   7.779  72.833  1.00  0.00    -0.077 C  
HETATM   28  O   UNL     1      -6.425   8.751  73.347  1.00  0.00    -0.255 OA 
BRANCH  27  29
HETATM   29  N   UNL     1      -7.882   6.999  73.536  1.00  0.00    -0.092 N  
HETATM   30  C   UNL     1      -9.208   7.501  73.852  1.00  0.00    -0.262 C  
HETATM   31  C   UNL     1      -9.937   6.325  74.485  1.00  0.00    -0.341 C  
HETATM   32  C   UNL     1      -7.828   5.622  73.774  1.00  0.00    -0.104 C  
HETATM   33  O   UNL     1      -6.887   4.878  73.554  1.00  0.00    -0.066 OA 
HETATM   34  N   UNL     1      -9.034   5.222  74.322  1.00  0.00    -0.118 NA 
ENDBRANCH  27  29
ENDBRANCH  25  27
ENDBRANCH   1  25
TORSDOF 6
ENDMDL
MODEL      172
REMARK 921   NORMALIZED FREE ENERGY PREDICTED BY IDOCK:   -3.31 KCAL/MOL
REMARK 922        TOTAL FREE ENERGY PREDICTED BY IDOCK:   -6.57 KCAL/MOL
REMARK 923 INTER-LIGAND FREE ENERGY PREDICTED BY IDOCK:   -6.41 KCAL/MOL
REMARK 924 INTRA-LIGAND FREE ENERGY PREDICTED BY IDOCK:   -0.16 KCAL/MOL
REMARK 927      BINDING AFFINITY PREDICTED BY RF-SCORE:    0.00 PKD
ROOT
HETATM    1  CA  UNL     1      -7.749  11.903  66.658  1.00  0.00     0.018 C  
ENDROOT
BRANCH   1   2
HETATM    2  C   UNL     1      -8.376  10.714  67.392  1.00  0.00    -0.119 A  
HETATM    3  C   UNL     1      -9.207   8.430  67.285  1.00  0.00    -0.165 A  
HETATM    4  C   UNL     1      -9.178   8.344  68.675  1.00  0.00    -0.143 A  
HETATM    5  C   UNL     1      -8.819   9.456  69.429  1.00  0.00    -0.159 A  
HETATM    6  C   UNL     1      -8.814   9.607  66.647  1.00  0.00    -0.153 A  
HETATM    7  C   UNL     1      -8.433  10.638  68.793  1.00  0.00    -0.149 A  
ENDBRANCH   1   2
BRANCH   1   8
HETATM    8  C   UNL     1      -6.584  12.520  67.529  1.00  0.00    -0.150 C  
HETATM    9  N   UNL     1      -6.542  13.901  67.594  1.00  0.00    -0.177 N  
HETATM   10  H   UNL     1      -7.263  14.413  67.086  1.00  0.00     0.000 HD 
HETATM   11  O   UNL     1      -5.755  11.826  68.116  1.00  0.00    -0.046 OA 
BRANCH   9  12
HETATM   12  CA  UNL     1      -5.520  14.717  68.353  1.00  0.00    -0.108 C  
HETATM   13  N   UNL     1      -5.832  16.621  69.299  1.00  0.00    -0.151 N  
HETATM   14  CA  UNL     1      -6.980  17.568  69.401  1.00  0.00    -0.098 C  
HETATM   15  C   UNL     1      -6.461  19.021  69.335  1.00  0.00    -0.294 C  
HETATM   16  O   UNL     1      -6.410  14.920  70.786  1.00  0.00    -0.061 OA 
HETATM   17  C   UNL     1      -7.960  17.194  68.267  1.00  0.00    -0.236 C  
HETATM   18  OXT UNL     1      -7.155  20.008  69.142  1.00  0.00    -0.287 OA 
HETATM   19  O   UNL     1      -5.143  19.143  69.633  1.00  0.00    -0.177 OA 
HETATM   20  C   UNL     1      -5.954  15.320  69.741  1.00  0.00    -0.134 C  
HETATM   21  C   UNL     1      -8.956  18.256  67.795  1.00  0.00    -0.273 C  
HETATM   22  S   UNL     1      -6.851  16.756  66.849  1.00  0.00    -0.231 SA 
HETATM   23  C   UNL     1      -8.827  15.979  68.647  1.00  0.00    -0.210 C  
HETATM   24  C   UNL     1      -5.456  16.215  67.925  1.00  0.00    -0.125 C  
ENDBRANCH   9  12
ENDBRANCH   1   8
BRANCH   1  25
HETATM   25  N   UNL     1      -8.764  12.870  66.230  1.00  0.00    -0.404 N  
HETATM   26  H   UNL     1      -8.546  13.543  65.496  1.00  0.00     0.000 HD 
BRANCH  25  27
HETATM   27  C   UNL     1     -10.013  12.876  66.813  1.00  0.00    -0.243 C  
HETATM   28  O   UNL     1     -10.176  12.811  68.029  1.00  0.00    -0.215 OA 
BRANCH  27  29
HETATM   29  N   UNL     1     -11.084  13.011  65.941  1.00  0.00    -0.277 N  
HETATM   30  C   UNL     1     -11.675  11.850  65.300  1.00  0.00    -0.169 C  
HETATM   31  C   UNL     1     -12.888  12.383  64.552  1.00  0.00    -0.212 C  
HETATM   32  C   UNL     1     -11.918  14.121  65.771  1.00  0.00    -0.402 C  
HETATM   33  O   UNL     1     -11.755  15.237  66.235  1.00  0.00    -0.104 OA 
HETATM   34  N   UNL     1     -12.981  13.755  64.965  1.00  0.00    -0.755 NA 
ENDBRANCH  27  29
ENDBRANCH  25  27
ENDBRANCH   1  25
TORSDOF 6
ENDMDL
MODEL      173
REMARK 921   NORMALIZED FREE ENERGY PREDICTED BY IDOCK:   -3.26 KCAL/MOL
REMARK 922        TOTAL FREE ENERGY PREDICTED BY IDOCK:   -6.50 KCAL/MOL
REMARK 923 INTER-LIGAND FREE ENERGY PREDICTED BY IDOCK:   -5.66 KCAL/MOL
REMARK 924 INTRA-LIGAND FREE ENERGY PREDICTED BY IDOCK:   -0.85 KCAL/MOL
REMARK 927      BINDING AFFINITY PREDICTED BY RF-SCORE:    0.00 PKD
ROOT
HETATM    1  CA  UNL     1      -9.642  11.410  65.874  1.00  0.00    -0.227 C  
ENDROOT
BRANCH   1   2
HETATM    2  C   UNL     1      -9.652  10.441  67.061  1.00  0.00    -0.197 A  
HETATM    3  C   UNL     1     -10.753   8.604  68.213  1.00  0.00    -0.107 A  
HETATM    4  C   UNL     1      -9.605   8.375  68.967  1.00  0.00    -0.160 A  
HETATM    5  C   UNL     1      -8.505   9.216  68.825  1.00  0.00    -0.130 A  
HETATM    6  C   UNL     1     -10.780   9.633  67.270  1.00  0.00    -0.284 A  
HETATM    7  C   UNL     1      -8.532  10.250  67.888  1.00  0.00    -0.118 A  
ENDBRANCH   1   2
BRANCH   1   8
HETATM    8  C   UNL     1      -9.100  10.676  64.583  1.00  0.00    -0.211 C  
HETATM    9  N   UNL     1      -7.807  10.194  64.657  1.00  0.00    -0.145 N  
HETATM   10  H   UNL     1      -7.305  10.340  65.533  1.00  0.00     0.000 HD 
HETATM   11  O   UNL     1      -9.779  10.538  63.565  1.00  0.00    -0.300 OA 
BRANCH   9  12
HETATM   12  CA  UNL     1      -7.072   9.469  63.553  1.00  0.00    -0.102 C  
HETATM   13  N   UNL     1      -6.777   7.348  63.373  1.00  0.00    -0.053 N  
HETATM   14  CA  UNL     1      -7.120   6.164  64.214  1.00  0.00    -0.053 C  
HETATM   15  C   UNL     1      -5.975   5.130  64.146  1.00  0.00    -0.021 C  
HETATM   16  O   UNL     1      -8.818   7.925  62.404  1.00  0.00     0.061 OA 
HETATM   17  C   UNL     1      -7.405   6.702  65.634  1.00  0.00    -0.075 C  
HETATM   18  OXT UNL     1      -5.836   4.184  64.906  1.00  0.00    -0.020 OA 
HETATM   19  O   UNL     1      -5.163   5.286  63.070  1.00  0.00    -0.012 OA 
HETATM   20  C   UNL     1      -7.764   8.201  62.927  1.00  0.00    -0.134 C  
HETATM   21  C   UNL     1      -7.291   5.729  66.810  1.00  0.00    -0.079 C  
HETATM   22  S   UNL     1      -6.150   8.046  65.859  1.00  0.00    -0.038 SA 
HETATM   23  C   UNL     1      -8.825   7.289  65.742  1.00  0.00    -0.095 C  
HETATM   24  C   UNL     1      -6.029   8.426  64.059  1.00  0.00    -0.067 C  
ENDBRANCH   9  12
ENDBRANCH   1   8
BRANCH   1  25
HETATM   25  N   UNL     1      -8.942  12.656  66.201  1.00  0.00    -0.431 N  
HETATM   26  H   UNL     1      -7.924  12.668  66.249  1.00  0.00     0.000 HD 
BRANCH  25  27
HETATM   27  C   UNL     1      -9.651  13.813  66.443  1.00  0.00    -0.272 C  
HETATM   28  O   UNL     1      -9.219  14.717  67.155  1.00  0.00    -0.203 OA 
BRANCH  27  29
HETATM   29  N   UNL     1     -10.872  13.919  65.791  1.00  0.00    -0.285 N  
HETATM   30  C   UNL     1     -10.945  14.389  64.419  1.00  0.00    -0.153 C  
HETATM   31  C   UNL     1     -12.406  14.228  64.022  1.00  0.00    -0.244 C  
HETATM   32  C   UNL     1     -12.097  13.360  66.166  1.00  0.00    -0.429 C  
HETATM   33  O   UNL     1     -12.360  12.816  67.226  1.00  0.00    -0.335 OA 
HETATM   34  N   UNL     1     -12.997  13.531  65.129  1.00  0.00    -0.734 NA 
ENDBRANCH  27  29
ENDBRANCH  25  27
ENDBRANCH   1  25
TORSDOF 6
ENDMDL
MODEL      174
REMARK 921   NORMALIZED FREE ENERGY PREDICTED BY IDOCK:   -3.26 KCAL/MOL
REMARK 922        TOTAL FREE ENERGY PREDICTED BY IDOCK:   -6.50 KCAL/MOL
REMARK 923 INTER-LIGAND FREE ENERGY PREDICTED BY IDOCK:   -5.78 KCAL/MOL
REMARK 924 INTRA-LIGAND FREE ENERGY PREDICTED BY IDOCK:   -0.72 KCAL/MOL
REMARK 927      BINDING AFFINITY PREDICTED BY RF-SCORE:    0.00 PKD
ROOT
HETATM    1  CA  UNL     1      -8.485  15.614  69.000  1.00  0.00    -0.231 C  
ENDROOT
BRANCH   1   2
HETATM    2  C   UNL     1      -7.235  15.023  69.659  1.00  0.00    -0.192 A  
HETATM    3  C   UNL     1      -5.264  15.386  71.038  1.00  0.00    -0.128 A  
HETATM    4  C   UNL     1      -5.125  14.011  71.218  1.00  0.00    -0.139 A  
HETATM    5  C   UNL     1      -5.990  13.138  70.567  1.00  0.00    -0.093 A  
HETATM    6  C   UNL     1      -6.307  15.889  70.260  1.00  0.00     0.071 A  
HETATM    7  C   UNL     1      -7.031  13.639  69.782  1.00  0.00     0.228 A  
ENDBRANCH   1   2
BRANCH   1   8
HETATM    8  C   UNL     1      -8.708  14.957  67.580  1.00  0.00    -0.187 C  
HETATM    9  N   UNL     1      -9.711  14.009  67.501  1.00  0.00    -0.227 N  
HETATM   10  H   UNL     1     -10.232  13.810  68.355  1.00  0.00     0.000 HD 
HETATM   11  O   UNL     1      -8.033  15.260  66.595  1.00  0.00    -0.164 OA 
BRANCH   9  12
HETATM   12  CA  UNL     1     -10.102  13.240  66.259  1.00  0.00    -0.294 C  
HETATM   13  N   UNL     1     -10.108  11.106  66.008  1.00  0.00    -0.236 N  
HETATM   14  CA  UNL     1      -9.719   9.947  66.862  1.00  0.00    -0.186 C  
HETATM   15  C   UNL     1      -9.062   8.856  65.989  1.00  0.00    -0.214 C  
HETATM   16  O   UNL     1     -12.147  11.779  66.918  1.00  0.00    -0.566 OA 
HETATM   17  C   UNL     1      -8.802  10.507  67.972  1.00  0.00    -0.131 C  
HETATM   18  OXT UNL     1      -8.418   7.908  66.413  1.00  0.00    -0.124 OA 
HETATM   19  O   UNL     1      -9.358   8.963  64.669  1.00  0.00     0.095 OA 
HETATM   20  C   UNL     1     -11.062  12.005  66.438  1.00  0.00    -0.318 C  
HETATM   21  C   UNL     1      -7.856   9.537  68.684  1.00  0.00    -0.084 C  
HETATM   22  S   UNL     1      -7.784  11.787  67.101  1.00  0.00    -0.160 SA 
HETATM   23  C   UNL     1      -9.617  11.166  69.101  1.00  0.00    -0.024 C  
HETATM   24  C   UNL     1      -9.072  12.150  65.833  1.00  0.00     0.002 C  
ENDBRANCH   9  12
ENDBRANCH   1   8
BRANCH   1  25
HETATM   25  N   UNL     1      -8.449  17.079  68.991  1.00  0.00    -0.185 N  
HETATM   26  H   UNL     1      -7.693  17.571  69.468  1.00  0.00     0.000 HD 
BRANCH  25  27
HETATM   27  C   UNL     1      -9.429  17.798  68.343  1.00  0.00    -0.297 C  
HETATM   28  O   UNL     1     -10.628  17.566  68.489  1.00  0.00    -0.357 OA 
BRANCH  27  29
HETATM   29  N   UNL     1      -8.983  18.843  67.545  1.00  0.00    -0.283 N  
HETATM   30  C   UNL     1      -7.574  19.191  67.492  1.00  0.00    -0.236 C  
HETATM   31  C   UNL     1      -7.470  20.265  66.420  1.00  0.00    -0.245 C  
HETATM   32  C   UNL     1      -9.668  19.486  66.510  1.00  0.00    -0.388 C  
HETATM   33  O   UNL     1     -10.848  19.364  66.226  1.00  0.00    -0.404 OA 
HETATM   34  N   UNL     1      -8.783  20.314  65.842  1.00  0.00    -0.082 NA 
ENDBRANCH  27  29
ENDBRANCH  25  27
ENDBRANCH   1  25
TORSDOF 6
ENDMDL
MODEL      175
REMARK 921   NORMALIZED FREE ENERGY PREDICTED BY IDOCK:   -2.99 KCAL/MOL
REMARK 922        TOTAL FREE ENERGY PREDICTED BY IDOCK:   -6.13 KCAL/MOL
REMARK 923 INTER-LIGAND FREE ENERGY PREDICTED BY IDOCK:   -4.76 KCAL/MOL
REMARK 924 INTRA-LIGAND FREE ENERGY PREDICTED BY IDOCK:   -1.38 KCAL/MOL
REMARK 927      BINDING AFFINITY PREDICTED BY RF-SCORE:    0.00 PKD
ROOT
HETATM    1  CA  UNL     1     -10.782   6.710  68.201  1.00  0.00    -0.258 C  
ENDROOT
BRANCH   1   2
HETATM    2  C   UNL     1     -11.038   7.108  69.658  1.00  0.00    -0.206 A  
HETATM    3  C   UNL     1     -10.694   8.721  71.446  1.00  0.00    -0.356 A  
HETATM    4  C   UNL     1     -11.725   8.141  72.181  1.00  0.00    -0.418 A  
HETATM    5  C   UNL     1     -12.367   7.006  71.696  1.00  0.00    -0.407 A  
HETATM    6  C   UNL     1     -10.349   8.206  70.196  1.00  0.00    -0.215 A  
HETATM    7  C   UNL     1     -12.018   6.484  70.449  1.00  0.00    -0.295 A  
ENDBRANCH   1   2
BRANCH   1   8
HETATM    8  C   UNL     1     -10.013   5.330  68.146  1.00  0.00    -0.155 C  
HETATM    9  N   UNL     1      -9.300   4.988  69.280  1.00  0.00    -0.116 N  
HETATM   10  H   UNL     1      -9.328   5.641  70.063  1.00  0.00     0.000 HD 
HETATM   11  O   UNL     1     -10.037   4.597  67.158  1.00  0.00    -0.192 OA 
BRANCH   9  12
HETATM   12  CA  UNL     1      -8.482   3.729  69.461  1.00  0.00    -0.064 C  
HETATM   13  N   UNL     1      -7.551   3.042  71.271  1.00  0.00    -0.043 N  
HETATM   14  CA  UNL     1      -7.421   3.582  72.656  1.00  0.00    -0.051 C  
HETATM   15  C   UNL     1      -6.020   3.248  73.213  1.00  0.00    -0.008 C  
HETATM   16  O   UNL     1      -9.752   2.276  71.201  1.00  0.00    -0.149 OA 
HETATM   17  C   UNL     1      -7.725   5.094  72.569  1.00  0.00    -0.098 C  
HETATM   18  OXT UNL     1      -5.517   3.757  74.204  1.00  0.00    -0.003 OA 
HETATM   19  O   UNL     1      -5.405   2.226  72.566  1.00  0.00     0.000 OA 
HETATM   20  C   UNL     1      -8.795   2.831  70.715  1.00  0.00    -0.083 C  
HETATM   21  C   UNL     1      -7.198   6.001  73.683  1.00  0.00    -0.088 C  
HETATM   22  S   UNL     1      -6.943   5.611  70.971  1.00  0.00    -0.068 SA 
HETATM   23  C   UNL     1      -9.240   5.365  72.521  1.00  0.00    -0.145 C  
HETATM   24  C   UNL     1      -7.120   3.953  70.186  1.00  0.00    -0.041 C  
ENDBRANCH   9  12
ENDBRANCH   1   8
BRANCH   1  25
HETATM   25  N   UNL     1     -10.140   7.793  67.451  1.00  0.00    -0.199 N  
HETATM   26  H   UNL     1     -10.655   8.653  67.260  1.00  0.00     0.000 HD 
BRANCH  25  27
HETATM   27  C   UNL     1      -8.844   7.659  67.001  1.00  0.00    -0.128 C  
HETATM   28  O   UNL     1      -7.915   7.347  67.743  1.00  0.00    -0.115 OA 
BRANCH  27  29
HETATM   29  N   UNL     1      -8.656   7.849  65.639  1.00  0.00    -0.150 N  
HETATM   30  C   UNL     1      -8.830   9.159  65.039  1.00  0.00    -0.189 C  
HETATM   31  C   UNL     1      -8.401   8.992  63.588  1.00  0.00    -0.177 C  
HETATM   32  C   UNL     1      -8.025   6.992  64.732  1.00  0.00    -0.122 C  
HETATM   33  O   UNL     1      -7.673   5.843  64.935  1.00  0.00    -0.085 OA 
HETATM   34  N   UNL     1      -7.866   7.661  63.531  1.00  0.00    -0.133 NA 
ENDBRANCH  27  29
ENDBRANCH  25  27
ENDBRANCH   1  25
TORSDOF 6
ENDMDL
MODEL      176
REMARK 921   NORMALIZED FREE ENERGY PREDICTED BY IDOCK:   -2.94 KCAL/MOL
REMARK 922        TOTAL FREE ENERGY PREDICTED BY IDOCK:   -6.07 KCAL/MOL
REMARK 923 INTER-LIGAND FREE ENERGY PREDICTED BY IDOCK:   -4.99 KCAL/MOL
REMARK 924 INTRA-LIGAND FREE ENERGY PREDICTED BY IDOCK:   -1.07 KCAL/MOL
REMARK 927      BINDING AFFINITY PREDICTED BY RF-SCORE:    0.00 PKD
ROOT
HETATM    1  CA  UNL     1     -10.065   5.359  71.103  1.00  0.00    -0.212 C  
ENDROOT
BRANCH   1   2
HETATM    2  C   UNL     1      -9.635   4.337  70.046  1.00  0.00    -0.274 A  
HETATM    3  C   UNL     1      -9.304   2.002  69.450  1.00  0.00    -0.166 A  
HETATM    4  C   UNL     1      -9.230   2.346  68.103  1.00  0.00    -0.255 A  
HETATM    5  C   UNL     1      -9.286   3.684  67.726  1.00  0.00    -0.242 A  
HETATM    6  C   UNL     1      -9.499   2.990  70.417  1.00  0.00    -0.218 A  
HETATM    7  C   UNL     1      -9.474   4.675  68.692  1.00  0.00    -0.213 A  
ENDBRANCH   1   2
BRANCH   1   8
HETATM    8  C   UNL     1     -10.857   6.543  70.417  1.00  0.00    -0.273 C  
HETATM    9  N   UNL     1     -10.124   7.681  70.138  1.00  0.00    -0.197 N  
HETATM   10  H   UNL     1      -9.134   7.671  70.386  1.00  0.00     0.000 HD 
HETATM   11  O   UNL     1     -12.055   6.470  70.146  1.00  0.00    -0.323 OA 
BRANCH   9  12
HETATM   12  CA  UNL     1     -10.660   8.941  69.496  1.00  0.00    -0.228 C  
HETATM   13  N   UNL     1      -9.657  10.190  68.065  1.00  0.00    -0.144 N  
HETATM   14  CA  UNL     1      -8.304  10.192  67.438  1.00  0.00    -0.118 C  
HETATM   15  C   UNL     1      -7.807  11.645  67.278  1.00  0.00    -0.157 C  
HETATM   16  O   UNL     1     -10.765   8.472  66.942  1.00  0.00    -0.265 OA 
HETATM   17  C   UNL     1      -7.404   9.309  68.331  1.00  0.00    -0.077 C  
HETATM   18  OXT UNL     1      -6.655  11.972  67.035  1.00  0.00    -0.148 OA 
HETATM   19  O   UNL     1      -8.801  12.568  67.315  1.00  0.00    -0.178 OA 
HETATM   20  C   UNL     1     -10.487   9.096  67.940  1.00  0.00    -0.237 C  
HETATM   21  C   UNL     1      -5.889   9.510  68.251  1.00  0.00    -0.040 C  
HETATM   22  S   UNL     1      -7.960   9.711  70.052  1.00  0.00    -0.183 SA 
HETATM   23  C   UNL     1      -7.620   7.811  68.048  1.00  0.00    -0.120 C  
HETATM   24  C   UNL     1      -9.677  10.150  69.545  1.00  0.00    -0.229 C  
ENDBRANCH   9  12
ENDBRANCH   1   8
BRANCH   1  25
HETATM   25  N   UNL     1      -8.935   5.786  71.932  1.00  0.00    -0.139 N  
HETATM   26  H   UNL     1      -9.107   6.218  72.840  1.00  0.00     0.000 HD 
BRANCH  25  27
HETATM   27  C   UNL     1      -7.640   5.608  71.495  1.00  0.00    -0.105 C  
HETATM   28  O   UNL     1      -7.133   6.309  70.622  1.00  0.00    -0.065 OA 
BRANCH  27  29
HETATM   29  N   UNL     1      -6.919   4.613  72.140  1.00  0.00    -0.058 N  
HETATM   30  C   UNL     1      -7.081   4.377  73.563  1.00  0.00    -0.070 C  
HETATM   31  C   UNL     1      -6.248   3.138  73.858  1.00  0.00    -0.019 C  
HETATM   32  C   UNL     1      -6.214   3.552  71.562  1.00  0.00    -0.015 C  
HETATM   33  O   UNL     1      -5.961   3.400  70.379  1.00  0.00    -0.017 OA 
HETATM   34  N   UNL     1      -5.827   2.681  72.565  1.00  0.00    -0.008 NA 
ENDBRANCH  27  29
ENDBRANCH  25  27
ENDBRANCH   1  25
TORSDOF 6
ENDMDL
MODEL      177
REMARK 921   NORMALIZED FREE ENERGY PREDICTED BY IDOCK:   -2.79 KCAL/MOL
REMARK 922        TOTAL FREE ENERGY PREDICTED BY IDOCK:   -5.86 KCAL/MOL
REMARK 923 INTER-LIGAND FREE ENERGY PREDICTED BY IDOCK:   -5.21 KCAL/MOL
REMARK 924 INTRA-LIGAND FREE ENERGY PREDICTED BY IDOCK:   -0.66 KCAL/MOL
REMARK 927      BINDING AFFINITY PREDICTED BY RF-SCORE:    0.00 PKD
ROOT
HETATM    1  CA  UNL     1      -8.379  12.002  67.725  1.00  0.00    -0.156 C  
ENDROOT
BRANCH   1   2
HETATM    2  C   UNL     1      -7.195  12.853  68.193  1.00  0.00    -0.114 A  
HETATM    3  C   UNL     1      -5.476  14.481  67.633  1.00  0.00     0.057 A  
HETATM    4  C   UNL     1      -5.260  14.732  68.986  1.00  0.00    -0.094 A  
HETATM    5  C   UNL     1      -5.953  14.001  69.945  1.00  0.00    -0.133 A  
HETATM    6  C   UNL     1      -6.432  13.545  67.238  1.00  0.00     0.212 A  
HETATM    7  C   UNL     1      -6.905  13.058  69.553  1.00  0.00     0.099 A  
ENDBRANCH   1   2
BRANCH   1   8
HETATM    8  C   UNL     1      -9.674  12.899  67.603  1.00  0.00    -0.212 C  
HETATM    9  N   UNL     1      -9.776  13.942  68.506  1.00  0.00    -0.265 N  
HETATM   10  H   UNL     1      -9.012  14.058  69.172  1.00  0.00     0.000 HD 
HETATM   11  O   UNL     1     -10.549  12.691  66.763  1.00  0.00    -0.235 OA 
BRANCH   9  12
HETATM   12  CA  UNL     1     -10.921  14.925  68.591  1.00  0.00    -0.257 C  
HETATM   13  N   UNL     1     -11.108  16.786  67.533  1.00  0.00    -0.124 N  
HETATM   14  CA  UNL     1     -10.241  17.550  66.590  1.00  0.00    -0.332 C  
HETATM   15  C   UNL     1     -10.376  19.062  66.870  1.00  0.00    -0.407 C  
HETATM   16  O   UNL     1     -11.947  15.060  66.207  1.00  0.00    -0.136 OA 
HETATM   17  C   UNL     1      -8.808  16.998  66.765  1.00  0.00    -0.242 C  
HETATM   18  OXT UNL     1      -9.621  19.926  66.449  1.00  0.00    -0.382 OA 
HETATM   19  O   UNL     1     -11.502  19.392  67.551  1.00  0.00     0.026 OA 
HETATM   20  C   UNL     1     -11.495  15.495  67.241  1.00  0.00    -0.102 C  
HETATM   21  C   UNL     1      -7.637  17.883  66.331  1.00  0.00    -0.308 C  
HETATM   22  S   UNL     1      -8.671  16.695  68.588  1.00  0.00    -0.255 SA 
HETATM   23  C   UNL     1      -8.612  15.677  65.999  1.00  0.00     0.027 C  
HETATM   24  C   UNL     1     -10.477  16.403  68.816  1.00  0.00    -0.300 C  
ENDBRANCH   9  12
ENDBRANCH   1   8
BRANCH   1  25
HETATM   25  N   UNL     1      -8.546  10.805  68.555  1.00  0.00    -0.141 N  
HETATM   26  H   UNL     1      -8.934  10.891  69.494  1.00  0.00     0.000 HD 
BRANCH  25  27
HETATM   27  C   UNL     1      -8.181   9.566  68.076  1.00  0.00    -0.114 C  
HETATM   28  O   UNL     1      -7.018   9.276  67.807  1.00  0.00    -0.079 OA 
BRANCH  27  29
HETATM   29  N   UNL     1      -9.208   8.639  67.962  1.00  0.00    -0.140 N  
HETATM   30  C   UNL     1      -9.633   8.154  66.661  1.00  0.00    -0.229 C  
HETATM   31  C   UNL     1     -10.656   7.067  66.956  1.00  0.00    -0.341 C  
HETATM   32  C   UNL     1      -9.757   7.838  68.968  1.00  0.00    -0.157 C  
HETATM   33  O   UNL     1      -9.554   7.926  70.167  1.00  0.00    -0.174 OA 
HETATM   34  N   UNL     1     -10.600   6.910  68.382  1.00  0.00    -0.203 NA 
ENDBRANCH  27  29
ENDBRANCH  25  27
ENDBRANCH   1  25
TORSDOF 6
ENDMDL
MODEL      178
REMARK 921   NORMALIZED FREE ENERGY PREDICTED BY IDOCK:   -2.76 KCAL/MOL
REMARK 922        TOTAL FREE ENERGY PREDICTED BY IDOCK:   -5.81 KCAL/MOL
REMARK 923 INTER-LIGAND FREE ENERGY PREDICTED BY IDOCK:   -5.18 KCAL/MOL
REMARK 924 INTRA-LIGAND FREE ENERGY PREDICTED BY IDOCK:   -0.63 KCAL/MOL
REMARK 927      BINDING AFFINITY PREDICTED BY RF-SCORE:    0.00 PKD
ROOT
HETATM    1  CA  UNL     1      -8.683  11.376  67.447  1.00  0.00    -0.145 C  
ENDROOT
BRANCH   1   2
HETATM    2  C   UNL     1      -8.174   9.938  67.309  1.00  0.00    -0.121 A  
HETATM    3  C   UNL     1      -7.636   8.074  65.842  1.00  0.00    -0.086 A  
HETATM    4  C   UNL     1      -6.922   7.459  66.868  1.00  0.00    -0.082 A  
HETATM    5  C   UNL     1      -6.889   8.041  68.132  1.00  0.00    -0.069 A  
HETATM    6  C   UNL     1      -8.263   9.301  66.060  1.00  0.00    -0.111 A  
HETATM    7  C   UNL     1      -7.521   9.265  68.355  1.00  0.00    -0.078 A  
ENDBRANCH   1   2
BRANCH   1   8
HETATM    8  C   UNL     1      -7.523  12.394  67.106  1.00  0.00    -0.095 C  
HETATM    9  N   UNL     1      -7.749  13.712  67.459  1.00  0.00    -0.173 N  
HETATM   10  H   UNL     1      -8.635  13.926  67.916  1.00  0.00     0.000 HD 
HETATM   11  O   UNL     1      -6.478  12.049  66.555  1.00  0.00    -0.013 OA 
BRANCH   9  12
HETATM   12  CA  UNL     1      -6.796  14.862  67.228  1.00  0.00     0.035 C  
HETATM   13  N   UNL     1      -7.180  16.948  67.574  1.00  0.00    -0.143 N  
HETATM   14  CA  UNL     1      -8.364  17.738  68.022  1.00  0.00    -0.249 C  
HETATM   15  C   UNL     1      -8.417  19.075  67.252  1.00  0.00    -0.277 C  
HETATM   16  O   UNL     1      -6.412  15.970  69.547  1.00  0.00    -0.168 OA 
HETATM   17  C   UNL     1      -9.600  16.835  67.812  1.00  0.00    -0.241 C  
HETATM   18  OXT UNL     1      -9.383  19.822  67.204  1.00  0.00    -0.319 OA 
HETATM   19  O   UNL     1      -7.230  19.435  66.701  1.00  0.00    -0.210 OA 
HETATM   20  C   UNL     1      -6.667  15.942  68.366  1.00  0.00    -0.116 C  
HETATM   21  C   UNL     1     -10.971  17.506  67.697  1.00  0.00    -0.111 C  
HETATM   22  S   UNL     1      -9.241  15.957  66.220  1.00  0.00    -0.360 SA 
HETATM   23  C   UNL     1      -9.754  15.811  68.951  1.00  0.00    -0.225 C  
HETATM   24  C   UNL     1      -7.411  16.046  66.422  1.00  0.00     0.309 C  
ENDBRANCH   9  12
ENDBRANCH   1   8
BRANCH   1  25
HETATM   25  N   UNL     1      -9.322  11.599  68.747  1.00  0.00    -0.382 N  
HETATM   26  H   UNL     1      -8.753  11.849  69.556  1.00  0.00     0.000 HD 
BRANCH  25  27
HETATM   27  C   UNL     1     -10.687  11.476  68.885  1.00  0.00    -0.207 C  
HETATM   28  O   UNL     1     -11.206  10.857  69.812  1.00  0.00    -0.252 OA 
BRANCH  27  29
HETATM   29  N   UNL     1     -11.452  12.139  67.935  1.00  0.00    -0.305 N  
HETATM   30  C   UNL     1     -11.950  13.480  68.182  1.00  0.00    -0.341 C  
HETATM   31  C   UNL     1     -12.603  13.908  66.876  1.00  0.00     0.011 C  
HETATM   32  C   UNL     1     -11.608  11.817  66.583  1.00  0.00    -0.197 C  
HETATM   33  O   UNL     1     -11.239  10.798  66.026  1.00  0.00     0.057 OA 
HETATM   34  N   UNL     1     -12.275  12.856  65.957  1.00  0.00    -0.519 NA 
ENDBRANCH  27  29
ENDBRANCH  25  27
ENDBRANCH   1  25
TORSDOF 6
ENDMDL
MODEL      179
REMARK 921   NORMALIZED FREE ENERGY PREDICTED BY IDOCK:   -2.63 KCAL/MOL
REMARK 922        TOTAL FREE ENERGY PREDICTED BY IDOCK:   -5.65 KCAL/MOL
REMARK 923 INTER-LIGAND FREE ENERGY PREDICTED BY IDOCK:   -4.30 KCAL/MOL
REMARK 924 INTRA-LIGAND FREE ENERGY PREDICTED BY IDOCK:   -1.35 KCAL/MOL
REMARK 927      BINDING AFFINITY PREDICTED BY RF-SCORE:    0.00 PKD
ROOT
HETATM    1  CA  UNL     1      -7.358   7.844  70.368  1.00  0.00    -0.068 C  
ENDROOT
BRANCH   1   2
HETATM    2  C   UNL     1      -8.748   7.204  70.292  1.00  0.00    -0.144 A  
HETATM    3  C   UNL     1     -11.124   7.481  69.851  1.00  0.00    -0.185 A  
HETATM    4  C   UNL     1     -11.278   6.100  69.758  1.00  0.00    -0.494 A  
HETATM    5  C   UNL     1     -10.191   5.265  70.000  1.00  0.00    -0.358 A  
HETATM    6  C   UNL     1      -9.870   8.031  70.121  1.00  0.00    -0.184 A  
HETATM    7  C   UNL     1      -8.937   5.812  70.278  1.00  0.00    -0.149 A  
ENDBRANCH   1   2
BRANCH   1   8
HETATM    8  C   UNL     1      -6.662   7.792  68.949  1.00  0.00    -0.050 C  
HETATM    9  N   UNL     1      -6.620   6.552  68.339  1.00  0.00    -0.056 N  
HETATM   10  H   UNL     1      -7.042   5.771  68.842  1.00  0.00     0.000 HD 
HETATM   11  O   UNL     1      -6.181   8.788  68.410  1.00  0.00    -0.052 OA 
BRANCH   9  12
HETATM   12  CA  UNL     1      -6.002   6.252  66.993  1.00  0.00    -0.021 C  
HETATM   13  N   UNL     1      -7.041   5.862  65.153  1.00  0.00    -0.063 N  
HETATM   14  CA  UNL     1      -8.475   5.736  64.762  1.00  0.00    -0.079 C  
HETATM   15  C   UNL     1      -8.628   4.623  63.702  1.00  0.00    -0.132 C  
HETATM   16  O   UNL     1      -6.756   8.164  65.401  1.00  0.00    -0.051 OA 
HETATM   17  C   UNL     1      -9.265   5.483  66.066  1.00  0.00    -0.158 C  
HETATM   18  OXT UNL     1      -9.686   4.109  63.369  1.00  0.00    -0.150 OA 
HETATM   19  O   UNL     1      -7.473   4.321  63.058  1.00  0.00    -0.048 OA 
HETATM   20  C   UNL     1      -6.574   7.018  65.742  1.00  0.00    -0.052 C  
HETATM   21  C   UNL     1     -10.642   4.824  65.958  1.00  0.00    -0.300 C  
HETATM   22  S   UNL     1      -8.156   4.368  67.045  1.00  0.00    -0.101 SA 
HETATM   23  C   UNL     1      -9.510   6.790  66.842  1.00  0.00    -0.189 C  
HETATM   24  C   UNL     1      -6.605   5.005  66.278  1.00  0.00    -0.049 C  
ENDBRANCH   9  12
ENDBRANCH   1   8
BRANCH   1  25
HETATM   25  N   UNL     1      -6.559   7.273  71.456  1.00  0.00    -0.047 N  
HETATM   26  H   UNL     1      -5.857   6.562  71.250  1.00  0.00     0.000 HD 
BRANCH  25  27
HETATM   27  C   UNL     1      -6.749   7.689  72.755  1.00  0.00    -0.068 C  
HETATM   28  O   UNL     1      -6.152   8.649  73.237  1.00  0.00    -0.103 OA 
BRANCH  27  29
HETATM   29  N   UNL     1      -7.699   6.984  73.481  1.00  0.00    -0.085 N  
HETATM   30  C   UNL     1      -8.944   7.612  73.886  1.00  0.00    -0.267 C  
HETATM   31  C   UNL     1      -9.764   6.497  74.519  1.00  0.00    -0.309 C  
HETATM   32  C   UNL     1      -7.784   5.601  73.669  1.00  0.00    -0.101 C  
HETATM   33  O   UNL     1      -6.942   4.770  73.373  1.00  0.00    -0.067 OA 
HETATM   34  N   UNL     1      -8.996   5.311  74.270  1.00  0.00    -0.118 NA 
ENDBRANCH  27  29
ENDBRANCH  25  27
ENDBRANCH   1  25
TORSDOF 6
ENDMDL
MODEL      180
REMARK 921   NORMALIZED FREE ENERGY PREDICTED BY IDOCK:   -1.77 KCAL/MOL
REMARK 922        TOTAL FREE ENERGY PREDICTED BY IDOCK:   -4.49 KCAL/MOL
REMARK 923 INTER-LIGAND FREE ENERGY PREDICTED BY IDOCK:   -4.78 KCAL/MOL
REMARK 924 INTRA-LIGAND FREE ENERGY PREDICTED BY IDOCK:    0.29 KCAL/MOL
REMARK 927      BINDING AFFINITY PREDICTED BY RF-SCORE:    0.00 PKD
ROOT
HETATM    1  CA  UNL     1      -9.389   8.230  69.162  1.00  0.00    -0.151 C  
ENDROOT
BRANCH   1   2
HETATM    2  C   UNL     1      -9.792   7.695  70.539  1.00  0.00    -0.183 A  
HETATM    3  C   UNL     1     -11.440   6.531  71.897  1.00  0.00    -0.345 A  
HETATM    4  C   UNL     1     -10.496   6.347  72.904  1.00  0.00    -0.243 A  
HETATM    5  C   UNL     1      -9.223   6.893  72.767  1.00  0.00    -0.152 A  
HETATM    6  C   UNL     1     -11.094   7.204  70.725  1.00  0.00    -0.296 A  
HETATM    7  C   UNL     1      -8.877   7.574  71.598  1.00  0.00    -0.128 A  
ENDBRANCH   1   2
BRANCH   1   8
HETATM    8  C   UNL     1     -10.485   9.239  68.633  1.00  0.00    -0.209 C  
HETATM    9  N   UNL     1     -10.176   9.913  67.467  1.00  0.00    -0.201 N  
HETATM   10  H   UNL     1      -9.276   9.707  67.034  1.00  0.00     0.000 HD 
HETATM   11  O   UNL     1     -11.552   9.425  69.218  1.00  0.00     0.166 OA 
BRANCH   9  12
HETATM   12  CA  UNL     1     -11.057  10.930  66.776  1.00  0.00    -0.126 C  
HETATM   13  N   UNL     1     -10.458  12.839  65.993  1.00  0.00    -0.269 N  
HETATM   14  CA  UNL     1      -9.183  13.613  65.973  1.00  0.00     0.100 C  
HETATM   15  C   UNL     1      -9.486  15.116  66.158  1.00  0.00    -0.319 C  
HETATM   16  O   UNL     1     -10.114  11.200  64.370  1.00  0.00    -0.268 OA 
HETATM   17  C   UNL     1      -8.284  13.007  67.073  1.00  0.00    -0.062 C  
HETATM   18  OXT UNL     1      -8.658  15.971  66.434  1.00  0.00    -0.282 OA 
HETATM   19  O   UNL     1     -10.768  15.454  65.869  1.00  0.00    -0.315 OA 
HETATM   20  C   UNL     1     -10.520  11.575  65.445  1.00  0.00    -0.281 C  
HETATM   21  C   UNL     1      -7.151  13.869  67.634  1.00  0.00    -0.190 C  
HETATM   22  S   UNL     1      -9.465  12.622  68.448  1.00  0.00    -0.112 SA 
HETATM   23  C   UNL     1      -7.598  11.713  66.595  1.00  0.00    -0.050 C  
HETATM   24  C   UNL     1     -10.908  12.380  67.327  1.00  0.00    -0.243 C  
ENDBRANCH   9  12
ENDBRANCH   1   8
BRANCH   1  25
HETATM   25  N   UNL     1      -9.067   7.143  68.233  1.00  0.00    -0.134 N  
HETATM   26  H   UNL     1      -9.002   7.333  67.233  1.00  0.00     0.000 HD 
BRANCH  25  27
HETATM   27  C   UNL     1      -8.852   5.865  68.700  1.00  0.00    -0.111 C  
HETATM   28  O   UNL     1      -9.770   5.109  69.008  1.00  0.00    -0.136 OA 
BRANCH  27  29
HETATM   29  N   UNL     1      -7.525   5.460  68.757  1.00  0.00    -0.074 N  
HETATM   30  C   UNL     1      -7.174   4.111  69.165  1.00  0.00    -0.051 C  
HETATM   31  C   UNL     1      -5.670   4.013  68.961  1.00  0.00    -0.018 C  
HETATM   32  C   UNL     1      -6.411   6.089  68.193  1.00  0.00    -0.044 C  
HETATM   33  O   UNL     1      -6.373   7.200  67.691  1.00  0.00    -0.043 OA 
HETATM   34  N   UNL     1      -5.323   5.241  68.303  1.00  0.00    -0.007 NA 
ENDBRANCH  27  29
ENDBRANCH  25  27
ENDBRANCH   1  25
TORSDOF 6
ENDMDL
MODEL      181
REMARK 921   NORMALIZED FREE ENERGY PREDICTED BY IDOCK:   -0.86 KCAL/MOL
REMARK 922        TOTAL FREE ENERGY PREDICTED BY IDOCK:   -3.25 KCAL/MOL
REMARK 923 INTER-LIGAND FREE ENERGY PREDICTED BY IDOCK:   -2.13 KCAL/MOL
REMARK 924 INTRA-LIGAND FREE ENERGY PREDICTED BY IDOCK:   -1.13 KCAL/MOL
REMARK 927      BINDING AFFINITY PREDICTED BY RF-SCORE:    0.00 PKD
ROOT
HETATM    1  CA  UNL     1      -7.883   8.361  68.879  1.00  0.00    -0.113 C  
ENDROOT
BRANCH   1   2
HETATM    2  C   UNL     1      -8.900   7.217  68.919  1.00  0.00    -0.130 A  
HETATM    3  C   UNL     1      -9.368   4.893  69.462  1.00  0.00    -0.190 A  
HETATM    4  C   UNL     1     -10.737   5.141  69.393  1.00  0.00     0.055 A  
HETATM    5  C   UNL     1     -11.192   6.402  69.019  1.00  0.00    -0.402 A  
HETATM    6  C   UNL     1      -8.455   5.920  69.222  1.00  0.00    -0.113 A  
HETATM    7  C   UNL     1     -10.281   7.430  68.771  1.00  0.00    -0.199 A  
ENDBRANCH   1   2
BRANCH   1   8
HETATM    8  C   UNL     1      -7.183   8.411  67.462  1.00  0.00    -0.088 C  
HETATM    9  N   UNL     1      -6.874   7.189  66.895  1.00  0.00    -0.069 N  
HETATM   10  H   UNL     1      -7.124   6.353  67.424  1.00  0.00     0.000 HD 
HETATM   11  O   UNL     1      -6.921   9.468  66.889  1.00  0.00    -0.080 OA 
BRANCH   9  12
HETATM   12  CA  UNL     1      -6.198   6.982  65.559  1.00  0.00    -0.037 C  
HETATM   13  N   UNL     1      -6.785   5.612  64.012  1.00  0.00    -0.043 N  
HETATM   14  CA  UNL     1      -7.849   4.576  63.874  1.00  0.00    -0.089 C  
HETATM   15  C   UNL     1      -7.296   3.364  63.095  1.00  0.00    -0.053 C  
HETATM   16  O   UNL     1      -7.951   7.614  63.748  1.00  0.00    -0.133 OA 
HETATM   17  C   UNL     1      -8.328   4.245  65.305  1.00  0.00    -0.110 C  
HETATM   18  OXT UNL     1      -7.827   2.264  63.034  1.00  0.00    -0.060 OA 
HETATM   19  O   UNL     1      -6.192   3.647  62.358  1.00  0.00    -0.016 OA 
HETATM   20  C   UNL     1      -7.113   6.924  64.280  1.00  0.00    -0.058 C  
HETATM   21  C   UNL     1      -9.026   2.903  65.540  1.00  0.00    -0.145 C  
HETATM   22  S   UNL     1      -6.773   4.281  66.311  1.00  0.00    -0.054 SA 
HETATM   23  C   UNL     1      -9.316   5.303  65.831  1.00  0.00    -0.165 C  
HETATM   24  C   UNL     1      -5.922   5.489  65.209  1.00  0.00    -0.025 C  
ENDBRANCH   9  12
ENDBRANCH   1   8
BRANCH   1  25
HETATM   25  N   UNL     1      -6.955   8.299  70.011  1.00  0.00    -0.043 N  
HETATM   26  H   UNL     1      -6.048   7.846  69.899  1.00  0.00     0.000 HD 
BRANCH  25  27
HETATM   27  C   UNL     1      -7.298   8.849  71.227  1.00  0.00    -0.096 C  
HETATM   28  O   UNL     1      -7.446  10.058  71.389  1.00  0.00     0.205 OA 
BRANCH  27  29
HETATM   29  N   UNL     1      -7.518   7.945  72.257  1.00  0.00    -0.083 N  
HETATM   30  C   UNL     1      -6.928   6.619  72.224  1.00  0.00    -0.068 C  
HETATM   31  C   UNL     1      -7.274   5.995  73.568  1.00  0.00    -0.085 C  
HETATM   32  C   UNL     1      -8.026   8.204  73.533  1.00  0.00    -0.190 C  
HETATM   33  O   UNL     1      -8.530   9.244  73.923  1.00  0.00     0.664 OA 
HETATM   34  N   UNL     1      -7.877   7.067  74.308  1.00  0.00    -0.110 NA 
ENDBRANCH  27  29
ENDBRANCH  25  27
ENDBRANCH   1  25
TORSDOF 6
ENDMDL
MODEL      182
REMARK 921   NORMALIZED FREE ENERGY PREDICTED BY IDOCK:    0.76 KCAL/MOL
REMARK 922        TOTAL FREE ENERGY PREDICTED BY IDOCK:   -1.07 KCAL/MOL
REMARK 923 INTER-LIGAND FREE ENERGY PREDICTED BY IDOCK:   -4.56 KCAL/MOL
REMARK 924 INTRA-LIGAND FREE ENERGY PREDICTED BY IDOCK:    3.49 KCAL/MOL
REMARK 927      BINDING AFFINITY PREDICTED BY RF-SCORE:    0.00 PKD
ROOT
HETATM    1  CA  UNL     1     -11.033   9.402  69.779  1.00  0.00    -0.215 C  
ENDROOT
BRANCH   1   2
HETATM    2  C   UNL     1      -9.930   8.575  70.446  1.00  0.00    -0.203 A  
HETATM    3  C   UNL     1      -8.564   6.563  70.427  1.00  0.00    -0.146 A  
HETATM    4  C   UNL     1      -7.686   7.137  71.343  1.00  0.00    -0.093 A  
HETATM    5  C   UNL     1      -7.961   8.396  71.868  1.00  0.00    -0.180 A  
HETATM    6  C   UNL     1      -9.681   7.273  69.985  1.00  0.00    -0.175 A  
HETATM    7  C   UNL     1      -9.082   9.106  71.433  1.00  0.00    -0.179 A  
ENDBRANCH   1   2
BRANCH   1   8
HETATM    8  C   UNL     1     -10.585   9.825  68.324  1.00  0.00    -0.229 C  
HETATM    9  N   UNL     1      -9.234  10.064  68.151  1.00  0.00    -0.127 N  
HETATM   10  H   UNL     1      -8.632   9.944  68.966  1.00  0.00     0.000 HD 
HETATM   11  O   UNL     1     -11.381   9.942  67.392  1.00  0.00    -0.108 OA 
BRANCH   9  12
HETATM   12  CA  UNL     1      -8.572  10.488  66.860  1.00  0.00    -0.125 C  
HETATM   13  N   UNL     1      -8.111   9.239  65.174  1.00  0.00    -0.118 N  
HETATM   14  CA  UNL     1      -8.245   7.783  64.876  1.00  0.00    -0.107 C  
HETATM   15  C   UNL     1      -7.029   7.307  64.054  1.00  0.00    -0.057 C  
HETATM   16  O   UNL     1     -10.295  10.030  64.970  1.00  0.00    -0.193 OA 
HETATM   17  C   UNL     1      -8.409   7.070  66.237  1.00  0.00    -0.129 C  
HETATM   18  OXT UNL     1      -6.717   6.139  63.870  1.00  0.00    -0.036 OA 
HETATM   19  O   UNL     1      -6.366   8.312  63.429  1.00  0.00    -0.078 OA 
HETATM   20  C   UNL     1      -9.216   9.991  65.513  1.00  0.00    -0.198 C  
HETATM   21  C   UNL     1      -8.071   5.580  66.316  1.00  0.00    -0.106 C  
HETATM   22  S   UNL     1      -7.261   7.993  67.361  1.00  0.00    -0.089 SA 
HETATM   23  C   UNL     1      -9.853   7.177  66.762  1.00  0.00    -0.272 C  
HETATM   24  C   UNL     1      -7.387   9.574  66.421  1.00  0.00    -0.093 C  
ENDBRANCH   9  12
ENDBRANCH   1   8
BRANCH   1  25
HETATM   25  N   UNL     1     -11.462  10.516  70.630  1.00  0.00    -0.336 N  
HETATM   26  H   UNL     1     -10.947  11.396  70.610  1.00  0.00     0.000 HD 
BRANCH  25  27
HETATM   27  C   UNL     1     -12.557  10.384  71.456  1.00  0.00    -0.439 C  
HETATM   28  O   UNL     1     -13.049  11.334  72.061  1.00  0.00    -0.495 OA 
BRANCH  27  29
HETATM   29  N   UNL     1     -13.108   9.112  71.527  1.00  0.00    -0.344 N  
HETATM   30  C   UNL     1     -12.649   8.050  70.650  1.00  0.00     0.309 C  
HETATM   31  C   UNL     1     -13.375   6.800  71.125  1.00  0.00     0.109 C  
HETATM   32  C   UNL     1     -13.894   8.573  72.551  1.00  0.00    -0.225 C  
HETATM   33  O   UNL     1     -14.384   9.175  73.491  1.00  0.00     0.115 OA 
HETATM   34  N   UNL     1     -14.046   7.217  72.323  1.00  0.00     0.006 NA 
ENDBRANCH  27  29
ENDBRANCH  25  27
ENDBRANCH   1  25
TORSDOF 6
ENDMDL
MODEL      183
REMARK 921   NORMALIZED FREE ENERGY PREDICTED BY IDOCK:    0.94 KCAL/MOL
REMARK 922        TOTAL FREE ENERGY PREDICTED BY IDOCK:   -0.82 KCAL/MOL
REMARK 923 INTER-LIGAND FREE ENERGY PREDICTED BY IDOCK:   -3.36 KCAL/MOL
REMARK 924 INTRA-LIGAND FREE ENERGY PREDICTED BY IDOCK:    2.54 KCAL/MOL
REMARK 927      BINDING AFFINITY PREDICTED BY RF-SCORE:    0.00 PKD
ROOT
HETATM    1  CA  UNL     1      -9.821  10.071  69.833  1.00  0.00    -0.224 C  
ENDROOT
BRANCH   1   2
HETATM    2  C   UNL     1     -11.094   9.859  70.659  1.00  0.00    -0.409 A  
HETATM    3  C   UNL     1     -13.454  10.357  70.974  1.00  0.00    -0.111 A  
HETATM    4  C   UNL     1     -13.574   9.281  71.850  1.00  0.00    -0.494 A  
HETATM    5  C   UNL     1     -12.449   8.537  72.189  1.00  0.00    -0.437 A  
HETATM    6  C   UNL     1     -12.222  10.649  70.386  1.00  0.00    -0.432 A  
HETATM    7  C   UNL     1     -11.214   8.831  71.608  1.00  0.00    -0.394 A  
ENDBRANCH   1   2
BRANCH   1   8
HETATM    8  C   UNL     1     -10.195  10.306  68.316  1.00  0.00    -0.159 C  
HETATM    9  N   UNL     1      -9.873  11.546  67.797  1.00  0.00    -0.174 N  
HETATM   10  H   UNL     1      -9.417  12.209  68.423  1.00  0.00     0.000 HD 
HETATM   11  O   UNL     1     -10.743   9.446  67.627  1.00  0.00    -0.273 OA 
BRANCH   9  12
HETATM   12  CA  UNL     1     -10.139  12.006  66.381  1.00  0.00    -0.218 C  
HETATM   13  N   UNL     1      -9.216  11.265  64.588  1.00  0.00    -0.132 N  
HETATM   14  CA  UNL     1      -8.151  10.264  64.290  1.00  0.00    -0.143 C  
HETATM   15  C   UNL     1      -7.286  10.762  63.112  1.00  0.00     0.214 C  
HETATM   16  O   UNL     1     -11.065   9.940  65.104  1.00  0.00     1.215 OA 
HETATM   17  C   UNL     1      -7.369  10.051  65.605  1.00  0.00    -0.127 C  
HETATM   18  OXT UNL     1      -6.198  10.303  62.795  1.00  0.00    -0.126 OA 
HETATM   19  O   UNL     1      -7.892  11.708  62.352  1.00  0.00    -0.008 OA 
HETATM   20  C   UNL     1     -10.350  10.898  65.283  1.00  0.00    -0.268 C  
HETATM   21  C   UNL     1      -5.947   9.492  65.516  1.00  0.00    -0.064 C  
HETATM   22  S   UNL     1      -7.289  11.745  66.352  1.00  0.00     0.328 SA 
HETATM   23  C   UNL     1      -8.112   9.095  66.557  1.00  0.00    -0.107 C  
HETATM   24  C   UNL     1      -8.851  12.320  65.561  1.00  0.00     0.548 C  
ENDBRANCH   9  12
ENDBRANCH   1   8
BRANCH   1  25
HETATM   25  N   UNL     1      -8.847   8.999  70.059  1.00  0.00    -0.159 N  
HETATM   26  H   UNL     1      -7.865   9.231  70.212  1.00  0.00     0.000 HD 
BRANCH  25  27
HETATM   27  C   UNL     1      -9.247   7.681  70.065  1.00  0.00    -0.151 C  
HETATM   28  O   UNL     1      -9.944   7.196  69.176  1.00  0.00    -0.162 OA 
BRANCH  27  29
HETATM   29  N   UNL     1      -8.772   6.912  71.118  1.00  0.00    -0.135 N  
HETATM   30  C   UNL     1      -8.457   5.507  70.933  1.00  0.00    -0.123 C  
HETATM   31  C   UNL     1      -7.840   5.061  72.250  1.00  0.00    -0.100 C  
HETATM   32  C   UNL     1      -8.256   7.355  72.340  1.00  0.00    -0.101 C  
HETATM   33  O   UNL     1      -8.285   8.493  72.778  1.00  0.00    -0.332 OA 
HETATM   34  N   UNL     1      -7.702   6.275  73.003  1.00  0.00    -0.099 NA 
ENDBRANCH  27  29
ENDBRANCH  25  27
ENDBRANCH   1  25
TORSDOF 6
ENDMDL
MODEL      184
REMARK 921   NORMALIZED FREE ENERGY PREDICTED BY IDOCK:    5.04 KCAL/MOL
REMARK 922        TOTAL FREE ENERGY PREDICTED BY IDOCK:    4.71 KCAL/MOL
REMARK 923 INTER-LIGAND FREE ENERGY PREDICTED BY IDOCK:    5.45 KCAL/MOL
REMARK 924 INTRA-LIGAND FREE ENERGY PREDICTED BY IDOCK:   -0.73 KCAL/MOL
REMARK 927      BINDING AFFINITY PREDICTED BY RF-SCORE:    0.00 PKD
ROOT
HETATM    1  CA  UNL     1      -9.574  11.804  66.335  1.00  0.00    -0.218 C  
ENDROOT
BRANCH   1   2
HETATM    2  C   UNL     1     -10.634  12.651  67.045  1.00  0.00    -0.255 A  
HETATM    3  C   UNL     1     -11.778  14.789  67.236  1.00  0.00    -0.366 A  
HETATM    4  C   UNL     1     -12.779  14.196  68.001  1.00  0.00     0.904 A  
HETATM    5  C   UNL     1     -12.679  12.854  68.351  1.00  0.00     1.247 A  
HETATM    6  C   UNL     1     -10.710  14.024  66.765  1.00  0.00    -0.285 A  
HETATM    7  C   UNL     1     -11.608  12.088  67.888  1.00  0.00    -0.405 A  
ENDBRANCH   1   2
BRANCH   1   8
HETATM    8  C   UNL     1      -8.159  12.044  66.997  1.00  0.00    -0.158 C  
HETATM    9  N   UNL     1      -7.807  13.364  67.213  1.00  0.00    -0.316 N  
HETATM   10  H   UNL     1      -8.482  14.077  66.938  1.00  0.00     0.000 HD 
HETATM   11  O   UNL     1      -7.405  11.121  67.304  1.00  0.00    -0.104 OA 
BRANCH   9  12
HETATM   12  CA  UNL     1      -6.508  13.841  67.822  1.00  0.00    -0.170 C  
HETATM   13  N   UNL     1      -6.276  15.186  69.481  1.00  0.00    -0.116 N  
HETATM   14  CA  UNL     1      -7.213  15.966  70.341  1.00  0.00     0.987 C  
HETATM   15  C   UNL     1      -6.591  17.339  70.673  1.00  0.00     1.587 C  
HETATM   16  O   UNL     1      -6.504  13.007  70.283  1.00  0.00     0.026 OA 
HETATM   17  C   UNL     1      -8.551  16.045  69.572  1.00  0.00    -0.034 C  
HETATM   18  OXT UNL     1      -7.198  18.293  71.137  1.00  0.00     3.289 OA 
HETATM   19  O   UNL     1      -5.244  17.381  70.513  1.00  0.00    -0.232 OA 
HETATM   20  C   UNL     1      -6.384  13.814  69.391  1.00  0.00    -0.111 C  
HETATM   21  C   UNL     1      -9.525  17.168  69.934  1.00  0.00     1.047 C  
HETATM   22  S   UNL     1      -8.035  16.262  67.806  1.00  0.00    -0.145 SA 
HETATM   23  C   UNL     1      -9.368  14.748  69.722  1.00  0.00     0.284 C  
HETATM   24  C   UNL     1      -6.428  15.385  68.022  1.00  0.00    -0.136 C  
ENDBRANCH   9  12
ENDBRANCH   1   8
BRANCH   1  25
HETATM   25  N   UNL     1      -9.606  12.006  64.883  1.00  0.00    -0.438 N  
HETATM   26  H   UNL     1      -9.515  12.947  64.500  1.00  0.00     0.000 HD 
BRANCH  25  27
HETATM   27  C   UNL     1      -9.758  10.933  64.032  1.00  0.00    -0.301 C  
HETATM   28  O   UNL     1     -10.269  11.039  62.919  1.00  0.00    -0.251 OA 
BRANCH  27  29
HETATM   29  N   UNL     1      -9.251   9.725  64.488  1.00  0.00    -0.256 N  
HETATM   30  C   UNL     1      -9.986   8.923  65.450  1.00  0.00     0.578 C  
HETATM   31  C   UNL     1      -9.190   7.634  65.585  1.00  0.00     0.175 C  
HETATM   32  C   UNL     1      -8.209   8.969  63.941  1.00  0.00    -0.172 C  
HETATM   33  O   UNL     1      -7.439   9.314  63.060  1.00  0.00    -0.104 OA 
HETATM   34  N   UNL     1      -8.175   7.740  64.575  1.00  0.00    -0.103 NA 
ENDBRANCH  27  29
ENDBRANCH  25  27
ENDBRANCH   1  25
TORSDOF 6
ENDMDL
MODEL      185
REMARK 921   NORMALIZED FREE ENERGY PREDICTED BY IDOCK:    5.28 KCAL/MOL
REMARK 922        TOTAL FREE ENERGY PREDICTED BY IDOCK:    5.03 KCAL/MOL
REMARK 923 INTER-LIGAND FREE ENERGY PREDICTED BY IDOCK:    5.35 KCAL/MOL
REMARK 924 INTRA-LIGAND FREE ENERGY PREDICTED BY IDOCK:   -0.32 KCAL/MOL
REMARK 927      BINDING AFFINITY PREDICTED BY RF-SCORE:    0.00 PKD
ROOT
HETATM    1  CA  UNL     1      -8.610  12.110  68.867  1.00  0.00     0.233 C  
ENDROOT
BRANCH   1   2
HETATM    2  C   UNL     1      -7.774  10.934  69.383  1.00  0.00    -0.072 A  
HETATM    3  C   UNL     1      -5.939   9.384  69.001  1.00  0.00    -0.042 A  
HETATM    4  C   UNL     1      -5.937   9.038  70.350  1.00  0.00    -0.036 A  
HETATM    5  C   UNL     1      -6.893   9.579  71.204  1.00  0.00     0.008 A  
HETATM    6  C   UNL     1      -6.853  10.321  68.518  1.00  0.00    -0.061 A  
HETATM    7  C   UNL     1      -7.814  10.511  70.722  1.00  0.00     1.720 A  
ENDBRANCH   1   2
BRANCH   1   8
HETATM    8  C   UNL     1      -8.290  13.409  69.709  1.00  0.00     1.844 C  
HETATM    9  N   UNL     1      -9.250  14.403  69.678  1.00  0.00    -0.145 N  
HETATM   10  H   UNL     1     -10.088  14.224  69.125  1.00  0.00     0.000 HD 
HETATM   11  O   UNL     1      -7.251  13.541  70.356  1.00  0.00     0.889 OA 
BRANCH   9  12
HETATM   12  CA  UNL     1      -9.166  15.733  70.392  1.00  0.00     1.115 C  
HETATM   13  N   UNL     1      -9.963  17.612  69.722  1.00  0.00     0.316 N  
HETATM   14  CA  UNL     1     -10.675  18.074  68.495  1.00  0.00    -0.035 C  
HETATM   15  C   UNL     1     -10.201  19.496  68.124  1.00  0.00    -0.444 C  
HETATM   16  O   UNL     1     -11.613  16.451  70.891  1.00  0.00    -0.358 OA 
HETATM   17  C   UNL     1     -10.407  17.012  67.405  1.00  0.00    -0.319 C  
HETATM   18  OXT UNL     1     -10.399  20.047  67.051  1.00  0.00    -0.428 OA 
HETATM   19  O   UNL     1      -9.622  20.164  69.154  1.00  0.00    -0.055 OA 
HETATM   20  C   UNL     1     -10.481  16.592  70.491  1.00  0.00     0.588 C  
HETATM   21  C   UNL     1     -10.564  17.426  65.940  1.00  0.00    -0.201 C  
HETATM   22  S   UNL     1      -8.643  16.521  67.690  1.00  0.00    -0.183 SA 
HETATM   23  C   UNL     1     -11.324  15.786  67.571  1.00  0.00    -0.150 C  
HETATM   24  C   UNL     1      -8.680  16.910  69.492  1.00  0.00     0.455 C  
ENDBRANCH   9  12
ENDBRANCH   1   8
BRANCH   1  25
HETATM   25  N   UNL     1     -10.034  11.769  68.795  1.00  0.00    -0.367 N  
HETATM   26  H   UNL     1     -10.722  12.503  68.627  1.00  0.00     0.000 HD 
BRANCH  25  27
HETATM   27  C   UNL     1     -10.449  10.465  68.951  1.00  0.00    -0.212 C  
HETATM   28  O   UNL     1     -10.833  10.017  70.030  1.00  0.00    -0.258 OA 
BRANCH  27  29
HETATM   29  N   UNL     1     -10.457   9.693  67.798  1.00  0.00    -0.240 N  
HETATM   30  C   UNL     1     -11.031  10.200  66.565  1.00  0.00     0.133 C  
HETATM   31  C   UNL     1     -10.722   9.141  65.517  1.00  0.00     2.069 C  
HETATM   32  C   UNL     1      -9.716   8.537  67.535  1.00  0.00    -0.162 C  
HETATM   33  O   UNL     1      -9.053   7.895  68.332  1.00  0.00    -0.136 OA 
HETATM   34  N   UNL     1      -9.862   8.214  66.197  1.00  0.00    -0.113 NA 
ENDBRANCH  27  29
ENDBRANCH  25  27
ENDBRANCH   1  25
TORSDOF 6
ENDMDL
MODEL      186
REMARK 921   NORMALIZED FREE ENERGY PREDICTED BY IDOCK:    7.68 KCAL/MOL
REMARK 922        TOTAL FREE ENERGY PREDICTED BY IDOCK:    8.28 KCAL/MOL
REMARK 923 INTER-LIGAND FREE ENERGY PREDICTED BY IDOCK:   -4.26 KCAL/MOL
REMARK 924 INTRA-LIGAND FREE ENERGY PREDICTED BY IDOCK:   12.54 KCAL/MOL
REMARK 927      BINDING AFFINITY PREDICTED BY RF-SCORE:    0.00 PKD
ROOT
HETATM    1  CA  UNL     1      -8.141  10.969  66.157  1.00  0.00    -0.141 C  
ENDROOT
BRANCH   1   2
HETATM    2  C   UNL     1      -7.874  10.356  64.779  1.00  0.00    -0.086 A  
HETATM    3  C   UNL     1      -7.119   8.438  63.488  1.00  0.00    -0.090 A  
HETATM    4  C   UNL     1      -7.684   8.979  62.335  1.00  0.00    -0.117 A  
HETATM    5  C   UNL     1      -8.281  10.235  62.382  1.00  0.00    -0.188 A  
HETATM    6  C   UNL     1      -7.207   9.122  64.700  1.00  0.00    -0.098 A  
HETATM    7  C   UNL     1      -8.364  10.925  63.592  1.00  0.00     0.131 A  
ENDBRANCH   1   2
BRANCH   1   8
HETATM    8  C   UNL     1      -8.787   9.888  67.113  1.00  0.00    -0.138 C  
HETATM    9  N   UNL     1     -10.143  10.019  67.348  1.00  0.00    -0.196 N  
HETATM   10  H   UNL     1     -10.623  10.792  66.888  1.00  0.00     0.000 HD 
HETATM   11  O   UNL     1      -8.132   8.980  67.625  1.00  0.00    -0.108 OA 
BRANCH   9  12
HETATM   12  CA  UNL     1     -10.976   9.117  68.230  1.00  0.00     0.046 C  
HETATM   13  N   UNL     1     -10.606   8.619  70.287  1.00  0.00    -0.217 N  
HETATM   14  CA  UNL     1      -9.528   8.939  71.268  1.00  0.00    -0.272 C  
HETATM   15  C   UNL     1      -9.253   7.706  72.156  1.00  0.00    -0.141 C  
HETATM   16  O   UNL     1     -11.838  10.597  70.184  1.00  0.00    -0.281 OA 
HETATM   17  C   UNL     1      -8.310   9.411  70.443  1.00  0.00    -0.205 C  
HETATM   18  OXT UNL     1      -8.275   7.561  72.874  1.00  0.00    -0.106 OA 
HETATM   19  O   UNL     1     -10.269   6.808  72.172  1.00  0.00    -0.192 OA 
HETATM   20  C   UNL     1     -11.321   9.628  69.678  1.00  0.00    -0.073 C  
HETATM   21  C   UNL     1      -6.925   9.329  71.091  1.00  0.00    -0.064 C  
HETATM   22  S   UNL     1      -8.328   8.307  68.955  1.00  0.00    -0.128 SA 
HETATM   23  C   UNL     1      -8.456  10.880  70.006  1.00  0.00     1.012 C  
HETATM   24  C   UNL     1     -10.151   8.042  69.001  1.00  0.00    -0.201 C  
ENDBRANCH   9  12
ENDBRANCH   1   8
BRANCH   1  25
HETATM   25  N   UNL     1      -8.901  12.218  66.054  1.00  0.00    -0.415 N  
HETATM   26  H   UNL     1      -8.427  13.079  65.783  1.00  0.00     0.000 HD 
BRANCH  25  27
HETATM   27  C   UNL     1     -10.253  12.237  66.319  1.00  0.00    -0.229 C  
HETATM   28  O   UNL     1     -10.810  11.367  66.986  1.00  0.00    -0.253 OA 
BRANCH  27  29
HETATM   29  N   UNL     1     -10.948  13.333  65.828  1.00  0.00    -0.270 N  
HETATM   30  C   UNL     1     -10.710  13.825  64.483  1.00  0.00    -0.390 C  
HETATM   31  C   UNL     1     -11.745  14.920  64.270  1.00  0.00    -0.247 C  
HETATM   32  C   UNL     1     -12.108  13.917  66.347  1.00  0.00    -0.455 C  
HETATM   33  O   UNL     1     -12.629  13.679  67.423  1.00  0.00    -0.061 OA 
HETATM   34  N   UNL     1     -12.583  14.842  65.433  1.00  0.00    -0.090 NA 
ENDBRANCH  27  29
ENDBRANCH  25  27
ENDBRANCH   1  25
TORSDOF 6
ENDMDL
MODEL      187
REMARK 921   NORMALIZED FREE ENERGY PREDICTED BY IDOCK:    8.08 KCAL/MOL
REMARK 922        TOTAL FREE ENERGY PREDICTED BY IDOCK:    8.83 KCAL/MOL
REMARK 923 INTER-LIGAND FREE ENERGY PREDICTED BY IDOCK:   -1.76 KCAL/MOL
REMARK 924 INTRA-LIGAND FREE ENERGY PREDICTED BY IDOCK:   10.59 KCAL/MOL
REMARK 927      BINDING AFFINITY PREDICTED BY RF-SCORE:    0.00 PKD
ROOT
HETATM    1  CA  UNL     1      -8.116  10.974  66.162  1.00  0.00    -0.141 C  
ENDROOT
BRANCH   1   2
HETATM    2  C   UNL     1      -7.842  10.352  64.790  1.00  0.00    -0.086 A  
HETATM    3  C   UNL     1      -6.937   8.489  63.514  1.00  0.00    -0.089 A  
HETATM    4  C   UNL     1      -7.607   8.929  62.376  1.00  0.00    -0.105 A  
HETATM    5  C   UNL     1      -8.336  10.114  62.417  1.00  0.00    -0.180 A  
HETATM    6  C   UNL     1      -7.048   9.196  64.712  1.00  0.00    -0.096 A  
HETATM    7  C   UNL     1      -8.443  10.828  63.612  1.00  0.00    -0.005 A  
ENDBRANCH   1   2
BRANCH   1   8
HETATM    8  C   UNL     1      -8.601   9.860  67.173  1.00  0.00    -0.125 C  
HETATM    9  N   UNL     1      -9.961   9.815  67.419  1.00  0.00    -0.180 N  
HETATM   10  H   UNL     1     -10.545  10.493  66.930  1.00  0.00     0.000 HD 
HETATM   11  O   UNL     1      -7.825   9.075  67.717  1.00  0.00    -0.100 OA 
BRANCH   9  12
HETATM   12  CA  UNL     1     -10.656   8.848  68.350  1.00  0.00    -0.143 C  
HETATM   13  N   UNL     1     -10.225   6.758  68.600  1.00  0.00    -0.166 N  
HETATM   14  CA  UNL     1      -9.282   5.796  67.960  1.00  0.00    -0.109 C  
HETATM   15  C   UNL     1      -9.966   4.420  67.809  1.00  0.00    -0.037 C  
HETATM   16  O   UNL     1      -8.845   8.001  70.010  1.00  0.00    -0.141 OA 
HETATM   17  C   UNL     1      -8.842   6.435  66.624  1.00  0.00    -0.130 C  
HETATM   18  OXT UNL     1      -9.560   3.505  67.108  1.00  0.00    -0.207 OA 
HETATM   19  O   UNL     1     -11.033   4.249  68.631  1.00  0.00     1.676 OA 
HETATM   20  C   UNL     1      -9.753   7.896  69.220  1.00  0.00    -0.159 C  
HETATM   21  C   UNL     1      -8.296   5.515  65.530  1.00  0.00    -0.136 C  
HETATM   22  S   UNL     1     -10.383   7.247  65.993  1.00  0.00     1.296 SA 
HETATM   23  C   UNL     1      -7.743   7.493  66.837  1.00  0.00    -0.110 C  
HETATM   24  C   UNL     1     -11.096   7.515  67.672  1.00  0.00     0.126 C  
ENDBRANCH   9  12
ENDBRANCH   1   8
BRANCH   1  25
HETATM   25  N   UNL     1      -9.010  12.132  66.061  1.00  0.00    -0.416 N  
HETATM   26  H   UNL     1      -8.642  13.030  65.748  1.00  0.00     0.000 HD 
BRANCH  25  27
HETATM   27  C   UNL     1     -10.344  12.015  66.385  1.00  0.00    -0.216 C  
HETATM   28  O   UNL     1     -10.776  11.112  67.099  1.00  0.00    -0.230 OA 
BRANCH  27  29
HETATM   29  N   UNL     1     -11.173  13.014  65.895  1.00  0.00    -0.284 N  
HETATM   30  C   UNL     1     -11.045  13.485  64.528  1.00  0.00    -0.381 C  
HETATM   31  C   UNL     1     -12.200  14.456  64.332  1.00  0.00    -0.458 C  
HETATM   32  C   UNL     1     -12.366  13.488  66.449  1.00  0.00    -0.357 C  
HETATM   33  O   UNL     1     -12.813  13.230  67.554  1.00  0.00     0.524 OA 
HETATM   34  N   UNL     1     -12.976  14.327  65.533  1.00  0.00    -0.593 NA 
ENDBRANCH  27  29
ENDBRANCH  25  27
ENDBRANCH   1  25
TORSDOF 6
ENDMDL
MODEL      188
REMARK 921   NORMALIZED FREE ENERGY PREDICTED BY IDOCK:    8.20 KCAL/MOL
REMARK 922        TOTAL FREE ENERGY PREDICTED BY IDOCK:    8.98 KCAL/MOL
REMARK 923 INTER-LIGAND FREE ENERGY PREDICTED BY IDOCK:    1.31 KCAL/MOL
REMARK 924 INTRA-LIGAND FREE ENERGY PREDICTED BY IDOCK:    7.67 KCAL/MOL
REMARK 927      BINDING AFFINITY PREDICTED BY RF-SCORE:    0.00 PKD
ROOT
HETATM    1  CA  UNL     1      -7.023  18.784  67.719  1.00  0.00    -0.215 C  
ENDROOT
BRANCH   1   2
HETATM    2  C   UNL     1      -6.886  19.152  69.199  1.00  0.00    -0.361 A  
HETATM    3  C   UNL     1      -5.422  19.503  71.110  1.00  0.00    -0.295 A  
HETATM    4  C   UNL     1      -6.446  20.160  71.787  1.00  0.00     0.112 A  
HETATM    5  C   UNL     1      -7.708  20.254  71.209  1.00  0.00     1.627 A  
HETATM    6  C   UNL     1      -5.640  18.998  69.827  1.00  0.00    -0.232 A  
HETATM    7  C   UNL     1      -7.931  19.742  69.929  1.00  0.00     0.613 A  
ENDBRANCH   1   2
BRANCH   1   8
HETATM    8  C   UNL     1      -8.391  18.029  67.476  1.00  0.00    -0.233 C  
HETATM    9  N   UNL     1      -9.353  18.187  68.456  1.00  0.00    -0.305 N  
HETATM   10  H   UNL     1      -9.114  18.778  69.252  1.00  0.00     0.000 HD 
HETATM   11  O   UNL     1      -8.599  17.338  66.479  1.00  0.00    -0.235 OA 
BRANCH   9  12
HETATM   12  CA  UNL     1     -10.729  17.560  68.450  1.00  0.00    -0.280 C  
HETATM   13  N   UNL     1     -11.224  15.527  68.937  1.00  0.00    -0.283 N  
HETATM   14  CA  UNL     1     -10.439  14.314  69.308  1.00  0.00    -0.097 C  
HETATM   15  C   UNL     1     -11.078  13.065  68.664  1.00  0.00    -0.269 C  
HETATM   16  O   UNL     1     -11.196  16.800  70.891  1.00  0.00    -0.101 OA 
HETATM   17  C   UNL     1      -8.983  14.581  68.866  1.00  0.00    -0.109 C  
HETATM   18  OXT UNL     1     -10.542  11.971  68.567  1.00  0.00    -0.218 OA 
HETATM   19  O   UNL     1     -12.373  13.242  68.298  1.00  0.00    -0.156 OA 
HETATM   20  C   UNL     1     -11.133  16.679  69.690  1.00  0.00    -0.144 C  
HETATM   21  C   UNL     1      -8.063  13.377  68.647  1.00  0.00    -0.040 C  
HETATM   22  S   UNL     1      -9.167  15.480  67.256  1.00  0.00    -0.215 SA 
HETATM   23  C   UNL     1      -8.237  15.470  69.878  1.00  0.00     0.184 C  
HETATM   24  C   UNL     1     -10.807  16.203  67.687  1.00  0.00    -0.297 C  
ENDBRANCH   9  12
ENDBRANCH   1   8
BRANCH   1  25
HETATM   25  N   UNL     1      -5.841  18.069  67.229  1.00  0.00    -0.132 N  
HETATM   26  H   UNL     1      -4.935  18.536  67.217  1.00  0.00     0.000 HD 
BRANCH  25  27
HETATM   27  C   UNL     1      -5.945  16.769  66.784  1.00  0.00    -0.119 C  
HETATM   28  O   UNL     1      -6.321  16.486  65.648  1.00  0.00     1.010 OA 
BRANCH  27  29
HETATM   29  N   UNL     1      -5.549  15.790  67.684  1.00  0.00    -0.135 N  
HETATM   30  C   UNL     1      -5.640  16.013  69.116  1.00  0.00    -0.112 C  
HETATM   31  C   UNL     1      -5.260  14.684  69.750  1.00  0.00    -0.092 C  
HETATM   32  C   UNL     1      -5.315  14.435  67.430  1.00  0.00     0.416 C  
HETATM   33  O   UNL     1      -5.248  13.896  66.339  1.00  0.00     2.107 OA 
HETATM   34  N   UNL     1      -5.153  13.781  68.639  1.00  0.00    -0.080 NA 
ENDBRANCH  27  29
ENDBRANCH  25  27
ENDBRANCH   1  25
TORSDOF 6
ENDMDL
MODEL      189
REMARK 921   NORMALIZED FREE ENERGY PREDICTED BY IDOCK:   11.89 KCAL/MOL
REMARK 922        TOTAL FREE ENERGY PREDICTED BY IDOCK:   13.97 KCAL/MOL
REMARK 923 INTER-LIGAND FREE ENERGY PREDICTED BY IDOCK:    6.62 KCAL/MOL
REMARK 924 INTRA-LIGAND FREE ENERGY PREDICTED BY IDOCK:    7.35 KCAL/MOL
REMARK 927      BINDING AFFINITY PREDICTED BY RF-SCORE:    0.00 PKD
ROOT
HETATM    1  CA  UNL     1      -7.161  18.282  68.411  1.00  0.00    -0.268 C  
ENDROOT
BRANCH   1   2
HETATM    2  C   UNL     1      -6.433  19.024  67.286  1.00  0.00    -0.192 A  
HETATM    3  C   UNL     1      -5.823  19.115  64.933  1.00  0.00    -0.301 A  
HETATM    4  C   UNL     1      -5.463  20.453  65.068  1.00  0.00    -0.211 A  
HETATM    5  C   UNL     1      -5.517  21.062  66.318  1.00  0.00    -0.258 A  
HETATM    6  C   UNL     1      -6.300  18.402  66.034  1.00  0.00    -0.263 A  
HETATM    7  C   UNL     1      -5.986  20.349  67.423  1.00  0.00    -0.230 A  
ENDBRANCH   1   2
BRANCH   1   8
HETATM    8  C   UNL     1      -7.337  16.759  68.027  1.00  0.00    -0.161 C  
HETATM    9  N   UNL     1      -6.227  16.138  67.486  1.00  0.00    -0.151 N  
HETATM   10  H   UNL     1      -5.383  16.701  67.382  1.00  0.00     0.000 HD 
HETATM   11  O   UNL     1      -8.395  16.151  68.191  1.00  0.00    -0.161 OA 
BRANCH   9  12
HETATM   12  CA  UNL     1      -6.155  14.697  67.035  1.00  0.00     1.103 C  
HETATM   13  N   UNL     1      -6.693  12.957  68.176  1.00  0.00    -0.084 N  
HETATM   14  CA  UNL     1      -7.167  12.721  69.570  1.00  0.00     0.384 C  
HETATM   15  C   UNL     1      -6.534  11.424  70.121  1.00  0.00    -0.038 C  
HETATM   16  O   UNL     1      -8.589  13.788  67.101  1.00  0.00    -0.206 OA 
HETATM   17  C   UNL     1      -6.813  13.990  70.376  1.00  0.00     0.336 C  
HETATM   18  OXT UNL     1      -6.521  11.092  71.297  1.00  0.00     0.129 OA 
HETATM   19  O   UNL     1      -6.075  10.589  69.155  1.00  0.00    -0.040 OA 
HETATM   20  C   UNL     1      -7.401  13.779  67.324  1.00  0.00     0.002 C  
HETATM   21  C   UNL     1      -6.707  13.872  71.899  1.00  0.00     2.295 C  
HETATM   22  S   UNL     1      -5.158  14.490  69.710  1.00  0.00    -0.091 SA 
HETATM   23  C   UNL     1      -7.835  15.117  70.136  1.00  0.00     0.403 C  
HETATM   24  C   UNL     1      -5.446  13.746  68.048  1.00  0.00    -0.115 C  
ENDBRANCH   9  12
ENDBRANCH   1   8
BRANCH   1  25
HETATM   25  N   UNL     1      -8.405  18.960  68.789  1.00  0.00    -0.338 N  
HETATM   26  H   UNL     1      -8.415  19.590  69.591  1.00  0.00     0.000 HD 
BRANCH  25  27
HETATM   27  C   UNL     1      -9.560  18.752  68.068  1.00  0.00    -0.321 C  
HETATM   28  O   UNL     1      -9.719  19.190  66.930  1.00  0.00    -0.304 OA 
BRANCH  27  29
HETATM   29  N   UNL     1     -10.525  17.970  68.688  1.00  0.00    -0.300 N  
HETATM   30  C   UNL     1     -11.848  17.820  68.109  1.00  0.00     1.997 C  
HETATM   31  C   UNL     1     -12.551  16.793  68.984  1.00  0.00     2.725 C  
HETATM   32  C   UNL     1     -10.342  17.024  69.701  1.00  0.00    -0.070 C  
HETATM   33  O   UNL     1      -9.326  16.832  70.348  1.00  0.00     1.613 OA 
HETATM   34  N   UNL     1     -11.525  16.326  69.872  1.00  0.00    -0.264 NA 
ENDBRANCH  27  29
ENDBRANCH  25  27
ENDBRANCH   1  25
TORSDOF 6
ENDMDL
MODEL      190
REMARK 921   NORMALIZED FREE ENERGY PREDICTED BY IDOCK:   20.91 KCAL/MOL
REMARK 922        TOTAL FREE ENERGY PREDICTED BY IDOCK:   26.16 KCAL/MOL
REMARK 923 INTER-LIGAND FREE ENERGY PREDICTED BY IDOCK:   13.26 KCAL/MOL
REMARK 924 INTRA-LIGAND FREE ENERGY PREDICTED BY IDOCK:   12.89 KCAL/MOL
REMARK 927      BINDING AFFINITY PREDICTED BY RF-SCORE:    0.00 PKD
ROOT
HETATM    1  CA  UNL     1      -7.267  17.873  67.721  1.00  0.00    -0.209 C  
ENDROOT
BRANCH   1   2
HETATM    2  C   UNL     1      -6.815  18.485  66.391  1.00  0.00    -0.245 A  
HETATM    3  C   UNL     1      -6.597  18.247  63.980  1.00  0.00     3.378 A  
HETATM    4  C   UNL     1      -6.375  19.616  63.855  1.00  0.00     0.260 A  
HETATM    5  C   UNL     1      -6.300  20.411  64.994  1.00  0.00    -0.326 A  
HETATM    6  C   UNL     1      -6.811  17.683  65.239  1.00  0.00     0.825 A  
HETATM    7  C   UNL     1      -6.506  19.849  66.255  1.00  0.00    -0.216 A  
ENDBRANCH   1   2
BRANCH   1   8
HETATM    8  C   UNL     1      -7.225  16.296  67.631  1.00  0.00    -0.140 C  
HETATM    9  N   UNL     1      -6.502  15.767  66.577  1.00  0.00     0.725 N  
HETATM   10  H   UNL     1      -6.048  16.428  65.947  1.00  0.00     0.000 HD 
HETATM   11  O   UNL     1      -7.800  15.570  68.442  1.00  0.00    -0.121 OA 
BRANCH   9  12
HETATM   12  CA  UNL     1      -6.326  14.296  66.279  1.00  0.00     4.753 C  
HETATM   13  N   UNL     1      -6.758  12.651  67.592  1.00  0.00    -0.128 N  
HETATM   14  CA  UNL     1      -7.232  12.528  69.001  1.00  0.00     0.002 C  
HETATM   15  C   UNL     1      -6.519  11.342  69.687  1.00  0.00    -0.133 C  
HETATM   16  O   UNL     1      -8.692  13.232  66.427  1.00  0.00     0.010 OA 
HETATM   17  C   UNL     1      -6.976  13.895  69.672  1.00  0.00     0.075 C  
HETATM   18  OXT UNL     1      -6.497  11.135  70.892  1.00  0.00    -0.231 OA 
HETATM   19  O   UNL     1      -5.991  10.445  68.816  1.00  0.00    -0.041 OA 
HETATM   20  C   UNL     1      -7.509  13.329  66.656  1.00  0.00     1.009 C  
HETATM   21  C   UNL     1      -6.882  13.943  71.199  1.00  0.00     1.462 C  
HETATM   22  S   UNL     1      -5.351  14.437  68.967  1.00  0.00    -0.086 SA 
HETATM   23  C   UNL     1      -8.070  14.918  69.311  1.00  0.00    -0.135 C  
HETATM   24  C   UNL     1      -5.567  13.507  67.390  1.00  0.00     0.198 C  
ENDBRANCH   9  12
ENDBRANCH   1   8
BRANCH   1  25
HETATM   25  N   UNL     1      -8.554  18.422  68.157  1.00  0.00    -0.277 N  
HETATM   26  H   UNL     1      -8.576  19.244  68.761  1.00  0.00     0.000 HD 
BRANCH  25  27
HETATM   27  C   UNL     1      -9.735  17.835  67.758  1.00  0.00    -0.285 C  
HETATM   28  O   UNL     1     -10.039  16.684  68.064  1.00  0.00    -0.247 OA 
BRANCH  27  29
HETATM   29  N   UNL     1     -10.592  18.644  67.025  1.00  0.00    -0.407 N  
HETATM   30  C   UNL     1     -11.065  19.908  67.561  1.00  0.00     0.094 C  
HETATM   31  C   UNL     1     -11.847  20.553  66.426  1.00  0.00     3.316 C  
HETATM   32  C   UNL     1     -10.883  18.571  65.660  1.00  0.00     0.062 C  
HETATM   33  O   UNL     1     -10.570  17.677  64.891  1.00  0.00    -0.429 OA 
HETATM   34  N   UNL     1     -11.611  19.692  65.303  1.00  0.00     0.748 NA 
ENDBRANCH  27  29
ENDBRANCH  25  27
ENDBRANCH   1  25
TORSDOF 6
ENDMDL
MODEL      191
REMARK 921   NORMALIZED FREE ENERGY PREDICTED BY IDOCK:   36.35 KCAL/MOL
REMARK 922        TOTAL FREE ENERGY PREDICTED BY IDOCK:   47.00 KCAL/MOL
REMARK 923 INTER-LIGAND FREE ENERGY PREDICTED BY IDOCK:   40.77 KCAL/MOL
REMARK 924 INTRA-LIGAND FREE ENERGY PREDICTED BY IDOCK:    6.23 KCAL/MOL
REMARK 927      BINDING AFFINITY PREDICTED BY RF-SCORE:    0.00 PKD
ROOT
HETATM    1  CA  UNL     1      -7.179  12.229  66.890  1.00  0.00     0.047 C  
ENDROOT
BRANCH   1   2
HETATM    2  C   UNL     1      -7.643  10.869  67.421  1.00  0.00    -0.100 A  
HETATM    3  C   UNL     1      -7.886   9.372  69.323  1.00  0.00    -0.085 A  
HETATM    4  C   UNL     1      -8.774   8.580  68.599  1.00  0.00    -0.139 A  
HETATM    5  C   UNL     1      -9.045   8.884  67.269  1.00  0.00    -0.153 A  
HETATM    6  C   UNL     1      -7.320  10.506  68.738  1.00  0.00    -0.092 A  
HETATM    7  C   UNL     1      -8.474  10.013  66.679  1.00  0.00    -0.126 A  
ENDBRANCH   1   2
BRANCH   1   8
HETATM    8  C   UNL     1      -6.364  12.995  68.007  1.00  0.00    -0.115 C  
HETATM    9  N   UNL     1      -6.560  14.362  68.069  1.00  0.00    -0.133 N  
HETATM   10  H   UNL     1      -7.213  14.770  67.401  1.00  0.00     0.000 HD 
HETATM   11  O   UNL     1      -5.597  12.421  68.779  1.00  0.00    -0.053 OA 
BRANCH   9  12
HETATM   12  CA  UNL     1      -5.889  15.305  69.042  1.00  0.00    -0.098 C  
HETATM   13  N   UNL     1      -6.734  16.125  70.838  1.00  0.00     1.392 N  
HETATM   14  CA  UNL     1      -8.068  16.048  71.503  1.00  0.00     6.335 C  
HETATM   15  C   UNL     1      -8.416  17.415  72.130  1.00  0.00    14.747 C  
HETATM   16  O   UNL     1      -5.778  14.052  71.316  1.00  0.00    -0.208 OA 
HETATM   17  C   UNL     1      -9.068  15.571  70.426  1.00  0.00     1.036 C  
HETATM   18  OXT UNL     1      -9.525  17.749  72.520  1.00  0.00     9.798 OA 
HETATM   19  O   UNL     1      -7.337  18.213  72.331  1.00  0.00     7.044 OA 
HETATM   20  C   UNL     1      -6.013  14.979  70.577  1.00  0.00    -0.109 C  
HETATM   21  C   UNL     1     -10.554  15.868  70.640  1.00  0.00    -0.010 C  
HETATM   22  S   UNL     1      -8.511  16.442  68.888  1.00  0.00    -0.232 SA 
HETATM   23  C   UNL     1      -8.994  14.047  70.219  1.00  0.00     2.591 C  
HETATM   24  C   UNL     1      -6.749  16.549  69.420  1.00  0.00    -0.213 C  
ENDBRANCH   9  12
ENDBRANCH   1   8
BRANCH   1  25
HETATM   25  N   UNL     1      -8.291  12.993  66.318  1.00  0.00    -0.073 N  
HETATM   26  H   UNL     1      -8.527  12.885  65.331  1.00  0.00     0.000 HD 
BRANCH  25  27
HETATM   27  C   UNL     1      -9.022  13.857  67.104  1.00  0.00    -0.235 C  
HETATM   28  O   UNL     1      -8.954  13.855  68.331  1.00  0.00    -0.186 OA 
BRANCH  27  29
HETATM   29  N   UNL     1      -9.810  14.773  66.421  1.00  0.00    -0.266 N  
HETATM   30  C   UNL     1      -9.495  15.156  65.056  1.00  0.00     0.641 C  
HETATM   31  C   UNL     1     -10.650  16.044  64.616  1.00  0.00     0.132 C  
HETATM   32  C   UNL     1     -11.095  15.214  66.752  1.00  0.00    -0.307 C  
HETATM   33  O   UNL     1     -11.695  15.007  67.793  1.00  0.00    -0.339 OA 
HETATM   34  N   UNL     1     -11.594  15.953  65.693  1.00  0.00     0.281 NA 
ENDBRANCH  27  29
ENDBRANCH  25  27
ENDBRANCH   1  25
TORSDOF 6
ENDMDL
MODEL      192
REMARK 921   NORMALIZED FREE ENERGY PREDICTED BY IDOCK:   95.11 KCAL/MOL
REMARK 922        TOTAL FREE ENERGY PREDICTED BY IDOCK:  126.38 KCAL/MOL
REMARK 923 INTER-LIGAND FREE ENERGY PREDICTED BY IDOCK:  127.55 KCAL/MOL
REMARK 924 INTRA-LIGAND FREE ENERGY PREDICTED BY IDOCK:   -1.17 KCAL/MOL
REMARK 927      BINDING AFFINITY PREDICTED BY RF-SCORE:    0.00 PKD
ROOT
HETATM    1  CA  UNL     1      -9.182  14.143  69.488  1.00  0.00     0.663 C  
ENDROOT
BRANCH   1   2
HETATM    2  C   UNL     1      -8.173  15.016  70.240  1.00  0.00     0.795 A  
HETATM    3  C   UNL     1      -6.871  15.387  72.261  1.00  0.00     3.342 A  
HETATM    4  C   UNL     1      -6.069  16.306  71.588  1.00  0.00     1.742 A  
HETATM    5  C   UNL     1      -6.356  16.637  70.268  1.00  0.00     0.292 A  
HETATM    6  C   UNL     1      -7.918  14.750  71.595  1.00  0.00     4.130 A  
HETATM    7  C   UNL     1      -7.408  16.006  69.601  1.00  0.00    -0.039 A  
ENDBRANCH   1   2
BRANCH   1   8
HETATM    8  C   UNL     1     -10.232  15.057  68.739  1.00  0.00    -0.235 C  
HETATM    9  N   UNL     1     -10.573  16.236  69.376  1.00  0.00    -0.279 N  
HETATM   10  H   UNL     1     -10.120  16.430  70.269  1.00  0.00     0.000 HD 
HETATM   11  O   UNL     1     -10.728  14.747  67.656  1.00  0.00    -0.262 OA 
BRANCH   9  12
HETATM   12  CA  UNL     1     -11.557  17.262  68.863  1.00  0.00     1.084 C  
HETATM   13  N   UNL     1     -12.249  19.016  69.893  1.00  0.00    10.741 N  
HETATM   14  CA  UNL     1     -12.023  19.597  71.249  1.00  0.00    12.651 C  
HETATM   15  C   UNL     1     -13.334  20.223  71.771  1.00  0.00    25.819 C  
HETATM   16  O   UNL     1     -10.273  19.519  68.761  1.00  0.00    -0.431 OA 
HETATM   17  C   UNL     1     -11.471  18.454  72.130  1.00  0.00     4.315 C  
HETATM   18  OXT UNL     1     -13.546  20.549  72.929  1.00  0.00    21.924 OA 
HETATM   19  O   UNL     1     -14.232  20.502  70.793  1.00  0.00    11.884 OA 
HETATM   20  C   UNL     1     -11.188  18.781  69.045  1.00  0.00     2.136 C  
HETATM   21  C   UNL     1     -11.612  18.581  73.648  1.00  0.00     2.498 C  
HETATM   22  S   UNL     1     -12.427  16.967  71.574  1.00  0.00     3.306 SA 
HETATM   23  C   UNL     1      -9.967  18.228  71.889  1.00  0.00     5.987 C  
HETATM   24  C   UNL     1     -12.700  17.606  69.867  1.00  0.00     9.917 C  
ENDBRANCH   9  12
ENDBRANCH   1   8
BRANCH   1  25
HETATM   25  N   UNL     1      -9.775  13.128  70.362  1.00  0.00     3.345 N  
HETATM   26  H   UNL     1      -9.851  13.304  71.364  1.00  0.00     0.000 HD 
BRANCH  25  27
HETATM   27  C   UNL     1     -10.232  11.937  69.842  1.00  0.00     1.357 C  
HETATM   28  O   UNL     1      -9.594  11.287  69.016  1.00  0.00    -0.146 OA 
BRANCH  27  29
HETATM   29  N   UNL     1     -11.443  11.484  70.345  1.00  0.00    -0.121 N  
HETATM   30  C   UNL     1     -12.077  12.146  71.472  1.00  0.00     0.691 C  
HETATM   31  C   UNL     1     -13.427  11.461  71.628  1.00  0.00    -0.013 C  
HETATM   32  C   UNL     1     -12.349  10.606  69.742  1.00  0.00    -0.194 C  
HETATM   33  O   UNL     1     -12.165   9.942  68.736  1.00  0.00     0.491 OA 
HETATM   34  N   UNL     1     -13.516  10.596  70.486  1.00  0.00     0.158 NA 
ENDBRANCH  27  29
ENDBRANCH  25  27
ENDBRANCH   1  25
TORSDOF 6
ENDMDL
