MODEL        1
REMARK 921   NORMALIZED FREE ENERGY PREDICTED BY IDOCK:   -7.90 KCAL/MOL
REMARK 922        TOTAL FREE ENERGY PREDICTED BY IDOCK:  -11.36 KCAL/MOL
REMARK 923 INTER-LIGAND FREE ENERGY PREDICTED BY IDOCK:  -10.21 KCAL/MOL
REMARK 924 INTRA-LIGAND FREE ENERGY PREDICTED BY IDOCK:   -1.15 KCAL/MOL
REMARK 927      BINDING AFFINITY PREDICTED BY RF-SCORE:    0.00 PKD
ROOT
HETATM    1  C   UNL     1      -7.122  18.039  69.185  1.00  0.00    -0.189 C  
HETATM    2  C   UNL     1      -8.171  17.944  68.100  1.00  0.00    -0.269 C  
HETATM    3  C   UNL     1      -9.621  18.277  68.574  1.00  0.00    -0.342 C  
HETATM    4  O   UNL     1      -5.936  19.267  66.482  1.00  0.00    -0.166 OA 
HETATM    5  C   UNL     1      -9.602  19.295  67.359  1.00  0.00    -0.314 C  
HETATM    6  N   UNL     1      -8.247  19.082  67.188  1.00  0.00    -0.265 N  
HETATM    7  O   UNL     1      -7.706  20.214  65.088  1.00  0.00    -0.191 OA 
HETATM    8  O   UNL     1      -7.154  21.249  67.264  1.00  0.00    -0.522 OA 
HETATM    9  O   UNL     1     -10.356  20.030  66.770  1.00  0.00    -0.440 OA 
HETATM   10  S   UNL     1      -7.168  20.055  66.429  1.00  0.00    -0.276 S  
ENDROOT
BRANCH   3  11
HETATM   11  N   UNL     1     -10.659  17.200  68.559  1.00  0.00    -0.362 N  
HETATM   12  O   UNL     1      -9.494  15.612  69.765  1.00  0.00    -0.277 OA 
HETATM   13  C   UNL     1     -10.525  15.999  69.233  1.00  0.00    -0.257 C  
HETATM   14  H   UNL     1     -11.511  17.360  68.022  1.00  0.00     0.000 HD 
BRANCH  13  15
HETATM   15  C   UNL     1     -11.744  15.082  69.281  1.00  0.00    -0.323 C  
BRANCH  15  16
HETATM   16  C   UNL     1     -12.391  14.808  70.573  1.00  0.00    -0.337 A  
HETATM   17  C   UNL     1     -13.356  15.329  72.493  1.00  0.00    -0.453 A  
HETATM   18  N   UNL     1     -13.829  16.216  73.470  1.00  0.00    -0.797 NA 
HETATM   19  H2  UNL     1     -13.449  15.903  74.363  1.00  0.00     0.000 HD 
HETATM   20  C   UNL     1     -12.746  13.543  71.026  1.00  0.00    -0.322 A  
HETATM   21  H1  UNL     1     -13.714  17.229  73.440  1.00  0.00     0.000 HD 
HETATM   22  S   UNL     1     -13.547  13.651  72.542  1.00  0.00    -0.504 SA 
HETATM   23  N   UNL     1     -12.730  15.832  71.466  1.00  0.00    -0.455 NA 
ENDBRANCH  15  16
BRANCH  15  24
HETATM   24  N   UNL     1     -12.286  14.509  68.242  1.00  0.00    -0.593 NA 
HETATM   25  H   UNL     1     -13.038  13.821  68.302  1.00  0.00     0.000 HD 
BRANCH  24  26
HETATM   26  O   UNL     1     -11.724  14.941  67.039  1.00  0.00    -0.348 OA 
HETATM   27  O   UNL     1      -9.562  15.076  65.695  1.00  0.00    -0.333 OA 
HETATM   28  O   UNL     1     -10.047  13.408  64.270  1.00  0.00    -0.330 OA 
HETATM   29  C   UNL     1     -11.551  12.486  66.675  1.00  0.00    -0.442 C  
HETATM   30  C   UNL     1     -12.850  14.018  65.118  1.00  0.00    -0.368 C  
HETATM   31  C   UNL     1     -11.652  13.884  66.051  1.00  0.00    -0.349 C  
HETATM   32  C   UNL     1     -10.338  14.200  65.325  1.00  0.00    -0.388 C  
ENDBRANCH  24  26
ENDBRANCH  15  24
ENDBRANCH  13  15
ENDBRANCH   3  11
TORSDOF 5
ENDMDL
MODEL        2
REMARK 921   NORMALIZED FREE ENERGY PREDICTED BY IDOCK:   -7.87 KCAL/MOL
REMARK 922        TOTAL FREE ENERGY PREDICTED BY IDOCK:  -11.32 KCAL/MOL
REMARK 923 INTER-LIGAND FREE ENERGY PREDICTED BY IDOCK:   -9.72 KCAL/MOL
REMARK 924 INTRA-LIGAND FREE ENERGY PREDICTED BY IDOCK:   -1.61 KCAL/MOL
REMARK 927      BINDING AFFINITY PREDICTED BY RF-SCORE:    0.00 PKD
ROOT
HETATM    1  C   UNL     1     -10.508   8.944  71.768  1.00  0.00    -0.431 C  
HETATM    2  C   UNL     1     -11.098   9.209  70.402  1.00  0.00    -0.253 C  
HETATM    3  C   UNL     1     -10.338  10.290  69.570  1.00  0.00    -0.242 C  
HETATM    4  O   UNL     1     -11.393   6.165  70.462  1.00  0.00    -0.336 OA 
HETATM    5  C   UNL     1     -10.302   9.163  68.455  1.00  0.00    -0.207 C  
HETATM    6  N   UNL     1     -10.768   8.234  69.366  1.00  0.00    -0.195 N  
HETATM    7  O   UNL     1     -11.263   6.250  68.023  1.00  0.00    -0.323 OA 
HETATM    8  O   UNL     1      -9.202   6.378  69.380  1.00  0.00    -0.142 OA 
HETATM    9  O   UNL     1      -9.987   9.030  67.299  1.00  0.00    -0.183 OA 
HETATM   10  S   UNL     1     -10.638   6.601  69.288  1.00  0.00    -0.261 S  
ENDROOT
BRANCH   3  11
HETATM   11  N   UNL     1     -11.032  11.573  69.234  1.00  0.00    -0.327 N  
HETATM   12  O   UNL     1      -9.306  12.581  68.077  1.00  0.00    -0.193 OA 
HETATM   13  C   UNL     1     -10.474  12.561  68.444  1.00  0.00    -0.240 C  
HETATM   14  H   UNL     1     -11.968  11.727  69.610  1.00  0.00     0.000 HD 
BRANCH  13  15
HETATM   15  C   UNL     1     -11.373  13.724  68.033  1.00  0.00    -0.288 C  
BRANCH  15  16
HETATM   16  C   UNL     1     -11.645  13.956  66.607  1.00  0.00    -0.374 A  
HETATM   17  C   UNL     1     -11.656  15.108  64.720  1.00  0.00    -0.364 A  
HETATM   18  N   UNL     1     -11.412  16.239  63.928  1.00  0.00    -1.539 NA 
HETATM   19  H2  UNL     1     -12.278  16.444  63.430  1.00  0.00     0.000 HD 
HETATM   20  C   UNL     1     -12.138  12.997  65.730  1.00  0.00    -0.454 A  
HETATM   21  H1  UNL     1     -11.056  17.129  64.278  1.00  0.00     0.000 HD 
HETATM   22  S   UNL     1     -12.245  13.635  64.139  1.00  0.00    -0.352 SA 
HETATM   23  N   UNL     1     -11.403  15.193  65.996  1.00  0.00    -0.278 NA 
ENDBRANCH  15  16
BRANCH  15  24
HETATM   24  N   UNL     1     -11.948  14.549  68.863  1.00  0.00    -0.457 NA 
HETATM   25  H   UNL     1     -11.735  15.546  68.910  1.00  0.00     0.000 HD 
BRANCH  24  26
HETATM   26  O   UNL     1     -12.888  13.917  69.680  1.00  0.00     0.002 OA 
HETATM   27  O   UNL     1     -13.223  12.068  71.402  1.00  0.00    -0.280 OA 
HETATM   28  O   UNL     1     -13.332  13.413  73.198  1.00  0.00    -0.412 OA 
HETATM   29  C   UNL     1     -11.540  15.033  71.449  1.00  0.00    -0.397 C  
HETATM   30  C   UNL     1     -14.024  15.466  71.136  1.00  0.00    -0.410 C  
HETATM   31  C   UNL     1     -12.895  14.449  71.028  1.00  0.00    -0.353 C  
HETATM   32  C   UNL     1     -13.182  13.201  71.873  1.00  0.00    -0.431 C  
ENDBRANCH  24  26
ENDBRANCH  15  24
ENDBRANCH  13  15
ENDBRANCH   3  11
TORSDOF 5
ENDMDL
MODEL        3
REMARK 921   NORMALIZED FREE ENERGY PREDICTED BY IDOCK:   -7.85 KCAL/MOL
REMARK 922        TOTAL FREE ENERGY PREDICTED BY IDOCK:  -11.29 KCAL/MOL
REMARK 923 INTER-LIGAND FREE ENERGY PREDICTED BY IDOCK:  -10.07 KCAL/MOL
REMARK 924 INTRA-LIGAND FREE ENERGY PREDICTED BY IDOCK:   -1.22 KCAL/MOL
REMARK 927      BINDING AFFINITY PREDICTED BY RF-SCORE:    0.00 PKD
ROOT
HETATM    1  C   UNL     1      -9.391   8.459  69.093  1.00  0.00    -0.151 C  
HETATM    2  C   UNL     1      -9.972   9.394  70.130  1.00  0.00    -0.229 C  
HETATM    3  C   UNL     1     -11.270  10.134  69.675  1.00  0.00    -0.261 C  
HETATM    4  O   UNL     1      -9.190   7.076  71.968  1.00  0.00    -0.140 OA 
HETATM    5  C   UNL     1     -11.870   9.553  71.023  1.00  0.00    -0.330 C  
HETATM    6  N   UNL     1     -10.749   8.761  71.192  1.00  0.00    -0.229 N  
HETATM    7  O   UNL     1     -10.987   7.832  73.442  1.00  0.00    -0.327 OA 
HETATM    8  O   UNL     1     -11.510   6.469  71.448  1.00  0.00    -0.282 OA 
HETATM    9  O   UNL     1     -12.868   9.643  71.693  1.00  0.00    -0.345 OA 
HETATM   10  S   UNL     1     -10.608   7.406  72.104  1.00  0.00    -0.231 S  
ENDROOT
BRANCH   3  11
HETATM   11  N   UNL     1     -11.242  11.621  69.514  1.00  0.00    -0.390 N  
HETATM   12  O   UNL     1     -12.026  11.727  67.345  1.00  0.00    -0.617 OA 
HETATM   13  C   UNL     1     -11.706  12.278  68.389  1.00  0.00    -0.337 C  
HETATM   14  H   UNL     1     -10.859  12.181  70.276  1.00  0.00     0.000 HD 
BRANCH  13  15
HETATM   15  C   UNL     1     -11.790  13.801  68.449  1.00  0.00    -0.376 C  
BRANCH  15  16
HETATM   16  C   UNL     1     -11.069  14.603  67.449  1.00  0.00    -0.326 A  
HETATM   17  C   UNL     1     -10.794  15.636  65.514  1.00  0.00    -0.346 A  
HETATM   18  N   UNL     1     -11.184  16.036  64.228  1.00  0.00    -1.049 NA 
HETATM   19  H2  UNL     1     -10.415  15.801  63.599  1.00  0.00     0.000 HD 
HETATM   20  C   UNL     1      -9.839  15.214  67.664  1.00  0.00    -0.219 A  
HETATM   21  H1  UNL     1     -12.044  15.744  63.764  1.00  0.00     0.000 HD 
HETATM   22  S   UNL     1      -9.369  16.121  66.283  1.00  0.00    -0.343 SA 
HETATM   23  N   UNL     1     -11.590  14.840  66.171  1.00  0.00    -0.332 NA 
ENDBRANCH  15  16
BRANCH  15  24
HETATM   24  N   UNL     1     -12.475  14.475  69.331  1.00  0.00    -0.566 NA 
HETATM   25  H   UNL     1     -13.272  15.068  69.097  1.00  0.00     0.000 HD 
BRANCH  24  26
HETATM   26  O   UNL     1     -11.996  14.296  70.631  1.00  0.00    -0.301 OA 
HETATM   27  O   UNL     1     -11.199  15.504  72.728  1.00  0.00    -0.236 OA 
HETATM   28  O   UNL     1     -13.071  15.188  73.929  1.00  0.00    -0.421 OA 
HETATM   29  C   UNL     1     -14.226  15.253  71.180  1.00  0.00    -0.410 C  
HETATM   30  C   UNL     1     -13.482  12.958  71.977  1.00  0.00    -0.568 C  
HETATM   31  C   UNL     1     -13.049  14.376  71.623  1.00  0.00    -0.350 C  
HETATM   32  C   UNL     1     -12.339  15.055  72.802  1.00  0.00    -0.360 C  
ENDBRANCH  24  26
ENDBRANCH  15  24
ENDBRANCH  13  15
ENDBRANCH   3  11
TORSDOF 5
ENDMDL
MODEL        4
REMARK 921   NORMALIZED FREE ENERGY PREDICTED BY IDOCK:   -7.68 KCAL/MOL
REMARK 922        TOTAL FREE ENERGY PREDICTED BY IDOCK:  -11.08 KCAL/MOL
REMARK 923 INTER-LIGAND FREE ENERGY PREDICTED BY IDOCK:  -10.20 KCAL/MOL
REMARK 924 INTRA-LIGAND FREE ENERGY PREDICTED BY IDOCK:   -0.88 KCAL/MOL
REMARK 927      BINDING AFFINITY PREDICTED BY RF-SCORE:    0.00 PKD
ROOT
HETATM    1  C   UNL     1      -7.169  17.957  69.023  1.00  0.00    -0.211 C  
HETATM    2  C   UNL     1      -8.063  17.840  67.810  1.00  0.00    -0.226 C  
HETATM    3  C   UNL     1      -9.583  18.043  68.107  1.00  0.00    -0.301 C  
HETATM    4  O   UNL     1      -5.754  19.399  66.546  1.00  0.00    -0.165 OA 
HETATM    5  C   UNL     1      -9.491  19.118  66.944  1.00  0.00    -0.320 C  
HETATM    6  N   UNL     1      -8.114  19.012  66.941  1.00  0.00    -0.258 N  
HETATM    7  O   UNL     1      -7.404  20.283  64.975  1.00  0.00    -0.213 OA 
HETATM    8  O   UNL     1      -7.211  21.247  67.242  1.00  0.00    -0.508 OA 
HETATM    9  O   UNL     1     -10.221  19.824  66.293  1.00  0.00    -0.432 OA 
HETATM   10  S   UNL     1      -7.027  20.097  66.367  1.00  0.00    -0.251 S  
ENDROOT
BRANCH   3  11
HETATM   11  N   UNL     1     -10.523  16.895  67.916  1.00  0.00    -0.331 N  
HETATM   12  O   UNL     1      -9.741  15.549  69.621  1.00  0.00    -0.270 OA 
HETATM   13  C   UNL     1     -10.565  15.794  68.751  1.00  0.00    -0.239 C  
HETATM   14  H   UNL     1     -11.168  16.927  67.126  1.00  0.00     0.000 HD 
BRANCH  13  15
HETATM   15  C   UNL     1     -11.703  14.797  68.542  1.00  0.00    -0.317 C  
BRANCH  15  16
HETATM   16  C   UNL     1     -11.809  14.081  67.262  1.00  0.00    -0.411 A  
HETATM   17  C   UNL     1     -12.174  13.879  65.092  1.00  0.00    -0.427 A  
HETATM   18  N   UNL     1     -12.514  14.354  63.817  1.00  0.00    -1.058 NA 
HETATM   19  H2  UNL     1     -13.232  13.729  63.450  1.00  0.00     0.000 HD 
HETATM   20  C   UNL     1     -11.478  12.744  67.077  1.00  0.00    -0.341 A  
HETATM   21  H1  UNL     1     -12.821  15.306  63.615  1.00  0.00     0.000 HD 
HETATM   22  S   UNL     1     -11.666  12.302  65.427  1.00  0.00    -0.334 SA 
HETATM   23  N   UNL     1     -12.244  14.712  66.091  1.00  0.00    -0.229 NA 
ENDBRANCH  15  16
BRANCH  15  24
HETATM   24  N   UNL     1     -12.611  14.508  69.432  1.00  0.00    -0.557 NA 
HETATM   25  H   UNL     1     -13.607  14.429  69.221  1.00  0.00     0.000 HD 
BRANCH  24  26
HETATM   26  O   UNL     1     -12.071  14.320  70.706  1.00  0.00    -0.312 OA 
HETATM   27  O   UNL     1     -11.070  15.508  72.726  1.00  0.00    -0.076 OA 
HETATM   28  O   UNL     1     -12.886  15.348  74.039  1.00  0.00    -0.519 OA 
HETATM   29  C   UNL     1     -14.193  15.444  71.360  1.00  0.00    -0.519 C  
HETATM   30  C   UNL     1     -13.566  13.117  72.166  1.00  0.00    -0.637 C  
HETATM   31  C   UNL     1     -13.055  14.493  71.755  1.00  0.00    -0.346 C  
HETATM   32  C   UNL     1     -12.233  15.142  72.875  1.00  0.00    -0.386 C  
ENDBRANCH  24  26
ENDBRANCH  15  24
ENDBRANCH  13  15
ENDBRANCH   3  11
TORSDOF 5
ENDMDL
MODEL        5
REMARK 921   NORMALIZED FREE ENERGY PREDICTED BY IDOCK:   -7.54 KCAL/MOL
REMARK 922        TOTAL FREE ENERGY PREDICTED BY IDOCK:  -10.89 KCAL/MOL
REMARK 923 INTER-LIGAND FREE ENERGY PREDICTED BY IDOCK:   -9.34 KCAL/MOL
REMARK 924 INTRA-LIGAND FREE ENERGY PREDICTED BY IDOCK:   -1.55 KCAL/MOL
REMARK 927      BINDING AFFINITY PREDICTED BY RF-SCORE:    0.00 PKD
ROOT
HETATM    1  C   UNL     1      -9.961  19.883  68.820  1.00  0.00    -0.462 C  
HETATM    2  C   UNL     1      -9.344  18.554  68.449  1.00  0.00    -0.334 C  
HETATM    3  C   UNL     1      -9.927  17.911  67.151  1.00  0.00    -0.327 C  
HETATM    4  O   UNL     1      -6.809  20.023  69.330  1.00  0.00    -0.311 OA 
HETATM    5  C   UNL     1      -8.406  17.836  66.708  1.00  0.00    -0.248 C  
HETATM    6  N   UNL     1      -8.043  18.618  67.789  1.00  0.00    -0.248 N  
HETATM    7  O   UNL     1      -5.598  18.543  67.808  1.00  0.00    -0.162 OA 
HETATM    8  O   UNL     1      -6.797  20.517  66.927  1.00  0.00    -0.244 OA 
HETATM    9  O   UNL     1      -7.734  17.373  65.821  1.00  0.00    -0.508 OA 
HETATM   10  S   UNL     1      -6.676  19.506  67.969  1.00  0.00    -0.251 S  
ENDROOT
BRANCH   3  11
HETATM   11  N   UNL     1     -10.683  16.624  67.251  1.00  0.00    -0.275 N  
HETATM   12  O   UNL     1     -10.745  16.110  65.000  1.00  0.00    -0.558 OA 
HETATM   13  C   UNL     1     -10.943  15.804  66.168  1.00  0.00    -0.169 C  
HETATM   14  H   UNL     1     -11.026  16.336  68.168  1.00  0.00     0.000 HD 
BRANCH  13  15
HETATM   15  C   UNL     1     -11.556  14.436  66.455  1.00  0.00    -0.375 C  
BRANCH  15  16
HETATM   16  C   UNL     1     -11.458  13.375  65.441  1.00  0.00    -0.302 A  
HETATM   17  C   UNL     1     -12.175  12.103  63.781  1.00  0.00    -0.531 A  
HETATM   18  N   UNL     1     -13.124  11.653  62.852  1.00  0.00    -0.706 NA 
HETATM   19  H2  UNL     1     -13.158  10.637  62.932  1.00  0.00     0.000 HD 
HETATM   20  C   UNL     1     -10.302  12.658  65.157  1.00  0.00    -0.292 A  
HETATM   21  H1  UNL     1     -14.090  11.978  62.804  1.00  0.00     0.000 HD 
HETATM   22  S   UNL     1     -10.575  11.565  63.860  1.00  0.00    -0.426 SA 
HETATM   23  N   UNL     1     -12.548  13.007  64.643  1.00  0.00    -0.659 NA 
ENDBRANCH  15  16
BRANCH  15  24
HETATM   24  N   UNL     1     -12.168  14.111  67.559  1.00  0.00    -0.578 NA 
HETATM   25  H   UNL     1     -13.170  13.924  67.619  1.00  0.00     0.000 HD 
BRANCH  24  26
HETATM   26  O   UNL     1     -11.301  14.046  68.653  1.00  0.00    -0.244 OA 
HETATM   27  O   UNL     1      -9.775  15.414  70.167  1.00  0.00    -0.182 OA 
HETATM   28  O   UNL     1     -11.163  15.478  71.932  1.00  0.00    -0.385 OA 
HETATM   29  C   UNL     1     -13.153  15.322  69.717  1.00  0.00     0.342 C  
HETATM   30  C   UNL     1     -12.348  13.078  70.596  1.00  0.00    -0.391 C  
HETATM   31  C   UNL     1     -11.959  14.377  69.900  1.00  0.00    -0.335 C  
HETATM   32  C   UNL     1     -10.855  15.115  70.669  1.00  0.00    -0.179 C  
ENDBRANCH  24  26
ENDBRANCH  15  24
ENDBRANCH  13  15
ENDBRANCH   3  11
TORSDOF 5
ENDMDL
MODEL        6
REMARK 921   NORMALIZED FREE ENERGY PREDICTED BY IDOCK:   -7.49 KCAL/MOL
REMARK 922        TOTAL FREE ENERGY PREDICTED BY IDOCK:  -10.83 KCAL/MOL
REMARK 923 INTER-LIGAND FREE ENERGY PREDICTED BY IDOCK:   -9.88 KCAL/MOL
REMARK 924 INTRA-LIGAND FREE ENERGY PREDICTED BY IDOCK:   -0.95 KCAL/MOL
REMARK 927      BINDING AFFINITY PREDICTED BY RF-SCORE:    0.00 PKD
ROOT
HETATM    1  C   UNL     1     -13.403  10.425  72.065  1.00  0.00    -0.440 C  
HETATM    2  C   UNL     1     -12.751  10.164  70.726  1.00  0.00    -0.311 C  
HETATM    3  C   UNL     1     -11.708  11.243  70.295  1.00  0.00    -0.324 C  
HETATM    4  O   UNL     1     -12.762   7.304  71.815  1.00  0.00    -0.332 OA 
HETATM    5  C   UNL     1     -10.748   9.995  70.108  1.00  0.00    -0.307 C  
HETATM    6  N   UNL     1     -11.675   9.177  70.725  1.00  0.00    -0.277 N  
HETATM    7  O   UNL     1     -10.815   6.911  70.390  1.00  0.00    -0.238 OA 
HETATM    8  O   UNL     1     -10.550   8.058  72.564  1.00  0.00    -0.278 OA 
HETATM    9  O   UNL     1      -9.650   9.742  69.676  1.00  0.00    -0.193 OA 
HETATM   10  S   UNL     1     -11.412   7.724  71.438  1.00  0.00    -0.267 S  
ENDROOT
BRANCH   3  11
HETATM   11  N   UNL     1     -11.988  12.087  69.091  1.00  0.00    -0.296 N  
HETATM   12  O   UNL     1      -9.860  12.928  68.785  1.00  0.00    -0.112 OA 
HETATM   13  C   UNL     1     -11.012  12.782  68.401  1.00  0.00    -0.254 C  
HETATM   14  H   UNL     1     -12.952  12.153  68.763  1.00  0.00     0.000 HD 
BRANCH  13  15
HETATM   15  C   UNL     1     -11.418  13.442  67.086  1.00  0.00    -0.339 C  
BRANCH  15  16
HETATM   16  C   UNL     1     -11.312  12.679  65.833  1.00  0.00    -0.334 A  
HETATM   17  C   UNL     1     -12.019  11.873  63.900  1.00  0.00    -0.402 A  
HETATM   18  N   UNL     1     -12.964  11.671  62.884  1.00  0.00    -0.792 NA 
HETATM   19  H2  UNL     1     -12.990  10.668  62.699  1.00  0.00     0.000 HD 
HETATM   20  C   UNL     1     -10.150  12.068  65.376  1.00  0.00    -0.256 A  
HETATM   21  H1  UNL     1     -13.932  11.990  62.919  1.00  0.00     0.000 HD 
HETATM   22  S   UNL     1     -10.414  11.345  63.840  1.00  0.00    -0.421 SA 
HETATM   23  N   UNL     1     -12.399  12.521  64.964  1.00  0.00    -0.530 NA 
ENDBRANCH  15  16
BRANCH  15  24
HETATM   24  N   UNL     1     -11.875  14.658  66.973  1.00  0.00    -0.374 NA 
HETATM   25  H   UNL     1     -12.667  15.018  67.505  1.00  0.00     0.000 HD 
BRANCH  24  26
HETATM   26  O   UNL     1     -11.159  15.414  66.041  1.00  0.00    -0.313 OA 
HETATM   27  O   UNL     1     -11.169  17.566  64.676  1.00  0.00    -0.934 OA 
HETATM   28  O   UNL     1      -9.684  18.676  65.944  1.00  0.00    -0.498 OA 
HETATM   29  C   UNL     1     -10.911  16.912  68.012  1.00  0.00    -0.338 C  
HETATM   30  C   UNL     1      -8.922  15.910  66.789  1.00  0.00    -0.280 C  
HETATM   31  C   UNL     1     -10.347  16.437  66.667  1.00  0.00    -0.292 C  
HETATM   32  C   UNL     1     -10.432  17.590  65.658  1.00  0.00    -0.149 C  
ENDBRANCH  24  26
ENDBRANCH  15  24
ENDBRANCH  13  15
ENDBRANCH   3  11
TORSDOF 5
ENDMDL
MODEL        7
REMARK 921   NORMALIZED FREE ENERGY PREDICTED BY IDOCK:   -7.40 KCAL/MOL
REMARK 922        TOTAL FREE ENERGY PREDICTED BY IDOCK:  -10.72 KCAL/MOL
REMARK 923 INTER-LIGAND FREE ENERGY PREDICTED BY IDOCK:   -9.43 KCAL/MOL
REMARK 924 INTRA-LIGAND FREE ENERGY PREDICTED BY IDOCK:   -1.29 KCAL/MOL
REMARK 927      BINDING AFFINITY PREDICTED BY RF-SCORE:    0.00 PKD
ROOT
HETATM    1  C   UNL     1      -8.004  11.349  67.195  1.00  0.00    -0.156 C  
HETATM    2  C   UNL     1      -8.980  11.481  68.343  1.00  0.00    -0.173 C  
HETATM    3  C   UNL     1     -10.147  12.487  68.085  1.00  0.00    -0.225 C  
HETATM    4  O   UNL     1      -8.553   8.453  68.430  1.00  0.00    -0.137 OA 
HETATM    5  C   UNL     1     -11.067  11.260  68.491  1.00  0.00    -0.235 C  
HETATM    6  N   UNL     1      -9.973  10.416  68.458  1.00  0.00    -0.161 N  
HETATM    7  O   UNL     1     -10.792   8.312  69.399  1.00  0.00    -0.193 OA 
HETATM    8  O   UNL     1     -10.512   8.584  66.959  1.00  0.00    -0.300 OA 
HETATM    9  O   UNL     1     -12.228  11.023  68.715  1.00  0.00    -0.546 OA 
HETATM   10  S   UNL     1      -9.971   8.785  68.296  1.00  0.00    -0.182 S  
ENDROOT
BRANCH   3  11
HETATM   11  N   UNL     1     -10.238  13.726  68.918  1.00  0.00    -0.399 N  
HETATM   12  O   UNL     1     -11.851  14.826  67.684  1.00  0.00    -0.358 OA 
HETATM   13  C   UNL     1     -11.148  14.741  68.682  1.00  0.00    -0.262 C  
HETATM   14  H   UNL     1      -9.594  13.828  69.702  1.00  0.00     0.000 HD 
BRANCH  13  15
HETATM   15  C   UNL     1     -11.250  15.849  69.727  1.00  0.00    -0.339 C  
BRANCH  15  16
HETATM   16  C   UNL     1     -12.128  15.663  70.892  1.00  0.00    -0.407 A  
HETATM   17  C   UNL     1     -12.724  15.841  73.013  1.00  0.00    -0.491 A  
HETATM   18  N   UNL     1     -12.540  16.221  74.351  1.00  0.00    -0.882 NA 
HETATM   19  H2  UNL     1     -12.741  15.399  74.922  1.00  0.00     0.000 HD 
HETATM   20  C   UNL     1     -13.409  15.128  70.838  1.00  0.00    -0.408 A  
HETATM   21  H1  UNL     1     -11.688  16.638  74.725  1.00  0.00     0.000 HD 
HETATM   22  S   UNL     1     -14.136  15.150  72.394  1.00  0.00    -0.450 SA 
HETATM   23  N   UNL     1     -11.740  16.043  72.183  1.00  0.00    -0.486 NA 
ENDBRANCH  15  16
BRANCH  15  24
HETATM   24  N   UNL     1     -10.598  16.978  69.681  1.00  0.00    -0.295 NA 
HETATM   25  H   UNL     1     -10.912  17.832  70.143  1.00  0.00     0.000 HD 
BRANCH  24  26
HETATM   26  O   UNL     1      -9.424  16.887  68.930  1.00  0.00    -0.259 OA 
HETATM   27  O   UNL     1      -8.429  16.054  66.737  1.00  0.00    -0.207 OA 
HETATM   28  O   UNL     1      -8.298  18.062  65.740  1.00  0.00    -0.508 OA 
HETATM   29  C   UNL     1     -10.655  18.518  67.510  1.00  0.00    -0.461 C  
HETATM   30  C   UNL     1      -8.403  19.040  68.565  1.00  0.00    -0.387 C  
HETATM   31  C   UNL     1      -9.300  17.962  67.967  1.00  0.00    -0.274 C  
HETATM   32  C   UNL     1      -8.623  17.265  66.780  1.00  0.00    -0.249 C  
ENDBRANCH  24  26
ENDBRANCH  15  24
ENDBRANCH  13  15
ENDBRANCH   3  11
TORSDOF 5
ENDMDL
MODEL        8
REMARK 921   NORMALIZED FREE ENERGY PREDICTED BY IDOCK:   -7.36 KCAL/MOL
REMARK 922        TOTAL FREE ENERGY PREDICTED BY IDOCK:  -10.65 KCAL/MOL
REMARK 923 INTER-LIGAND FREE ENERGY PREDICTED BY IDOCK:   -9.47 KCAL/MOL
REMARK 924 INTRA-LIGAND FREE ENERGY PREDICTED BY IDOCK:   -1.19 KCAL/MOL
REMARK 927      BINDING AFFINITY PREDICTED BY RF-SCORE:    0.00 PKD
ROOT
HETATM    1  C   UNL     1      -8.849  12.071  66.643  1.00  0.00    -0.191 C  
HETATM    2  C   UNL     1     -10.218  12.700  66.519  1.00  0.00    -0.243 C  
HETATM    3  C   UNL     1     -10.208  14.261  66.470  1.00  0.00    -0.276 C  
HETATM    4  O   UNL     1     -10.599  10.357  64.590  1.00  0.00    -0.173 OA 
HETATM    5  C   UNL     1     -11.062  14.056  65.150  1.00  0.00    -0.341 C  
HETATM    6  N   UNL     1     -10.800  12.699  65.180  1.00  0.00    -0.283 N  
HETATM    7  O   UNL     1     -12.248  11.755  63.449  1.00  0.00    -0.511 OA 
HETATM    8  O   UNL     1      -9.836  12.095  63.035  1.00  0.00    -0.365 OA 
HETATM    9  O   UNL     1     -11.681  14.712  64.350  1.00  0.00    -0.393 OA 
HETATM   10  S   UNL     1     -10.883  11.634  63.936  1.00  0.00    -0.436 S  
ENDROOT
BRANCH   3  11
HETATM   11  N   UNL     1     -10.838  15.030  67.589  1.00  0.00    -0.283 N  
HETATM   12  O   UNL     1      -9.317  14.497  69.243  1.00  0.00    -0.061 OA 
HETATM   13  C   UNL     1     -10.280  15.142  68.849  1.00  0.00    -0.236 C  
HETATM   14  H   UNL     1     -11.728  15.496  67.412  1.00  0.00     0.000 HD 
BRANCH  13  15
HETATM   15  C   UNL     1     -10.939  16.113  69.825  1.00  0.00    -0.349 C  
BRANCH  15  16
HETATM   16  C   UNL     1     -11.700  15.584  70.967  1.00  0.00    -0.381 A  
HETATM   17  C   UNL     1     -12.539  15.604  73.012  1.00  0.00    -0.459 A  
HETATM   18  N   UNL     1     -12.751  16.150  74.286  1.00  0.00    -0.898 NA 
HETATM   19  H2  UNL     1     -12.534  15.417  74.962  1.00  0.00     0.000 HD 
HETATM   20  C   UNL     1     -12.462  14.421  70.936  1.00  0.00    -0.354 A  
HETATM   21  H1  UNL     1     -12.317  17.006  74.631  1.00  0.00     0.000 HD 
HETATM   22  S   UNL     1     -13.259  14.186  72.440  1.00  0.00    -0.498 SA 
HETATM   23  N   UNL     1     -11.737  16.239  72.203  1.00  0.00    -0.494 NA 
ENDBRANCH  15  16
BRANCH  15  24
HETATM   24  N   UNL     1     -10.874  17.413  69.740  1.00  0.00    -0.157 NA 
HETATM   25  H   UNL     1     -11.174  18.045  70.482  1.00  0.00     0.000 HD 
BRANCH  24  26
HETATM   26  O   UNL     1     -10.349  17.843  68.519  1.00  0.00    -0.369 OA 
HETATM   27  O   UNL     1     -10.762  19.347  66.504  1.00  0.00    -0.438 OA 
HETATM   28  O   UNL     1      -9.327  20.969  67.101  1.00  0.00    -0.288 OA 
HETATM   29  C   UNL     1     -10.124  19.967  69.795  1.00  0.00     0.140 C  
HETATM   30  C   UNL     1      -8.138  18.775  68.750  1.00  0.00    -0.330 C  
HETATM   31  C   UNL     1      -9.625  19.092  68.638  1.00  0.00    -0.403 C  
HETATM   32  C   UNL     1      -9.950  19.790  67.311  1.00  0.00    -0.400 C  
ENDBRANCH  24  26
ENDBRANCH  15  24
ENDBRANCH  13  15
ENDBRANCH   3  11
TORSDOF 5
ENDMDL
MODEL        9
REMARK 921   NORMALIZED FREE ENERGY PREDICTED BY IDOCK:   -7.34 KCAL/MOL
REMARK 922        TOTAL FREE ENERGY PREDICTED BY IDOCK:  -10.63 KCAL/MOL
REMARK 923 INTER-LIGAND FREE ENERGY PREDICTED BY IDOCK:   -9.55 KCAL/MOL
REMARK 924 INTRA-LIGAND FREE ENERGY PREDICTED BY IDOCK:   -1.08 KCAL/MOL
REMARK 927      BINDING AFFINITY PREDICTED BY RF-SCORE:    0.00 PKD
ROOT
HETATM    1  C   UNL     1     -10.042  19.959  69.026  1.00  0.00    -0.395 C  
HETATM    2  C   UNL     1      -9.512  18.589  68.669  1.00  0.00    -0.345 C  
HETATM    3  C   UNL     1     -10.215  17.925  67.442  1.00  0.00    -0.360 C  
HETATM    4  O   UNL     1      -6.859  19.970  69.310  1.00  0.00    -0.314 OA 
HETATM    5  C   UNL     1      -8.734  17.761  66.899  1.00  0.00    -0.248 C  
HETATM    6  N   UNL     1      -8.260  18.566  67.918  1.00  0.00    -0.256 N  
HETATM    7  O   UNL     1      -5.826  18.377  67.771  1.00  0.00    -0.161 OA 
HETATM    8  O   UNL     1      -6.996  20.369  66.893  1.00  0.00    -0.241 OA 
HETATM    9  O   UNL     1      -8.148  17.233  65.987  1.00  0.00    -0.477 OA 
HETATM   10  S   UNL     1      -6.846  19.395  67.965  1.00  0.00    -0.255 S  
ENDROOT
BRANCH   3  11
HETATM   11  N   UNL     1     -11.018  16.680  67.648  1.00  0.00    -0.253 N  
HETATM   12  O   UNL     1      -9.674  15.688  69.242  1.00  0.00    -0.234 OA 
HETATM   13  C   UNL     1     -10.712  15.719  68.595  1.00  0.00    -0.263 C  
HETATM   14  H   UNL     1     -11.836  16.531  67.057  1.00  0.00     0.000 HD 
BRANCH  13  15
HETATM   15  C   UNL     1     -11.728  14.603  68.817  1.00  0.00    -0.324 C  
BRANCH  15  16
HETATM   16  C   UNL     1     -12.390  14.479  70.124  1.00  0.00    -0.342 A  
HETATM   17  C   UNL     1     -13.185  13.405  71.886  1.00  0.00    -0.431 A  
HETATM   18  N   UNL     1     -13.474  12.262  72.645  1.00  0.00    -0.491 NA 
HETATM   19  H2  UNL     1     -14.456  12.327  72.915  1.00  0.00     0.000 HD 
HETATM   20  C   UNL     1     -12.781  15.552  70.916  1.00  0.00    -0.468 A  
HETATM   21  H1  UNL     1     -13.316  11.304  72.336  1.00  0.00     0.000 HD 
HETATM   22  S   UNL     1     -13.446  14.994  72.399  1.00  0.00    -0.480 SA 
HETATM   23  N   UNL     1     -12.668  13.234  70.702  1.00  0.00    -0.210 NA 
ENDBRANCH  15  16
BRANCH  15  24
HETATM   24  N   UNL     1     -12.081  13.727  67.917  1.00  0.00    -0.425 NA 
HETATM   25  H   UNL     1     -12.479  12.814  68.139  1.00  0.00     0.000 HD 
BRANCH  24  26
HETATM   26  O   UNL     1     -11.853  14.177  66.614  1.00  0.00    -0.386 OA 
HETATM   27  O   UNL     1     -10.066  14.991  64.989  1.00  0.00    -0.348 OA 
HETATM   28  O   UNL     1      -9.920  13.088  63.803  1.00  0.00    -0.278 OA 
HETATM   29  C   UNL     1     -10.695  11.981  66.461  1.00  0.00    -0.293 C  
HETATM   30  C   UNL     1     -12.640  12.617  64.954  1.00  0.00    -0.525 C  
HETATM   31  C   UNL     1     -11.425  13.114  65.729  1.00  0.00    -0.325 C  
HETATM   32  C   UNL     1     -10.430  13.832  64.808  1.00  0.00    -0.428 C  
ENDBRANCH  24  26
ENDBRANCH  15  24
ENDBRANCH  13  15
ENDBRANCH   3  11
TORSDOF 5
ENDMDL
MODEL       10
REMARK 921   NORMALIZED FREE ENERGY PREDICTED BY IDOCK:   -7.28 KCAL/MOL
REMARK 922        TOTAL FREE ENERGY PREDICTED BY IDOCK:  -10.56 KCAL/MOL
REMARK 923 INTER-LIGAND FREE ENERGY PREDICTED BY IDOCK:   -9.03 KCAL/MOL
REMARK 924 INTRA-LIGAND FREE ENERGY PREDICTED BY IDOCK:   -1.53 KCAL/MOL
REMARK 927      BINDING AFFINITY PREDICTED BY RF-SCORE:    0.00 PKD
ROOT
HETATM    1  C   UNL     1      -7.037  16.182  69.313  1.00  0.00    -0.220 C  
HETATM    2  C   UNL     1      -8.191  15.827  68.403  1.00  0.00    -0.151 C  
HETATM    3  C   UNL     1      -9.492  15.395  69.151  1.00  0.00    -0.242 C  
HETATM    4  O   UNL     1      -7.129  18.265  66.891  1.00  0.00    -0.188 OA 
HETATM    5  C   UNL     1     -10.174  16.514  68.258  1.00  0.00    -0.268 C  
HETATM    6  N   UNL     1      -8.931  16.956  67.845  1.00  0.00    -0.222 N  
HETATM    7  O   UNL     1      -9.410  18.563  66.065  1.00  0.00    -0.496 OA 
HETATM    8  O   UNL     1      -8.802  19.331  68.334  1.00  0.00    -0.329 OA 
HETATM    9  O   UNL     1     -11.275  16.932  67.998  1.00  0.00    -0.271 OA 
HETATM   10  S   UNL     1      -8.544  18.423  67.225  1.00  0.00    -0.262 S  
ENDROOT
BRANCH   3  11
HETATM   11  N   UNL     1      -9.989  13.992  69.001  1.00  0.00    -0.421 N  
HETATM   12  O   UNL     1     -12.048  14.267  70.008  1.00  0.00    -0.300 OA 
HETATM   13  C   UNL     1     -11.258  13.585  69.369  1.00  0.00    -0.187 C  
HETATM   14  H   UNL     1      -9.355  13.297  68.605  1.00  0.00     0.000 HD 
BRANCH  13  15
HETATM   15  C   UNL     1     -11.684  12.173  68.979  1.00  0.00    -0.322 C  
BRANCH  15  16
HETATM   16  C   UNL     1     -11.756  11.129  70.013  1.00  0.00    -0.356 A  
HETATM   17  C   UNL     1     -12.698   9.971  71.643  1.00  0.00    -0.435 A  
HETATM   18  N   UNL     1     -13.729   9.661  72.542  1.00  0.00    -0.684 NA 
HETATM   19  H2  UNL     1     -13.305   9.597  73.467  1.00  0.00     0.000 HD 
HETATM   20  C   UNL     1     -10.786  10.156  70.221  1.00  0.00    -0.310 A  
HETATM   21  H1  UNL     1     -14.589  10.200  72.648  1.00  0.00     0.000 HD 
HETATM   22  S   UNL     1     -11.274   9.078  71.467  1.00  0.00    -0.373 SA 
HETATM   23  N   UNL     1     -12.849  11.017  70.881  1.00  0.00    -0.327 NA 
ENDBRANCH  15  16
BRANCH  15  24
HETATM   24  N   UNL     1     -12.011  11.800  67.773  1.00  0.00    -0.600 NA 
HETATM   25  H   UNL     1     -12.329  10.859  67.536  1.00  0.00     0.000 HD 
BRANCH  24  26
HETATM   26  O   UNL     1     -11.879  12.831  66.840  1.00  0.00    -0.376 OA 
HETATM   27  O   UNL     1     -10.217  14.393  65.703  1.00  0.00    -0.314 OA 
HETATM   28  O   UNL     1     -10.154  13.306  63.737  1.00  0.00    -0.162 OA 
HETATM   29  C   UNL     1     -10.733  11.025  65.569  1.00  0.00    -0.218 C  
HETATM   30  C   UNL     1     -12.783  12.239  64.685  1.00  0.00    -0.275 C  
HETATM   31  C   UNL     1     -11.515  12.344  65.525  1.00  0.00    -0.361 C  
HETATM   32  C   UNL     1     -10.591  13.453  65.007  1.00  0.00    -0.358 C  
ENDBRANCH  24  26
ENDBRANCH  15  24
ENDBRANCH  13  15
ENDBRANCH   3  11
TORSDOF 5
ENDMDL
MODEL       11
REMARK 921   NORMALIZED FREE ENERGY PREDICTED BY IDOCK:   -7.25 KCAL/MOL
REMARK 922        TOTAL FREE ENERGY PREDICTED BY IDOCK:  -10.51 KCAL/MOL
REMARK 923 INTER-LIGAND FREE ENERGY PREDICTED BY IDOCK:   -9.25 KCAL/MOL
REMARK 924 INTRA-LIGAND FREE ENERGY PREDICTED BY IDOCK:   -1.27 KCAL/MOL
REMARK 927      BINDING AFFINITY PREDICTED BY RF-SCORE:    0.00 PKD
ROOT
HETATM    1  C   UNL     1     -10.021  11.143  63.371  1.00  0.00    -0.430 C  
HETATM    2  C   UNL     1     -10.885  10.973  64.600  1.00  0.00    -0.178 C  
HETATM    3  C   UNL     1     -10.087  10.721  65.919  1.00  0.00    -0.256 C  
HETATM    4  O   UNL     1     -12.414  13.258  63.258  1.00  0.00    -0.736 OA 
HETATM    5  C   UNL     1     -10.939  11.941  66.467  1.00  0.00    -0.292 C  
HETATM    6  N   UNL     1     -11.399  12.206  65.191  1.00  0.00    -0.326 N  
HETATM    7  O   UNL     1     -13.140  13.895  65.503  1.00  0.00    -0.699 OA 
HETATM    8  O   UNL     1     -10.890  14.529  64.701  1.00  0.00    -0.391 OA 
HETATM    9  O   UNL     1     -11.148  12.517  67.506  1.00  0.00    -0.243 OA 
HETATM   10  S   UNL     1     -12.019  13.613  64.621  1.00  0.00    -0.429 S  
ENDROOT
BRANCH   3  11
HETATM   11  N   UNL     1     -10.233   9.406  66.618  1.00  0.00    -0.258 N  
HETATM   12  O   UNL     1      -8.371   9.555  67.976  1.00  0.00    -0.117 OA 
HETATM   13  C   UNL     1      -9.404   8.989  67.644  1.00  0.00    -0.136 C  
HETATM   14  H   UNL     1     -10.984   8.783  66.322  1.00  0.00     0.000 HD 
BRANCH  13  15
HETATM   15  C   UNL     1      -9.792   7.713  68.386  1.00  0.00    -0.166 C  
BRANCH  15  16
HETATM   16  C   UNL     1      -9.820   6.435  67.658  1.00  0.00    -0.121 A  
HETATM   17  C   UNL     1     -10.565   4.981  66.170  1.00  0.00    -0.265 A  
HETATM   18  N   UNL     1     -11.427   4.539  65.156  1.00  0.00    -1.109 NA 
HETATM   19  H2  UNL     1     -11.755   3.613  65.429  1.00  0.00     0.000 HD 
HETATM   20  C   UNL     1      -8.877   5.424  67.802  1.00  0.00    -0.105 A  
HETATM   21  H1  UNL     1     -12.242   5.053  64.820  1.00  0.00     0.000 HD 
HETATM   22  S   UNL     1      -9.215   4.129  66.725  1.00  0.00    -0.171 SA 
HETATM   23  N   UNL     1     -10.815   6.136  66.720  1.00  0.00    -0.321 NA 
ENDBRANCH  15  16
BRANCH  15  24
HETATM   24  N   UNL     1     -10.100   7.652  69.652  1.00  0.00    -0.190 NA 
HETATM   25  H   UNL     1      -9.431   7.421  70.388  1.00  0.00     0.000 HD 
BRANCH  24  26
HETATM   26  O   UNL     1     -11.446   7.939  69.889  1.00  0.00    -0.051 OA 
HETATM   27  O   UNL     1     -13.472   7.331  71.311  1.00  0.00    -0.369 OA 
HETATM   28  O   UNL     1     -13.388   9.131  72.652  1.00  0.00    -0.454 OA 
HETATM   29  C   UNL     1     -10.492   8.835  72.005  1.00  0.00    -0.414 C  
HETATM   30  C   UNL     1     -11.814  10.270  70.378  1.00  0.00    -0.396 C  
HETATM   31  C   UNL     1     -11.628   8.880  70.975  1.00  0.00    -0.293 C  
HETATM   32  C   UNL     1     -12.918   8.377  71.635  1.00  0.00    -0.334 C  
ENDBRANCH  24  26
ENDBRANCH  15  24
ENDBRANCH  13  15
ENDBRANCH   3  11
TORSDOF 5
ENDMDL
MODEL       12
REMARK 921   NORMALIZED FREE ENERGY PREDICTED BY IDOCK:   -7.23 KCAL/MOL
REMARK 922        TOTAL FREE ENERGY PREDICTED BY IDOCK:  -10.49 KCAL/MOL
REMARK 923 INTER-LIGAND FREE ENERGY PREDICTED BY IDOCK:   -9.43 KCAL/MOL
REMARK 924 INTRA-LIGAND FREE ENERGY PREDICTED BY IDOCK:   -1.06 KCAL/MOL
REMARK 927      BINDING AFFINITY PREDICTED BY RF-SCORE:    0.00 PKD
ROOT
HETATM    1  C   UNL     1     -10.888  16.386  70.122  1.00  0.00    -0.265 C  
HETATM    2  C   UNL     1     -10.363  15.554  68.974  1.00  0.00    -0.235 C  
HETATM    3  C   UNL     1     -11.434  14.644  68.294  1.00  0.00    -0.314 C  
HETATM    4  O   UNL     1      -8.878  18.164  68.386  1.00  0.00    -0.283 OA 
HETATM    5  C   UNL     1     -10.941  15.349  66.962  1.00  0.00    -0.306 C  
HETATM    6  N   UNL     1     -10.204  16.254  67.702  1.00  0.00    -0.266 N  
HETATM    7  O   UNL     1      -8.867  17.459  66.045  1.00  0.00    -0.498 OA 
HETATM    8  O   UNL     1     -10.893  18.481  67.023  1.00  0.00    -0.364 OA 
HETATM    9  O   UNL     1     -11.098  15.261  65.769  1.00  0.00    -0.338 OA 
HETATM   10  S   UNL     1      -9.664  17.729  67.231  1.00  0.00    -0.295 S  
ENDROOT
BRANCH   3  11
HETATM   11  N   UNL     1     -11.291  13.158  68.385  1.00  0.00    -0.268 N  
HETATM   12  O   UNL     1     -12.200  12.873  70.489  1.00  0.00    -0.368 OA 
HETATM   13  C   UNL     1     -11.769  12.406  69.443  1.00  0.00    -0.322 C  
HETATM   14  H   UNL     1     -10.815  12.672  67.625  1.00  0.00     0.000 HD 
BRANCH  13  15
HETATM   15  C   UNL     1     -11.720  10.887  69.305  1.00  0.00    -0.324 C  
BRANCH  15  16
HETATM   16  C   UNL     1     -11.938  10.046  70.492  1.00  0.00    -0.272 A  
HETATM   17  C   UNL     1     -13.121   9.115  72.110  1.00  0.00    -0.446 A  
HETATM   18  N   UNL     1     -14.294   8.871  72.839  1.00  0.00    -1.124 NA 
HETATM   19  H2  UNL     1     -14.067   9.019  73.823  1.00  0.00     0.000 HD 
HETATM   20  C   UNL     1     -10.973   9.229  71.068  1.00  0.00    -0.320 A  
HETATM   21  H1  UNL     1     -15.189   9.331  72.672  1.00  0.00     0.000 HD 
HETATM   22  S   UNL     1     -11.639   8.352  72.387  1.00  0.00    -0.353 SA 
HETATM   23  N   UNL     1     -13.177   9.985  71.141  1.00  0.00    -0.389 NA 
ENDBRANCH  15  16
BRANCH  15  24
HETATM   24  N   UNL     1     -11.505  10.247  68.188  1.00  0.00    -0.633 NA 
HETATM   25  H   UNL     1     -12.209   9.680  67.715  1.00  0.00     0.000 HD 
BRANCH  24  26
HETATM   26  O   UNL     1     -10.204  10.425  67.712  1.00  0.00    -0.176 OA 
HETATM   27  O   UNL     1      -7.766   9.766  68.055  1.00  0.00    -0.083 OA 
HETATM   28  O   UNL     1      -7.647   8.333  66.329  1.00  0.00    -0.092 OA 
HETATM   29  C   UNL     1     -10.531   8.054  67.033  1.00  0.00    -0.410 C  
HETATM   30  C   UNL     1     -10.006   9.901  65.368  1.00  0.00    -0.349 C  
HETATM   31  C   UNL     1      -9.806   9.383  66.788  1.00  0.00    -0.218 C  
HETATM   32  C   UNL     1      -8.317   9.204  67.113  1.00  0.00    -0.117 C  
ENDBRANCH  24  26
ENDBRANCH  15  24
ENDBRANCH  13  15
ENDBRANCH   3  11
TORSDOF 5
ENDMDL
MODEL       13
REMARK 921   NORMALIZED FREE ENERGY PREDICTED BY IDOCK:   -7.19 KCAL/MOL
REMARK 922        TOTAL FREE ENERGY PREDICTED BY IDOCK:  -10.44 KCAL/MOL
REMARK 923 INTER-LIGAND FREE ENERGY PREDICTED BY IDOCK:   -9.59 KCAL/MOL
REMARK 924 INTRA-LIGAND FREE ENERGY PREDICTED BY IDOCK:   -0.85 KCAL/MOL
REMARK 927      BINDING AFFINITY PREDICTED BY RF-SCORE:    0.00 PKD
ROOT
HETATM    1  C   UNL     1     -10.516  13.268  64.541  1.00  0.00    -0.434 C  
HETATM    2  C   UNL     1     -10.442  13.058  66.037  1.00  0.00    -0.279 C  
HETATM    3  C   UNL     1     -11.821  13.127  66.766  1.00  0.00    -0.385 C  
HETATM    4  O   UNL     1      -8.426  10.930  65.160  1.00  0.00    -0.143 OA 
HETATM    5  C   UNL     1     -11.391  11.718  67.351  1.00  0.00    -0.311 C  
HETATM    6  N   UNL     1     -10.320  11.672  66.479  1.00  0.00    -0.218 N  
HETATM    7  O   UNL     1      -9.010   9.742  67.215  1.00  0.00    -0.134 OA 
HETATM    8  O   UNL     1     -10.482   9.592  65.235  1.00  0.00     0.160 OA 
HETATM    9  O   UNL     1     -11.768  10.912  68.165  1.00  0.00    -0.506 OA 
HETATM   10  S   UNL     1      -9.487  10.349  65.983  1.00  0.00    -0.197 S  
ENDROOT
BRANCH   3  11
HETATM   11  N   UNL     1     -12.076  14.233  67.741  1.00  0.00    -0.576 N  
HETATM   12  O   UNL     1     -10.207  13.933  69.064  1.00  0.00    -0.179 OA 
HETATM   13  C   UNL     1     -11.195  14.583  68.748  1.00  0.00    -0.261 C  
HETATM   14  H   UNL     1     -12.947  14.757  67.659  1.00  0.00     0.000 HD 
BRANCH  13  15
HETATM   15  C   UNL     1     -11.501  15.850  69.541  1.00  0.00    -0.342 C  
BRANCH  15  16
HETATM   16  C   UNL     1     -12.179  15.741  70.842  1.00  0.00    -0.413 A  
HETATM   17  C   UNL     1     -12.492  16.155  72.991  1.00  0.00    -0.491 A  
HETATM   18  N   UNL     1     -12.173  16.738  74.226  1.00  0.00    -0.544 NA 
HETATM   19  H2  UNL     1     -12.190  15.990  74.919  1.00  0.00     0.000 HD 
HETATM   20  C   UNL     1     -13.379  15.073  71.053  1.00  0.00    -0.419 A  
HETATM   21  H1  UNL     1     -11.336  17.291  74.408  1.00  0.00     0.000 HD 
HETATM   22  S   UNL     1     -13.880  15.240  72.688  1.00  0.00    -0.453 SA 
HETATM   23  N   UNL     1     -11.666  16.339  72.000  1.00  0.00    -0.499 NA 
ENDBRANCH  15  16
BRANCH  15  24
HETATM   24  N   UNL     1     -11.196  17.059  69.160  1.00  0.00    -0.195 NA 
HETATM   25  H   UNL     1     -11.400  17.896  69.708  1.00  0.00     0.000 HD 
BRANCH  24  26
HETATM   26  O   UNL     1     -10.559  17.083  67.917  1.00  0.00    -0.345 OA 
HETATM   27  O   UNL     1     -10.600  18.121  65.590  1.00  0.00    -0.611 OA 
HETATM   28  O   UNL     1      -8.887  19.538  65.915  1.00  0.00    -0.412 OA 
HETATM   29  C   UNL     1      -9.950  19.367  68.696  1.00  0.00    -0.527 C  
HETATM   30  C   UNL     1      -8.213  17.609  68.100  1.00  0.00    -0.257 C  
HETATM   31  C   UNL     1      -9.602  18.166  67.807  1.00  0.00    -0.286 C  
HETATM   32  C   UNL     1      -9.740  18.580  66.336  1.00  0.00    -0.336 C  
ENDBRANCH  24  26
ENDBRANCH  15  24
ENDBRANCH  13  15
ENDBRANCH   3  11
TORSDOF 5
ENDMDL
MODEL       14
REMARK 921   NORMALIZED FREE ENERGY PREDICTED BY IDOCK:   -7.18 KCAL/MOL
REMARK 922        TOTAL FREE ENERGY PREDICTED BY IDOCK:  -10.42 KCAL/MOL
REMARK 923 INTER-LIGAND FREE ENERGY PREDICTED BY IDOCK:   -8.94 KCAL/MOL
REMARK 924 INTRA-LIGAND FREE ENERGY PREDICTED BY IDOCK:   -1.48 KCAL/MOL
REMARK 927      BINDING AFFINITY PREDICTED BY RF-SCORE:    0.00 PKD
ROOT
HETATM    1  C   UNL     1      -7.694  11.115  66.904  1.00  0.00    -0.148 C  
HETATM    2  C   UNL     1      -8.703  11.230  68.025  1.00  0.00    -0.144 C  
HETATM    3  C   UNL     1      -9.855  12.248  67.754  1.00  0.00    -0.201 C  
HETATM    4  O   UNL     1      -8.297   8.197  68.061  1.00  0.00    -0.127 OA 
HETATM    5  C   UNL     1     -10.794  11.020  68.108  1.00  0.00    -0.226 C  
HETATM    6  N   UNL     1      -9.705  10.170  68.089  1.00  0.00    -0.139 N  
HETATM    7  O   UNL     1     -10.564   8.052  68.961  1.00  0.00    -0.215 OA 
HETATM    8  O   UNL     1     -10.211   8.372  66.537  1.00  0.00    -0.293 OA 
HETATM    9  O   UNL     1     -11.963  10.787  68.293  1.00  0.00    -0.520 OA 
HETATM   10  S   UNL     1      -9.709   8.542  67.893  1.00  0.00    -0.169 S  
ENDROOT
BRANCH   3  11
HETATM   11  N   UNL     1      -9.963  13.471  68.610  1.00  0.00    -0.366 N  
HETATM   12  O   UNL     1     -12.012  14.217  67.850  1.00  0.00    -0.356 OA 
HETATM   13  C   UNL     1     -11.076  14.292  68.635  1.00  0.00    -0.253 C  
HETATM   14  H   UNL     1      -9.172  13.712  69.208  1.00  0.00     0.000 HD 
BRANCH  13  15
HETATM   15  C   UNL     1     -11.116  15.389  69.695  1.00  0.00    -0.276 C  
BRANCH  15  16
HETATM   16  C   UNL     1     -11.954  15.207  70.890  1.00  0.00    -0.328 A  
HETATM   17  C   UNL     1     -13.280  14.102  72.271  1.00  0.00    -0.447 A  
HETATM   18  N   UNL     1     -14.019  12.987  72.694  1.00  0.00    -0.729 NA 
HETATM   19  H2  UNL     1     -14.956  13.322  72.920  1.00  0.00     0.000 HD 
HETATM   20  C   UNL     1     -12.085  16.140  71.911  1.00  0.00    -0.476 A  
HETATM   21  H1  UNL     1     -14.135  12.129  72.155  1.00  0.00     0.000 HD 
HETATM   22  S   UNL     1     -13.088  15.524  73.163  1.00  0.00    -0.579 SA 
HETATM   23  N   UNL     1     -12.689  14.036  71.111  1.00  0.00    -0.345 NA 
ENDBRANCH  15  16
BRANCH  15  24
HETATM   24  N   UNL     1     -10.443  16.504  69.638  1.00  0.00    -0.295 NA 
HETATM   25  H   UNL     1     -10.740  17.370  70.091  1.00  0.00     0.000 HD 
BRANCH  24  26
HETATM   26  O   UNL     1      -9.271  16.384  68.888  1.00  0.00    -0.241 OA 
HETATM   27  O   UNL     1      -8.302  15.556  66.681  1.00  0.00    -0.255 OA 
HETATM   28  O   UNL     1      -8.092  17.578  65.723  1.00  0.00    -0.551 OA 
HETATM   29  C   UNL     1     -10.435  18.088  67.497  1.00  0.00    -0.408 C  
HETATM   30  C   UNL     1      -8.168  18.503  68.567  1.00  0.00    -0.360 C  
HETATM   31  C   UNL     1      -9.104  17.472  67.946  1.00  0.00    -0.261 C  
HETATM   32  C   UNL     1      -8.450  16.773  66.747  1.00  0.00    -0.234 C  
ENDBRANCH  24  26
ENDBRANCH  15  24
ENDBRANCH  13  15
ENDBRANCH   3  11
TORSDOF 5
ENDMDL
MODEL       15
REMARK 921   NORMALIZED FREE ENERGY PREDICTED BY IDOCK:   -7.15 KCAL/MOL
REMARK 922        TOTAL FREE ENERGY PREDICTED BY IDOCK:  -10.39 KCAL/MOL
REMARK 923 INTER-LIGAND FREE ENERGY PREDICTED BY IDOCK:   -9.65 KCAL/MOL
REMARK 924 INTRA-LIGAND FREE ENERGY PREDICTED BY IDOCK:   -0.74 KCAL/MOL
REMARK 927      BINDING AFFINITY PREDICTED BY RF-SCORE:    0.00 PKD
ROOT
HETATM    1  C   UNL     1     -13.400  10.079  72.085  1.00  0.00    -0.469 C  
HETATM    2  C   UNL     1     -12.690   9.929  70.758  1.00  0.00    -0.224 C  
HETATM    3  C   UNL     1     -11.417  10.821  70.603  1.00  0.00    -0.219 C  
HETATM    4  O   UNL     1     -13.371   6.990  71.266  1.00  0.00    -0.346 OA 
HETATM    5  C   UNL     1     -10.711   9.452  70.230  1.00  0.00    -0.253 C  
HETATM    6  N   UNL     1     -11.836   8.752  70.623  1.00  0.00    -0.180 N  
HETATM    7  O   UNL     1     -11.415   6.454  69.901  1.00  0.00    -0.404 OA 
HETATM    8  O   UNL     1     -11.134   7.108  72.267  1.00  0.00    -0.236 OA 
HETATM    9  O   UNL     1      -9.650   9.053  69.818  1.00  0.00    -0.165 OA 
HETATM   10  S   UNL     1     -11.935   7.173  71.053  1.00  0.00    -0.343 S  
ENDROOT
BRANCH   3  11
HETATM   11  N   UNL     1     -11.409  11.907  69.574  1.00  0.00    -0.402 N  
HETATM   12  O   UNL     1     -11.776  10.592  67.712  1.00  0.00    -0.438 OA 
HETATM   13  C   UNL     1     -11.676  11.694  68.234  1.00  0.00    -0.304 C  
HETATM   14  H   UNL     1     -11.195  12.857  69.878  1.00  0.00     0.000 HD 
BRANCH  13  15
HETATM   15  C   UNL     1     -11.820  12.924  67.342  1.00  0.00    -0.360 C  
BRANCH  15  16
HETATM   16  C   UNL     1     -11.616  12.791  65.891  1.00  0.00    -0.382 A  
HETATM   17  C   UNL     1     -10.473  12.362  64.049  1.00  0.00    -0.416 A  
HETATM   18  N   UNL     1      -9.323  12.007  63.328  1.00  0.00    -0.668 NA 
HETATM   19  H2  UNL     1      -9.206  12.707  62.595  1.00  0.00     0.000 HD 
HETATM   20  C   UNL     1     -12.621  12.913  64.939  1.00  0.00    -0.458 A  
HETATM   21  H1  UNL     1      -8.403  11.855  63.740  1.00  0.00     0.000 HD 
HETATM   22  S   UNL     1     -11.998  12.613  63.366  1.00  0.00    -0.466 SA 
HETATM   23  N   UNL     1     -10.362  12.500  65.340  1.00  0.00    -0.278 NA 
ENDBRANCH  15  16
BRANCH  15  24
HETATM   24  N   UNL     1     -12.127  14.119  67.765  1.00  0.00    -0.545 NA 
HETATM   25  H   UNL     1     -12.978  14.334  68.285  1.00  0.00     0.000 HD 
BRANCH  24  26
HETATM   26  O   UNL     1     -11.163  15.071  67.425  1.00  0.00    -0.319 OA 
HETATM   27  O   UNL     1     -10.776  17.543  66.942  1.00  0.00    -0.255 OA 
HETATM   28  O   UNL     1      -9.822  18.038  68.915  1.00  0.00    -0.352 OA 
HETATM   29  C   UNL     1     -11.619  15.812  69.756  1.00  0.00    -0.359 C  
HETATM   30  C   UNL     1      -9.312  15.091  68.969  1.00  0.00    -0.206 C  
HETATM   31  C   UNL     1     -10.630  15.755  68.585  1.00  0.00    -0.250 C  
HETATM   32  C   UNL     1     -10.406  17.177  68.055  1.00  0.00    -0.353 C  
ENDBRANCH  24  26
ENDBRANCH  15  24
ENDBRANCH  13  15
ENDBRANCH   3  11
TORSDOF 5
ENDMDL
MODEL       16
REMARK 921   NORMALIZED FREE ENERGY PREDICTED BY IDOCK:   -7.14 KCAL/MOL
REMARK 922        TOTAL FREE ENERGY PREDICTED BY IDOCK:  -10.38 KCAL/MOL
REMARK 923 INTER-LIGAND FREE ENERGY PREDICTED BY IDOCK:   -9.33 KCAL/MOL
REMARK 924 INTRA-LIGAND FREE ENERGY PREDICTED BY IDOCK:   -1.05 KCAL/MOL
REMARK 927      BINDING AFFINITY PREDICTED BY RF-SCORE:    0.00 PKD
ROOT
HETATM    1  C   UNL     1      -9.919  11.346  63.361  1.00  0.00    -0.435 C  
HETATM    2  C   UNL     1     -10.877  11.139  64.513  1.00  0.00    -0.250 C  
HETATM    3  C   UNL     1     -10.185  10.851  65.883  1.00  0.00    -0.257 C  
HETATM    4  O   UNL     1     -12.309  13.455  63.118  1.00  0.00    -0.668 OA 
HETATM    5  C   UNL     1     -11.085  12.052  66.396  1.00  0.00    -0.318 C  
HETATM    6  N   UNL     1     -11.444  12.352  65.095  1.00  0.00    -0.323 N  
HETATM    7  O   UNL     1     -13.214  14.025  65.316  1.00  0.00    -0.782 OA 
HETATM    8  O   UNL     1     -10.912  14.690  64.713  1.00  0.00    -0.392 OA 
HETATM    9  O   UNL     1     -11.379  12.598  67.431  1.00  0.00    -0.276 OA 
HETATM   10  S   UNL     1     -12.025  13.772  64.518  1.00  0.00    -0.443 S  
ENDROOT
BRANCH   3  11
HETATM   11  N   UNL     1     -10.378   9.517  66.531  1.00  0.00    -0.224 N  
HETATM   12  O   UNL     1      -9.398  10.001  68.566  1.00  0.00    -0.139 OA 
HETATM   13  C   UNL     1     -10.040   9.248  67.845  1.00  0.00    -0.200 C  
HETATM   14  H   UNL     1     -10.779   8.763  65.973  1.00  0.00     0.000 HD 
BRANCH  13  15
HETATM   15  C   UNL     1     -10.471   7.902  68.420  1.00  0.00    -0.166 C  
BRANCH  15  16
HETATM   16  C   UNL     1     -10.178   6.670  67.672  1.00  0.00    -0.177 A  
HETATM   17  C   UNL     1     -10.552   5.083  66.180  1.00  0.00    -0.265 A  
HETATM   18  N   UNL     1     -11.296   4.435  65.183  1.00  0.00    -1.082 NA 
HETATM   19  H2  UNL     1     -11.354   3.452  65.449  1.00  0.00     0.000 HD 
HETATM   20  C   UNL     1      -8.994   5.949  67.771  1.00  0.00    -0.111 A  
HETATM   21  H1  UNL     1     -12.229   4.714  64.880  1.00  0.00     0.000 HD 
HETATM   22  S   UNL     1      -9.006   4.621  66.681  1.00  0.00    -0.116 SA 
HETATM   23  N   UNL     1     -11.085   6.123  66.757  1.00  0.00    -0.272 NA 
ENDBRANCH  15  16
BRANCH  15  24
HETATM   24  N   UNL     1     -11.086   7.741  69.559  1.00  0.00    -0.445 NA 
HETATM   25  H   UNL     1     -12.101   7.758  69.663  1.00  0.00     0.000 HD 
BRANCH  24  26
HETATM   26  O   UNL     1     -10.201   7.543  70.622  1.00  0.00    -0.201 OA 
HETATM   27  O   UNL     1      -9.451   8.442  72.885  1.00  0.00    -0.261 OA 
HETATM   28  O   UNL     1     -10.479   6.879  74.130  1.00  0.00    -0.357 OA 
HETATM   29  C   UNL     1     -12.322   6.968  71.787  1.00  0.00    -0.391 C  
HETATM   30  C   UNL     1     -10.387   5.335  71.570  1.00  0.00    -0.287 C  
HETATM   31  C   UNL     1     -10.800   6.796  71.708  1.00  0.00    -0.229 C  
HETATM   32  C   UNL     1     -10.162   7.443  72.945  1.00  0.00    -0.261 C  
ENDBRANCH  24  26
ENDBRANCH  15  24
ENDBRANCH  13  15
ENDBRANCH   3  11
TORSDOF 5
ENDMDL
MODEL       17
REMARK 921   NORMALIZED FREE ENERGY PREDICTED BY IDOCK:   -7.12 KCAL/MOL
REMARK 922        TOTAL FREE ENERGY PREDICTED BY IDOCK:  -10.35 KCAL/MOL
REMARK 923 INTER-LIGAND FREE ENERGY PREDICTED BY IDOCK:   -9.48 KCAL/MOL
REMARK 924 INTRA-LIGAND FREE ENERGY PREDICTED BY IDOCK:   -0.86 KCAL/MOL
REMARK 927      BINDING AFFINITY PREDICTED BY RF-SCORE:    0.00 PKD
ROOT
HETATM    1  C   UNL     1     -12.999   7.881  71.657  1.00  0.00    -0.359 C  
HETATM    2  C   UNL     1     -11.591   8.128  71.164  1.00  0.00    -0.279 C  
HETATM    3  C   UNL     1     -11.022   9.538  71.518  1.00  0.00    -0.299 C  
HETATM    4  O   UNL     1     -11.264   5.233  72.097  1.00  0.00    -0.181 OA 
HETATM    5  C   UNL     1      -9.811   8.711  72.121  1.00  0.00    -0.317 C  
HETATM    6  N   UNL     1     -10.523   7.537  71.966  1.00  0.00    -0.204 N  
HETATM    7  O   UNL     1      -8.905   5.767  72.450  1.00  0.00    -0.131 OA 
HETATM    8  O   UNL     1     -10.592   6.434  74.128  1.00  0.00    -0.283 OA 
HETATM    9  O   UNL     1      -8.715   8.902  72.588  1.00  0.00    -0.373 OA 
HETATM   10  S   UNL     1     -10.288   6.111  72.741  1.00  0.00    -0.209 S  
ENDROOT
BRANCH   3  11
HETATM   11  N   UNL     1     -10.720  10.501  70.413  1.00  0.00    -0.436 N  
HETATM   12  O   UNL     1     -12.886  10.863  69.698  1.00  0.00    -0.197 OA 
HETATM   13  C   UNL     1     -11.693  11.137  69.665  1.00  0.00    -0.339 C  
HETATM   14  H   UNL     1      -9.742  10.698  70.200  1.00  0.00     0.000 HD 
BRANCH  13  15
HETATM   15  C   UNL     1     -11.238  12.233  68.705  1.00  0.00    -0.265 C  
BRANCH  15  16
HETATM   16  C   UNL     1     -11.204  13.629  69.167  1.00  0.00    -0.261 A  
HETATM   17  C   UNL     1     -11.824  15.360  70.394  1.00  0.00    -0.335 A  
HETATM   18  N   UNL     1     -12.601  16.008  71.365  1.00  0.00    -0.559 NA 
HETATM   19  H2  UNL     1     -12.947  16.869  70.941  1.00  0.00     0.000 HD 
HETATM   20  C   UNL     1     -10.272  14.574  68.755  1.00  0.00    -0.244 A  
HETATM   21  H1  UNL     1     -13.388  15.585  71.857  1.00  0.00     0.000 HD 
HETATM   22  S   UNL     1     -10.520  16.061  69.580  1.00  0.00    -0.305 SA 
HETATM   23  N   UNL     1     -12.120  14.125  70.102  1.00  0.00    -0.325 NA 
ENDBRANCH  15  16
BRANCH  15  24
HETATM   24  N   UNL     1     -10.853  12.033  67.475  1.00  0.00    -0.231 NA 
HETATM   25  H   UNL     1      -9.902  11.772  67.214  1.00  0.00     0.000 HD 
BRANCH  24  26
HETATM   26  O   UNL     1     -11.888  12.214  66.555  1.00  0.00    -0.569 OA 
HETATM   27  O   UNL     1     -13.509  13.917  65.572  1.00  0.00    -0.657 OA 
HETATM   28  O   UNL     1     -12.425  14.202  63.625  1.00  0.00    -0.819 OA 
HETATM   29  C   UNL     1     -10.125  13.538  65.403  1.00  0.00    -0.279 C  
HETATM   30  C   UNL     1     -11.263  11.537  64.328  1.00  0.00    -0.358 C  
HETATM   31  C   UNL     1     -11.414  12.716  65.282  1.00  0.00    -0.331 C  
HETATM   32  C   UNL     1     -12.556  13.644  64.847  1.00  0.00    -0.336 C  
ENDBRANCH  24  26
ENDBRANCH  15  24
ENDBRANCH  13  15
ENDBRANCH   3  11
TORSDOF 5
ENDMDL
MODEL       18
REMARK 921   NORMALIZED FREE ENERGY PREDICTED BY IDOCK:   -7.09 KCAL/MOL
REMARK 922        TOTAL FREE ENERGY PREDICTED BY IDOCK:  -10.31 KCAL/MOL
REMARK 923 INTER-LIGAND FREE ENERGY PREDICTED BY IDOCK:   -9.05 KCAL/MOL
REMARK 924 INTRA-LIGAND FREE ENERGY PREDICTED BY IDOCK:   -1.26 KCAL/MOL
REMARK 927      BINDING AFFINITY PREDICTED BY RF-SCORE:    0.00 PKD
ROOT
HETATM    1  C   UNL     1     -13.270  10.280  72.011  1.00  0.00    -0.516 C  
HETATM    2  C   UNL     1     -12.629  10.069  70.658  1.00  0.00    -0.220 C  
HETATM    3  C   UNL     1     -11.341  10.918  70.415  1.00  0.00    -0.200 C  
HETATM    4  O   UNL     1     -13.367   7.168  71.288  1.00  0.00    -0.368 OA 
HETATM    5  C   UNL     1     -10.692   9.518  70.051  1.00  0.00    -0.243 C  
HETATM    6  N   UNL     1     -11.816   8.864  70.519  1.00  0.00    -0.126 N  
HETATM    7  O   UNL     1     -11.496   6.534  69.849  1.00  0.00    -0.390 OA 
HETATM    8  O   UNL     1     -11.082   7.250  72.178  1.00  0.00    -0.231 OA 
HETATM    9  O   UNL     1      -9.664   9.076  69.602  1.00  0.00    -0.165 OA 
HETATM   10  S   UNL     1     -11.939   7.302  71.002  1.00  0.00    -0.315 S  
ENDROOT
BRANCH   3  11
HETATM   11  N   UNL     1     -11.352  11.973  69.354  1.00  0.00    -0.364 N  
HETATM   12  O   UNL     1     -12.580  13.564  70.491  1.00  0.00    -0.304 OA 
HETATM   13  C   UNL     1     -11.900  13.230  69.530  1.00  0.00    -0.327 C  
HETATM   14  H   UNL     1     -10.933  11.751  68.450  1.00  0.00     0.000 HD 
BRANCH  13  15
HETATM   15  C   UNL     1     -11.666  14.259  68.427  1.00  0.00    -0.338 C  
BRANCH  15  16
HETATM   16  C   UNL     1     -10.525  15.181  68.530  1.00  0.00    -0.233 A  
HETATM   17  C   UNL     1      -8.418  15.745  68.892  1.00  0.00    -0.218 A  
HETATM   18  N   UNL     1      -7.082  15.491  69.233  1.00  0.00    -0.170 NA 
HETATM   19  H2  UNL     1      -6.824  16.171  69.948  1.00  0.00     0.000 HD 
HETATM   20  C   UNL     1     -10.566  16.529  68.195  1.00  0.00    -0.329 A  
HETATM   21  H1  UNL     1      -6.722  14.588  69.542  1.00  0.00     0.000 HD 
HETATM   22  S   UNL     1      -9.013  17.241  68.379  1.00  0.00    -0.273 SA 
HETATM   23  N   UNL     1      -9.264  14.756  68.966  1.00  0.00    -0.178 NA 
ENDBRANCH  15  16
BRANCH  15  24
HETATM   24  N   UNL     1     -12.407  14.390  67.362  1.00  0.00    -0.600 NA 
HETATM   25  H   UNL     1     -12.959  15.223  67.155  1.00  0.00     0.000 HD 
BRANCH  24  26
HETATM   26  O   UNL     1     -12.362  13.264  66.537  1.00  0.00    -0.358 OA 
HETATM   27  O   UNL     1     -13.384  12.165  64.478  1.00  0.00    -0.691 OA 
HETATM   28  O   UNL     1     -11.683  12.615  63.081  1.00  0.00    -0.452 OA 
HETATM   29  C   UNL     1     -11.457  14.939  64.936  1.00  0.00    -0.407 C  
HETATM   30  C   UNL     1     -10.159  12.872  65.643  1.00  0.00    -0.282 C  
HETATM   31  C   UNL     1     -11.534  13.469  65.367  1.00  0.00    -0.302 C  
HETATM   32  C   UNL     1     -12.283  12.675  64.289  1.00  0.00    -0.445 C  
ENDBRANCH  24  26
ENDBRANCH  15  24
ENDBRANCH  13  15
ENDBRANCH   3  11
TORSDOF 5
ENDMDL
MODEL       19
REMARK 921   NORMALIZED FREE ENERGY PREDICTED BY IDOCK:   -7.08 KCAL/MOL
REMARK 922        TOTAL FREE ENERGY PREDICTED BY IDOCK:  -10.30 KCAL/MOL
REMARK 923 INTER-LIGAND FREE ENERGY PREDICTED BY IDOCK:   -9.41 KCAL/MOL
REMARK 924 INTRA-LIGAND FREE ENERGY PREDICTED BY IDOCK:   -0.89 KCAL/MOL
REMARK 927      BINDING AFFINITY PREDICTED BY RF-SCORE:    0.00 PKD
ROOT
HETATM    1  C   UNL     1     -10.353   8.866  71.602  1.00  0.00    -0.416 C  
HETATM    2  C   UNL     1     -10.755   9.293  70.208  1.00  0.00    -0.243 C  
HETATM    3  C   UNL     1      -9.749  10.265  69.516  1.00  0.00    -0.211 C  
HETATM    4  O   UNL     1     -11.559   6.345  70.052  1.00  0.00    -0.425 OA 
HETATM    5  C   UNL     1      -9.793   9.202  68.340  1.00  0.00    -0.164 C  
HETATM    6  N   UNL     1     -10.494   8.325  69.147  1.00  0.00    -0.220 N  
HETATM    7  O   UNL     1     -11.180   6.521  67.644  1.00  0.00    -0.324 OA 
HETATM    8  O   UNL     1      -9.268   6.229  69.181  1.00  0.00    -0.129 OA 
HETATM    9  O   UNL     1      -9.395   9.071  67.209  1.00  0.00    -0.135 OA 
HETATM   10  S   UNL     1     -10.631   6.700  68.978  1.00  0.00    -0.262 S  
ENDROOT
BRANCH   3  11
HETATM   11  N   UNL     1     -10.183  11.662  69.202  1.00  0.00    -0.416 N  
HETATM   12  O   UNL     1     -12.374  11.200  68.636  1.00  0.00    -0.549 OA 
HETATM   13  C   UNL     1     -11.483  12.004  68.875  1.00  0.00    -0.301 C  
HETATM   14  H   UNL     1      -9.482  12.403  69.231  1.00  0.00     0.000 HD 
BRANCH  13  15
HETATM   15  C   UNL     1     -11.813  13.491  68.769  1.00  0.00    -0.355 C  
BRANCH  15  16
HETATM   16  C   UNL     1     -12.006  14.276  69.997  1.00  0.00    -0.334 A  
HETATM   17  C   UNL     1     -12.718  14.653  72.055  1.00  0.00    -0.334 A  
HETATM   18  N   UNL     1     -13.380  14.318  73.246  1.00  0.00    -0.486 NA 
HETATM   19  H2  UNL     1     -14.009  15.091  73.462  1.00  0.00     0.000 HD 
HETATM   20  C   UNL     1     -11.448  15.528  70.229  1.00  0.00    -0.334 A  
HETATM   21  H1  UNL     1     -13.907  13.458  73.395  1.00  0.00     0.000 HD 
HETATM   22  S   UNL     1     -11.844  16.079  71.808  1.00  0.00    -0.520 SA 
HETATM   23  N   UNL     1     -12.771  13.802  71.070  1.00  0.00    -0.346 NA 
ENDBRANCH  15  16
BRANCH  15  24
HETATM   24  N   UNL     1     -11.931  14.149  67.649  1.00  0.00    -0.476 NA 
HETATM   25  H   UNL     1     -12.675  14.823  67.464  1.00  0.00     0.000 HD 
BRANCH  24  26
HETATM   26  O   UNL     1     -10.928  13.829  66.732  1.00  0.00    -0.298 OA 
HETATM   27  O   UNL     1      -9.943  11.956  65.311  1.00  0.00    -0.246 OA 
HETATM   28  O   UNL     1     -10.794  12.652  63.352  1.00  0.00    -0.410 OA 
HETATM   29  C   UNL     1     -12.893  13.663  65.214  1.00  0.00    -0.421 C  
HETATM   30  C   UNL     1     -10.965  15.265  64.796  1.00  0.00    -0.403 C  
HETATM   31  C   UNL     1     -11.386  13.913  65.360  1.00  0.00    -0.309 C  
HETATM   32  C   UNL     1     -10.625  12.764  64.687  1.00  0.00    -0.349 C  
ENDBRANCH  24  26
ENDBRANCH  15  24
ENDBRANCH  13  15
ENDBRANCH   3  11
TORSDOF 5
ENDMDL
MODEL       20
REMARK 921   NORMALIZED FREE ENERGY PREDICTED BY IDOCK:   -7.02 KCAL/MOL
REMARK 922        TOTAL FREE ENERGY PREDICTED BY IDOCK:  -10.22 KCAL/MOL
REMARK 923 INTER-LIGAND FREE ENERGY PREDICTED BY IDOCK:   -9.20 KCAL/MOL
REMARK 924 INTRA-LIGAND FREE ENERGY PREDICTED BY IDOCK:   -1.02 KCAL/MOL
REMARK 927      BINDING AFFINITY PREDICTED BY RF-SCORE:    0.00 PKD
ROOT
HETATM    1  C   UNL     1     -10.899  16.591  69.514  1.00  0.00    -0.315 C  
HETATM    2  C   UNL     1     -10.193  16.008  68.311  1.00  0.00    -0.237 C  
HETATM    3  C   UNL     1     -11.117  15.186  67.357  1.00  0.00    -0.325 C  
HETATM    4  O   UNL     1      -8.836  18.750  68.373  1.00  0.00    -0.322 OA 
HETATM    5  C   UNL     1     -10.528  16.144  66.239  1.00  0.00    -0.315 C  
HETATM    6  N   UNL     1      -9.943  16.934  67.209  1.00  0.00    -0.270 N  
HETATM    7  O   UNL     1      -8.517  18.483  65.964  1.00  0.00    -0.489 OA 
HETATM    8  O   UNL     1     -10.705  19.212  66.852  1.00  0.00    -0.436 OA 
HETATM    9  O   UNL     1     -10.546  16.267  65.039  1.00  0.00    -0.620 OA 
HETATM   10  S   UNL     1      -9.457  18.495  67.073  1.00  0.00    -0.298 S  
ENDROOT
BRANCH   3  11
HETATM   11  N   UNL     1     -10.882  13.717  67.203  1.00  0.00    -0.283 N  
HETATM   12  O   UNL     1     -12.087  13.003  69.039  1.00  0.00    -0.280 OA 
HETATM   13  C   UNL     1     -11.464  12.760  68.014  1.00  0.00    -0.318 C  
HETATM   14  H   UNL     1     -10.258  13.404  66.459  1.00  0.00     0.000 HD 
BRANCH  13  15
HETATM   15  C   UNL     1     -11.283  11.297  67.616  1.00  0.00    -0.292 C  
BRANCH  15  16
HETATM   16  C   UNL     1     -10.588  10.971  66.362  1.00  0.00    -0.251 A  
HETATM   17  C   UNL     1     -10.182  11.097  64.193  1.00  0.00    -0.347 A  
HETATM   18  N   UNL     1     -10.411  11.559  62.889  1.00  0.00    -0.656 NA 
HETATM   19  H2  UNL     1     -10.452  10.736  62.287  1.00  0.00     0.000 HD 
HETATM   20  C   UNL     1      -9.456  10.169  66.272  1.00  0.00    -0.180 A  
HETATM   21  H1  UNL     1     -11.183  12.165  62.614  1.00  0.00     0.000 HD 
HETATM   22  S   UNL     1      -8.901  10.094  64.648  1.00  0.00    -0.215 SA 
HETATM   23  N   UNL     1     -11.010  11.475  65.126  1.00  0.00    -0.267 NA 
ENDBRANCH  15  16
BRANCH  15  24
HETATM   24  N   UNL     1     -11.694  10.278  68.319  1.00  0.00    -0.719 NA 
HETATM   25  H   UNL     1     -12.247   9.511  67.936  1.00  0.00     0.000 HD 
BRANCH  24  26
HETATM   26  O   UNL     1     -11.293  10.354  69.655  1.00  0.00    -0.242 OA 
HETATM   27  O   UNL     1     -11.762   9.493  72.008  1.00  0.00    -0.331 OA 
HETATM   28  O   UNL     1     -10.024   8.072  72.107  1.00  0.00    -0.189 OA 
HETATM   29  C   UNL     1     -10.563   8.024  69.174  1.00  0.00    -0.181 C  
HETATM   30  C   UNL     1      -8.956   9.837  69.941  1.00  0.00    -0.254 C  
HETATM   31  C   UNL     1     -10.378   9.291  70.018  1.00  0.00    -0.217 C  
HETATM   32  C   UNL     1     -10.783   8.987  71.466  1.00  0.00    -0.351 C  
ENDBRANCH  24  26
ENDBRANCH  15  24
ENDBRANCH  13  15
ENDBRANCH   3  11
TORSDOF 5
ENDMDL
MODEL       21
REMARK 921   NORMALIZED FREE ENERGY PREDICTED BY IDOCK:   -7.02 KCAL/MOL
REMARK 922        TOTAL FREE ENERGY PREDICTED BY IDOCK:  -10.22 KCAL/MOL
REMARK 923 INTER-LIGAND FREE ENERGY PREDICTED BY IDOCK:   -9.65 KCAL/MOL
REMARK 924 INTRA-LIGAND FREE ENERGY PREDICTED BY IDOCK:   -0.57 KCAL/MOL
REMARK 927      BINDING AFFINITY PREDICTED BY RF-SCORE:    0.00 PKD
ROOT
HETATM    1  C   UNL     1     -10.106  19.842  68.777  1.00  0.00    -0.523 C  
HETATM    2  C   UNL     1      -9.452  18.534  68.392  1.00  0.00    -0.341 C  
HETATM    3  C   UNL     1      -9.981  17.915  67.060  1.00  0.00    -0.324 C  
HETATM    4  O   UNL     1      -6.976  20.026  69.393  1.00  0.00    -0.291 OA 
HETATM    5  C   UNL     1      -8.445  17.880  66.665  1.00  0.00    -0.258 C  
HETATM    6  N   UNL     1      -8.132  18.640  67.776  1.00  0.00    -0.248 N  
HETATM    7  O   UNL     1      -5.688  18.609  67.874  1.00  0.00    -0.173 OA 
HETATM    8  O   UNL     1      -6.896  20.583  67.005  1.00  0.00    -0.245 OA 
HETATM    9  O   UNL     1      -7.736  17.453  65.788  1.00  0.00    -0.508 OA 
HETATM   10  S   UNL     1      -6.789  19.547  68.024  1.00  0.00    -0.259 S  
ENDROOT
BRANCH   3  11
HETATM   11  N   UNL     1     -10.715  16.613  67.101  1.00  0.00    -0.256 N  
HETATM   12  O   UNL     1     -10.904  16.275  64.825  1.00  0.00    -0.671 OA 
HETATM   13  C   UNL     1     -11.030  15.875  65.975  1.00  0.00    -0.139 C  
HETATM   14  H   UNL     1     -10.999  16.248  68.011  1.00  0.00     0.000 HD 
BRANCH  13  15
HETATM   15  C   UNL     1     -11.608  14.479  66.187  1.00  0.00    -0.365 C  
BRANCH  15  16
HETATM   16  C   UNL     1     -11.462  13.468  65.129  1.00  0.00    -0.301 A  
HETATM   17  C   UNL     1     -12.161  12.107  63.534  1.00  0.00    -0.567 A  
HETATM   18  N   UNL     1     -13.133  11.501  62.725  1.00  0.00    -0.547 NA 
HETATM   19  H2  UNL     1     -12.970  10.495  62.769  1.00  0.00     0.000 HD 
HETATM   20  C   UNL     1     -10.246  12.983  64.663  1.00  0.00    -0.302 A  
HETATM   21  H1  UNL     1     -14.139  11.641  62.821  1.00  0.00     0.000 HD 
HETATM   22  S   UNL     1     -10.495  11.876  63.373  1.00  0.00    -0.406 SA 
HETATM   23  N   UNL     1     -12.568  12.915  64.473  1.00  0.00    -0.656 NA 
ENDBRANCH  15  16
BRANCH  15  24
HETATM   24  N   UNL     1     -12.231  14.087  67.264  1.00  0.00    -0.539 NA 
HETATM   25  H   UNL     1     -12.796  14.705  67.849  1.00  0.00     0.000 HD 
BRANCH  24  26
HETATM   26  O   UNL     1     -12.039  12.729  67.529  1.00  0.00    -0.359 OA 
HETATM   27  O   UNL     1     -10.532  10.725  67.076  1.00  0.00    -0.223 OA 
HETATM   28  O   UNL     1      -9.500  10.729  69.072  1.00  0.00    -0.191 OA 
HETATM   29  C   UNL     1     -10.099  13.638  68.794  1.00  0.00    -0.129 C  
HETATM   30  C   UNL     1     -11.933  12.264  69.892  1.00  0.00    -0.377 C  
HETATM   31  C   UNL     1     -11.119  12.505  68.626  1.00  0.00    -0.265 C  
HETATM   32  C   UNL     1     -10.382  11.234  68.183  1.00  0.00    -0.186 C  
ENDBRANCH  24  26
ENDBRANCH  15  24
ENDBRANCH  13  15
ENDBRANCH   3  11
TORSDOF 5
ENDMDL
MODEL       22
REMARK 921   NORMALIZED FREE ENERGY PREDICTED BY IDOCK:   -7.02 KCAL/MOL
REMARK 922        TOTAL FREE ENERGY PREDICTED BY IDOCK:  -10.22 KCAL/MOL
REMARK 923 INTER-LIGAND FREE ENERGY PREDICTED BY IDOCK:   -8.75 KCAL/MOL
REMARK 924 INTRA-LIGAND FREE ENERGY PREDICTED BY IDOCK:   -1.46 KCAL/MOL
REMARK 927      BINDING AFFINITY PREDICTED BY RF-SCORE:    0.00 PKD
ROOT
HETATM    1  C   UNL     1      -8.136   9.183  69.158  1.00  0.00    -0.105 C  
HETATM    2  C   UNL     1      -9.180   9.828  70.043  1.00  0.00    -0.229 C  
HETATM    3  C   UNL     1     -10.596   9.937  69.395  1.00  0.00    -0.229 C  
HETATM    4  O   UNL     1      -7.757   8.126  72.151  1.00  0.00    -0.101 OA 
HETATM    5  C   UNL     1     -11.073   9.210  70.722  1.00  0.00    -0.275 C  
HETATM    6  N   UNL     1      -9.758   8.969  71.073  1.00  0.00    -0.253 N  
HETATM    7  O   UNL     1      -9.880   8.115  73.362  1.00  0.00    -0.237 OA 
HETATM    8  O   UNL     1      -9.532   6.582  71.455  1.00  0.00    -0.158 OA 
HETATM    9  O   UNL     1     -12.097   8.899  71.276  1.00  0.00    -0.294 OA 
HETATM   10  S   UNL     1      -9.191   7.835  72.113  1.00  0.00    -0.161 S  
ENDROOT
BRANCH   3  11
HETATM   11  N   UNL     1     -11.163  11.291  69.105  1.00  0.00    -0.250 N  
HETATM   12  O   UNL     1      -9.490  12.049  67.707  1.00  0.00    -0.179 OA 
HETATM   13  C   UNL     1     -10.594  12.185  68.217  1.00  0.00    -0.217 C  
HETATM   14  H   UNL     1     -12.017  11.569  69.590  1.00  0.00     0.000 HD 
BRANCH  13  15
HETATM   15  C   UNL     1     -11.387  13.445  67.883  1.00  0.00    -0.289 C  
BRANCH  15  16
HETATM   16  C   UNL     1     -11.692  13.754  66.478  1.00  0.00    -0.385 A  
HETATM   17  C   UNL     1     -11.758  15.012  64.661  1.00  0.00    -0.382 A  
HETATM   18  N   UNL     1     -11.547  16.190  63.931  1.00  0.00    -1.469 NA 
HETATM   19  H2  UNL     1     -12.427  16.409  63.462  1.00  0.00     0.000 HD 
HETATM   20  C   UNL     1     -12.188  12.838  65.558  1.00  0.00    -0.463 A  
HETATM   21  H1  UNL     1     -11.198  17.064  64.325  1.00  0.00     0.000 HD 
HETATM   22  S   UNL     1     -12.337  13.565  64.007  1.00  0.00    -0.270 SA 
HETATM   23  N   UNL     1     -11.481  15.027  65.934  1.00  0.00    -0.281 NA 
ENDBRANCH  15  16
BRANCH  15  24
HETATM   24  N   UNL     1     -11.843  14.293  68.763  1.00  0.00    -0.346 NA 
HETATM   25  H   UNL     1     -11.559  15.272  68.807  1.00  0.00     0.000 HD 
BRANCH  24  26
HETATM   26  O   UNL     1     -12.763  13.712  69.639  1.00  0.00    -0.078 OA 
HETATM   27  O   UNL     1     -13.037  12.045  71.547  1.00  0.00    -0.390 OA 
HETATM   28  O   UNL     1     -13.220  13.569  73.188  1.00  0.00    -0.442 OA 
HETATM   29  C   UNL     1     -11.481  15.068  71.284  1.00  0.00    -0.359 C  
HETATM   30  C   UNL     1     -13.978  15.358  70.914  1.00  0.00    -0.172 C  
HETATM   31  C   UNL     1     -12.806  14.384  70.921  1.00  0.00    -0.351 C  
HETATM   32  C   UNL     1     -13.048  13.223  71.894  1.00  0.00    -0.388 C  
ENDBRANCH  24  26
ENDBRANCH  15  24
ENDBRANCH  13  15
ENDBRANCH   3  11
TORSDOF 5
ENDMDL
MODEL       23
REMARK 921   NORMALIZED FREE ENERGY PREDICTED BY IDOCK:   -7.00 KCAL/MOL
REMARK 922        TOTAL FREE ENERGY PREDICTED BY IDOCK:  -10.19 KCAL/MOL
REMARK 923 INTER-LIGAND FREE ENERGY PREDICTED BY IDOCK:   -9.02 KCAL/MOL
REMARK 924 INTRA-LIGAND FREE ENERGY PREDICTED BY IDOCK:   -1.17 KCAL/MOL
REMARK 927      BINDING AFFINITY PREDICTED BY RF-SCORE:    0.00 PKD
ROOT
HETATM    1  C   UNL     1      -8.427   8.558  69.380  1.00  0.00    -0.127 C  
HETATM    2  C   UNL     1      -9.318   9.407  70.259  1.00  0.00    -0.252 C  
HETATM    3  C   UNL     1     -10.559  10.010  69.528  1.00  0.00    -0.244 C  
HETATM    4  O   UNL     1      -8.704   7.157  72.240  1.00  0.00    -0.120 OA 
HETATM    5  C   UNL     1     -11.370   9.344  70.717  1.00  0.00    -0.300 C  
HETATM    6  N   UNL     1     -10.233   8.676  71.131  1.00  0.00    -0.212 N  
HETATM    7  O   UNL     1     -10.850   7.689  73.283  1.00  0.00    -0.394 OA 
HETATM    8  O   UNL     1     -10.776   6.311  71.233  1.00  0.00    -0.230 OA 
HETATM    9  O   UNL     1     -12.494   9.315  71.153  1.00  0.00    -0.306 OA 
HETATM   10  S   UNL     1     -10.146   7.329  72.062  1.00  0.00    -0.186 S  
ENDROOT
BRANCH   3  11
HETATM   11  N   UNL     1     -10.660  11.494  69.366  1.00  0.00    -0.436 N  
HETATM   12  O   UNL     1     -12.270  11.530  67.712  1.00  0.00    -0.560 OA 
HETATM   13  C   UNL     1     -11.572  12.112  68.531  1.00  0.00    -0.315 C  
HETATM   14  H   UNL     1     -10.020  12.081  69.902  1.00  0.00     0.000 HD 
BRANCH  13  15
HETATM   15  C   UNL     1     -11.685  13.632  68.616  1.00  0.00    -0.354 C  
BRANCH  15  16
HETATM   16  C   UNL     1     -11.928  14.266  69.921  1.00  0.00    -0.339 A  
HETATM   17  C   UNL     1     -12.826  14.456  71.931  1.00  0.00    -0.349 A  
HETATM   18  N   UNL     1     -13.657  14.056  72.988  1.00  0.00    -0.556 NA 
HETATM   19  H2  UNL     1     -14.213  14.869  73.251  1.00  0.00     0.000 HD 
HETATM   20  C   UNL     1     -11.259  15.391  70.388  1.00  0.00    -0.323 A  
HETATM   21  H1  UNL     1     -14.294  13.260  72.957  1.00  0.00     0.000 HD 
HETATM   22  S   UNL     1     -11.770  15.775  71.983  1.00  0.00    -0.493 SA 
HETATM   23  N   UNL     1     -12.862  13.758  70.831  1.00  0.00    -0.300 NA 
ENDBRANCH  15  16
BRANCH  15  24
HETATM   24  N   UNL     1     -11.570  14.445  67.602  1.00  0.00    -0.352 NA 
HETATM   25  H   UNL     1     -12.075  15.328  67.525  1.00  0.00     0.000 HD 
BRANCH  24  26
HETATM   26  O   UNL     1     -10.681  13.971  66.635  1.00  0.00    -0.279 OA 
HETATM   27  O   UNL     1     -10.029  11.941  65.239  1.00  0.00    -0.246 OA 
HETATM   28  O   UNL     1     -10.932  12.660  63.312  1.00  0.00    -0.386 OA 
HETATM   29  C   UNL     1     -12.756  13.987  65.262  1.00  0.00    -0.468 C  
HETATM   30  C   UNL     1     -10.688  15.328  64.642  1.00  0.00    -0.226 C  
HETATM   31  C   UNL     1     -11.224  14.059  65.295  1.00  0.00    -0.319 C  
HETATM   32  C   UNL     1     -10.654  12.801  64.625  1.00  0.00    -0.349 C  
ENDBRANCH  24  26
ENDBRANCH  15  24
ENDBRANCH  13  15
ENDBRANCH   3  11
TORSDOF 5
ENDMDL
MODEL       24
REMARK 921   NORMALIZED FREE ENERGY PREDICTED BY IDOCK:   -6.90 KCAL/MOL
REMARK 922        TOTAL FREE ENERGY PREDICTED BY IDOCK:  -10.06 KCAL/MOL
REMARK 923 INTER-LIGAND FREE ENERGY PREDICTED BY IDOCK:   -9.28 KCAL/MOL
REMARK 924 INTRA-LIGAND FREE ENERGY PREDICTED BY IDOCK:   -0.78 KCAL/MOL
REMARK 927      BINDING AFFINITY PREDICTED BY RF-SCORE:    0.00 PKD
ROOT
HETATM    1  C   UNL     1      -9.994   9.276  68.552  1.00  0.00    -0.193 C  
HETATM    2  C   UNL     1     -10.509   9.869  69.844  1.00  0.00    -0.269 C  
HETATM    3  C   UNL     1     -11.816  10.710  69.691  1.00  0.00    -0.286 C  
HETATM    4  O   UNL     1      -9.673   7.118  70.887  1.00  0.00    -0.171 OA 
HETATM    5  C   UNL     1     -12.358   9.762  70.841  1.00  0.00    -0.290 C  
HETATM    6  N   UNL     1     -11.243   8.956  70.715  1.00  0.00    -0.264 N  
HETATM    7  O   UNL     1     -11.384   7.412  72.608  1.00  0.00    -0.300 OA 
HETATM    8  O   UNL     1     -12.025   6.688  70.333  1.00  0.00    -0.396 OA 
HETATM    9  O   UNL     1     -13.322   9.655  71.559  1.00  0.00    -0.371 OA 
HETATM   10  S   UNL     1     -11.078   7.394  71.186  1.00  0.00    -0.257 S  
ENDROOT
BRANCH   3  11
HETATM   11  N   UNL     1     -11.774  12.180  69.968  1.00  0.00    -0.490 N  
HETATM   12  O   UNL     1     -11.898  12.924  67.785  1.00  0.00    -0.349 OA 
HETATM   13  C   UNL     1     -11.906  13.147  68.988  1.00  0.00    -0.313 C  
HETATM   14  H   UNL     1     -11.640  12.485  70.932  1.00  0.00     0.000 HD 
BRANCH  13  15
HETATM   15  C   UNL     1     -12.035  14.598  69.446  1.00  0.00    -0.313 C  
BRANCH  15  16
HETATM   16  C   UNL     1     -12.602  14.889  70.772  1.00  0.00    -0.354 A  
HETATM   17  C   UNL     1     -12.563  15.142  72.967  1.00  0.00    -0.438 A  
HETATM   18  N   UNL     1     -11.954  15.132  74.230  1.00  0.00    -0.568 NA 
HETATM   19  H2  UNL     1     -12.556  14.582  74.844  1.00  0.00     0.000 HD 
HETATM   20  C   UNL     1     -13.897  15.341  70.994  1.00  0.00    -0.335 A  
HETATM   21  H1  UNL     1     -10.996  14.833  74.412  1.00  0.00     0.000 HD 
HETATM   22  S   UNL     1     -14.151  15.637  72.667  1.00  0.00    -0.245 SA 
HETATM   23  N   UNL     1     -11.853  14.750  71.947  1.00  0.00    -0.336 NA 
ENDBRANCH  15  16
BRANCH  15  24
HETATM   24  N   UNL     1     -11.664  15.634  68.747  1.00  0.00    -0.411 NA 
HETATM   25  H   UNL     1     -12.147  16.533  68.766  1.00  0.00     0.000 HD 
BRANCH  24  26
HETATM   26  O   UNL     1     -10.533  15.378  67.969  1.00  0.00    -0.248 OA 
HETATM   27  O   UNL     1      -9.612  15.378  65.593  1.00  0.00    -0.335 OA 
HETATM   28  O   UNL     1      -8.412  17.268  65.788  1.00  0.00    -0.532 OA 
HETATM   29  C   UNL     1     -10.611  17.852  67.716  1.00  0.00    -0.399 C  
HETATM   30  C   UNL     1      -8.611  16.634  68.704  1.00  0.00    -0.253 C  
HETATM   31  C   UNL     1      -9.761  16.575  67.705  1.00  0.00    -0.239 C  
HETATM   32  C   UNL     1      -9.251  16.330  66.279  1.00  0.00    -0.328 C  
ENDBRANCH  24  26
ENDBRANCH  15  24
ENDBRANCH  13  15
ENDBRANCH   3  11
TORSDOF 5
ENDMDL
MODEL       25
REMARK 921   NORMALIZED FREE ENERGY PREDICTED BY IDOCK:   -6.86 KCAL/MOL
REMARK 922        TOTAL FREE ENERGY PREDICTED BY IDOCK:  -10.01 KCAL/MOL
REMARK 923 INTER-LIGAND FREE ENERGY PREDICTED BY IDOCK:   -8.68 KCAL/MOL
REMARK 924 INTRA-LIGAND FREE ENERGY PREDICTED BY IDOCK:   -1.34 KCAL/MOL
REMARK 927      BINDING AFFINITY PREDICTED BY RF-SCORE:    0.00 PKD
ROOT
HETATM    1  C   UNL     1      -8.378  16.046  69.052  1.00  0.00    -0.243 C  
HETATM    2  C   UNL     1      -9.161  15.151  68.118  1.00  0.00    -0.184 C  
HETATM    3  C   UNL     1     -10.424  14.495  68.761  1.00  0.00    -0.246 C  
HETATM    4  O   UNL     1      -8.506  17.414  66.166  1.00  0.00    -0.428 OA 
HETATM    5  C   UNL     1     -11.174  15.114  67.508  1.00  0.00    -0.330 C  
HETATM    6  N   UNL     1     -10.042  15.832  67.173  1.00  0.00    -0.247 N  
HETATM    7  O   UNL     1     -10.541  16.776  64.972  1.00  0.00    -0.695 OA 
HETATM    8  O   UNL     1     -10.683  18.169  67.009  1.00  0.00    -0.353 OA 
HETATM    9  O   UNL     1     -12.262  15.088  66.990  1.00  0.00    -0.042 OA 
HETATM   10  S   UNL     1      -9.948  17.176  66.238  1.00  0.00    -0.291 S  
ENDROOT
BRANCH   3  11
HETATM   11  N   UNL     1     -10.468  13.009  68.929  1.00  0.00    -0.415 N  
HETATM   12  O   UNL     1     -12.628  12.838  69.730  1.00  0.00     0.035 OA 
HETATM   13  C   UNL     1     -11.600  12.316  69.317  1.00  0.00    -0.324 C  
HETATM   14  H   UNL     1      -9.616  12.478  68.748  1.00  0.00     0.000 HD 
BRANCH  13  15
HETATM   15  C   UNL     1     -11.546  10.792  69.260  1.00  0.00    -0.305 C  
BRANCH  15  16
HETATM   16  C   UNL     1     -11.801  10.014  70.482  1.00  0.00    -0.303 A  
HETATM   17  C   UNL     1     -13.023   9.207  72.137  1.00  0.00    -0.425 A  
HETATM   18  N   UNL     1     -14.205   9.048  72.875  1.00  0.00    -1.127 NA 
HETATM   19  H2  UNL     1     -13.970   9.227  73.852  1.00  0.00     0.000 HD 
HETATM   20  C   UNL     1     -10.873   9.180  71.094  1.00  0.00    -0.311 A  
HETATM   21  H1  UNL     1     -15.078   9.540  72.687  1.00  0.00     0.000 HD 
HETATM   22  S   UNL     1     -11.576   8.390  72.449  1.00  0.00    -0.353 SA 
HETATM   23  N   UNL     1     -13.040  10.036  71.132  1.00  0.00    -0.386 NA 
ENDBRANCH  15  16
BRANCH  15  24
HETATM   24  N   UNL     1     -11.296  10.096  68.186  1.00  0.00    -0.536 NA 
HETATM   25  H   UNL     1     -11.734   9.198  67.977  1.00  0.00     0.000 HD 
BRANCH  24  26
HETATM   26  O   UNL     1     -10.362  10.716  67.352  1.00  0.00    -0.196 OA 
HETATM   27  O   UNL     1      -8.165  12.006  67.305  1.00  0.00    -0.157 OA 
HETATM   28  O   UNL     1      -6.884  10.298  66.604  1.00  0.00    -0.083 OA 
HETATM   29  C   UNL     1      -8.975   8.793  68.107  1.00  0.00    -0.141 C  
HETATM   30  C   UNL     1      -9.512   9.224  65.661  1.00  0.00    -0.324 C  
HETATM   31  C   UNL     1      -9.249   9.847  67.027  1.00  0.00    -0.142 C  
HETATM   32  C   UNL     1      -8.069  10.826  66.978  1.00  0.00    -0.124 C  
ENDBRANCH  24  26
ENDBRANCH  15  24
ENDBRANCH  13  15
ENDBRANCH   3  11
TORSDOF 5
ENDMDL
MODEL       26
REMARK 921   NORMALIZED FREE ENERGY PREDICTED BY IDOCK:   -6.84 KCAL/MOL
REMARK 922        TOTAL FREE ENERGY PREDICTED BY IDOCK:   -9.98 KCAL/MOL
REMARK 923 INTER-LIGAND FREE ENERGY PREDICTED BY IDOCK:   -8.99 KCAL/MOL
REMARK 924 INTRA-LIGAND FREE ENERGY PREDICTED BY IDOCK:   -1.00 KCAL/MOL
REMARK 927      BINDING AFFINITY PREDICTED BY RF-SCORE:    0.00 PKD
ROOT
HETATM    1  C   UNL     1      -8.988   8.339  69.398  1.00  0.00    -0.147 C  
HETATM    2  C   UNL     1      -9.721   9.300  70.307  1.00  0.00    -0.232 C  
HETATM    3  C   UNL     1     -10.855  10.113  69.605  1.00  0.00    -0.263 C  
HETATM    4  O   UNL     1      -9.460   6.936  72.230  1.00  0.00    -0.142 OA 
HETATM    5  C   UNL     1     -11.751   9.560  70.791  1.00  0.00    -0.298 C  
HETATM    6  N   UNL     1     -10.734   8.707  71.175  1.00  0.00    -0.226 N  
HETATM    7  O   UNL     1     -11.480   7.783  73.314  1.00  0.00    -0.295 OA 
HETATM    8  O   UNL     1     -11.651   6.460  71.234  1.00  0.00    -0.305 OA 
HETATM    9  O   UNL     1     -12.861   9.703  71.242  1.00  0.00    -0.327 OA 
HETATM   10  S   UNL     1     -10.857   7.343  72.076  1.00  0.00    -0.236 S  
ENDROOT
BRANCH   3  11
HETATM   11  N   UNL     1     -10.716  11.597  69.477  1.00  0.00    -0.449 N  
HETATM   12  O   UNL     1      -9.500  11.639  67.514  1.00  0.00    -0.168 OA 
HETATM   13  C   UNL     1     -10.123  12.219  68.394  1.00  0.00    -0.215 C  
HETATM   14  H   UNL     1     -11.078  12.182  70.231  1.00  0.00     0.000 HD 
BRANCH  13  15
HETATM   15  C   UNL     1     -10.225  13.740  68.314  1.00  0.00    -0.245 C  
BRANCH  15  16
HETATM   16  C   UNL     1     -10.983  14.467  69.343  1.00  0.00    -0.249 A  
HETATM   17  C   UNL     1     -12.702  14.864  70.675  1.00  0.00    -0.367 A  
HETATM   18  N   UNL     1     -13.977  14.613  71.203  1.00  0.00    -0.506 NA 
HETATM   19  H2  UNL     1     -14.490  15.494  71.168  1.00  0.00     0.000 HD 
HETATM   20  C   UNL     1     -10.489  15.540  70.077  1.00  0.00    -0.309 A  
HETATM   21  H1  UNL     1     -14.613  13.889  70.867  1.00  0.00     0.000 HD 
HETATM   22  S   UNL     1     -11.649  16.063  71.231  1.00  0.00    -0.417 SA 
HETATM   23  N   UNL     1     -12.292  14.113  69.692  1.00  0.00    -0.309 NA 
ENDBRANCH  15  16
BRANCH  15  24
HETATM   24  N   UNL     1      -9.673  14.476  67.389  1.00  0.00    -0.220 NA 
HETATM   25  H   UNL     1      -8.697  14.392  67.106  1.00  0.00     0.000 HD 
BRANCH  24  26
HETATM   26  O   UNL     1     -10.567  15.393  66.831  1.00  0.00    -0.297 OA 
HETATM   27  O   UNL     1     -10.819  17.245  65.098  1.00  0.00    -0.640 OA 
HETATM   28  O   UNL     1     -11.935  16.020  63.581  1.00  0.00    -0.765 OA 
HETATM   29  C   UNL     1     -10.305  13.882  64.872  1.00  0.00    -0.430 C  
HETATM   30  C   UNL     1     -12.552  14.330  65.971  1.00  0.00    -0.335 C  
HETATM   31  C   UNL     1     -11.182  14.896  65.617  1.00  0.00    -0.347 C  
HETATM   32  C   UNL     1     -11.304  16.167  64.766  1.00  0.00    -0.249 C  
ENDBRANCH  24  26
ENDBRANCH  15  24
ENDBRANCH  13  15
ENDBRANCH   3  11
TORSDOF 5
ENDMDL
MODEL       27
REMARK 921   NORMALIZED FREE ENERGY PREDICTED BY IDOCK:   -6.81 KCAL/MOL
REMARK 922        TOTAL FREE ENERGY PREDICTED BY IDOCK:   -9.94 KCAL/MOL
REMARK 923 INTER-LIGAND FREE ENERGY PREDICTED BY IDOCK:   -8.96 KCAL/MOL
REMARK 924 INTRA-LIGAND FREE ENERGY PREDICTED BY IDOCK:   -0.99 KCAL/MOL
REMARK 927      BINDING AFFINITY PREDICTED BY RF-SCORE:    0.00 PKD
ROOT
HETATM    1  C   UNL     1      -8.706   8.356  72.494  1.00  0.00    -0.277 C  
HETATM    2  C   UNL     1     -10.173   8.301  72.131  1.00  0.00    -0.285 C  
HETATM    3  C   UNL     1     -10.465   8.436  70.603  1.00  0.00    -0.200 C  
HETATM    4  O   UNL     1     -10.128   6.106  74.262  1.00  0.00    -0.249 OA 
HETATM    5  C   UNL     1     -11.286   7.096  70.815  1.00  0.00    -0.279 C  
HETATM    6  N   UNL     1     -10.767   6.967  72.089  1.00  0.00    -0.214 N  
HETATM    7  O   UNL     1     -12.036   5.130  73.088  1.00  0.00    -0.206 OA 
HETATM    8  O   UNL     1      -9.742   4.771  72.240  1.00  0.00    -0.149 OA 
HETATM    9  O   UNL     1     -12.034   6.375  70.201  1.00  0.00    -0.354 OA 
HETATM   10  S   UNL     1     -10.665   5.606  72.997  1.00  0.00    -0.275 S  
ENDROOT
BRANCH   3  11
HETATM   11  N   UNL     1     -11.211   9.634  70.107  1.00  0.00    -0.253 N  
HETATM   12  O   UNL     1      -9.410  10.814  69.273  1.00  0.00    -0.167 OA 
HETATM   13  C   UNL     1     -10.618  10.671  69.411  1.00  0.00    -0.239 C  
HETATM   14  H   UNL     1     -12.213   9.688  70.293  1.00  0.00     0.000 HD 
BRANCH  13  15
HETATM   15  C   UNL     1     -11.538  11.727  68.805  1.00  0.00    -0.307 C  
BRANCH  15  16
HETATM   16  C   UNL     1     -12.016  12.835  69.645  1.00  0.00    -0.288 A  
HETATM   17  C   UNL     1     -12.908  13.758  71.445  1.00  0.00    -0.369 A  
HETATM   18  N   UNL     1     -13.495  13.736  72.718  1.00  0.00    -0.666 NA 
HETATM   19  H2  UNL     1     -14.337  14.309  72.665  1.00  0.00     0.000 HD 
HETATM   20  C   UNL     1     -11.871  14.182  69.333  1.00  0.00    -0.330 A  
HETATM   21  H1  UNL     1     -13.747  12.889  73.227  1.00  0.00     0.000 HD 
HETATM   22  S   UNL     1     -12.490  15.162  70.602  1.00  0.00    -0.417 SA 
HETATM   23  N   UNL     1     -12.655  12.615  70.871  1.00  0.00    -0.309 NA 
ENDBRANCH  15  16
BRANCH  15  24
HETATM   24  N   UNL     1     -11.940  11.740  67.564  1.00  0.00    -0.607 NA 
HETATM   25  H   UNL     1     -12.916  11.855  67.286  1.00  0.00     0.000 HD 
BRANCH  24  26
HETATM   26  O   UNL     1     -10.889  11.580  66.659  1.00  0.00    -0.264 OA 
HETATM   27  O   UNL     1     -10.139  10.354  64.554  1.00  0.00    -0.346 OA 
HETATM   28  O   UNL     1     -10.401  12.086  63.147  1.00  0.00    -0.404 OA 
HETATM   29  C   UNL     1     -12.504  12.734  65.159  1.00  0.00    -0.565 C  
HETATM   30  C   UNL     1     -10.200  13.670  65.676  1.00  0.00    -0.316 C  
HETATM   31  C   UNL     1     -11.040  12.413  65.483  1.00  0.00    -0.300 C  
HETATM   32  C   UNL     1     -10.469  11.523  64.372  1.00  0.00    -0.325 C  
ENDBRANCH  24  26
ENDBRANCH  15  24
ENDBRANCH  13  15
ENDBRANCH   3  11
TORSDOF 5
ENDMDL
MODEL       28
REMARK 921   NORMALIZED FREE ENERGY PREDICTED BY IDOCK:   -6.78 KCAL/MOL
REMARK 922        TOTAL FREE ENERGY PREDICTED BY IDOCK:   -9.91 KCAL/MOL
REMARK 923 INTER-LIGAND FREE ENERGY PREDICTED BY IDOCK:   -9.10 KCAL/MOL
REMARK 924 INTRA-LIGAND FREE ENERGY PREDICTED BY IDOCK:   -0.80 KCAL/MOL
REMARK 927      BINDING AFFINITY PREDICTED BY RF-SCORE:    0.00 PKD
ROOT
HETATM    1  C   UNL     1     -10.057  11.628  63.421  1.00  0.00    -0.468 C  
HETATM    2  C   UNL     1     -10.995  11.469  64.597  1.00  0.00    -0.288 C  
HETATM    3  C   UNL     1     -10.279  11.267  65.970  1.00  0.00    -0.247 C  
HETATM    4  O   UNL     1     -12.483  13.686  63.102  1.00  0.00    -0.786 OA 
HETATM    5  C   UNL     1     -11.189  12.481  66.431  1.00  0.00    -0.306 C  
HETATM    6  N   UNL     1     -11.572  12.704  65.122  1.00  0.00    -0.332 N  
HETATM    7  O   UNL     1     -13.364  14.361  65.280  1.00  0.00    -0.574 OA 
HETATM    8  O   UNL     1     -11.082  15.026  64.606  1.00  0.00    -0.372 OA 
HETATM    9  O   UNL     1     -11.476  13.077  67.440  1.00  0.00    -0.294 OA 
HETATM   10  S   UNL     1     -12.183  14.082  64.478  1.00  0.00    -0.411 S  
ENDROOT
BRANCH   3  11
HETATM   11  N   UNL     1     -10.441   9.967  66.692  1.00  0.00    -0.200 N  
HETATM   12  O   UNL     1      -9.295  10.522  68.619  1.00  0.00    -0.156 OA 
HETATM   13  C   UNL     1     -10.005   9.751  67.987  1.00  0.00    -0.158 C  
HETATM   14  H   UNL     1     -10.898   9.197  66.202  1.00  0.00     0.000 HD 
BRANCH  13  15
HETATM   15  C   UNL     1     -10.410   8.440  68.655  1.00  0.00    -0.197 C  
BRANCH  15  16
HETATM   16  C   UNL     1     -10.183   7.169  67.950  1.00  0.00    -0.187 A  
HETATM   17  C   UNL     1     -10.635   5.560  66.504  1.00  0.00    -0.279 A  
HETATM   18  N   UNL     1     -11.405   4.926  65.518  1.00  0.00    -0.942 NA 
HETATM   19  H2  UNL     1     -11.525   3.957  65.814  1.00  0.00     0.000 HD 
HETATM   20  C   UNL     1      -9.046   6.383  68.088  1.00  0.00    -0.113 A  
HETATM   21  H1  UNL     1     -12.316   5.250  65.194  1.00  0.00     0.000 HD 
HETATM   22  S   UNL     1      -9.126   5.023  67.040  1.00  0.00    -0.120 SA 
HETATM   23  N   UNL     1     -11.111   6.648  67.041  1.00  0.00    -0.403 NA 
ENDBRANCH  15  16
BRANCH  15  24
HETATM   24  N   UNL     1     -10.947   8.343  69.840  1.00  0.00    -0.373 NA 
HETATM   25  H   UNL     1     -11.155   9.146  70.435  1.00  0.00     0.000 HD 
BRANCH  24  26
HETATM   26  O   UNL     1     -11.206   7.020  70.203  1.00  0.00    -0.273 OA 
HETATM   27  O   UNL     1     -10.291   5.003  71.465  1.00  0.00    -0.204 OA 
HETATM   28  O   UNL     1     -11.614   5.212  73.268  1.00  0.00    -0.297 OA 
HETATM   29  C   UNL     1     -11.402   8.072  72.449  1.00  0.00    -0.443 C  
HETATM   30  C   UNL     1     -13.305   6.782  71.365  1.00  0.00    -0.150 C  
HETATM   31  C   UNL     1     -11.794   6.914  71.523  1.00  0.00    -0.324 C  
HETATM   32  C   UNL     1     -11.172   5.618  72.058  1.00  0.00    -0.207 C  
ENDBRANCH  24  26
ENDBRANCH  15  24
ENDBRANCH  13  15
ENDBRANCH   3  11
TORSDOF 5
ENDMDL
MODEL       29
REMARK 921   NORMALIZED FREE ENERGY PREDICTED BY IDOCK:   -6.77 KCAL/MOL
REMARK 922        TOTAL FREE ENERGY PREDICTED BY IDOCK:   -9.89 KCAL/MOL
REMARK 923 INTER-LIGAND FREE ENERGY PREDICTED BY IDOCK:   -8.42 KCAL/MOL
REMARK 924 INTRA-LIGAND FREE ENERGY PREDICTED BY IDOCK:   -1.47 KCAL/MOL
REMARK 927      BINDING AFFINITY PREDICTED BY RF-SCORE:    0.00 PKD
ROOT
HETATM    1  C   UNL     1     -12.715  11.368  71.317  1.00  0.00    -0.498 C  
HETATM    2  C   UNL     1     -12.239  10.446  70.218  1.00  0.00    -0.269 C  
HETATM    3  C   UNL     1     -10.755  10.668  69.787  1.00  0.00    -0.230 C  
HETATM    4  O   UNL     1     -13.867   8.435  71.851  1.00  0.00    -0.374 OA 
HETATM    5  C   UNL     1     -10.622   9.111  70.057  1.00  0.00    -0.227 C  
HETATM    6  N   UNL     1     -11.878   9.094  70.634  1.00  0.00    -0.228 N  
HETATM    7  O   UNL     1     -12.375   6.720  70.954  1.00  0.00    -0.381 OA 
HETATM    8  O   UNL     1     -11.647   8.127  72.850  1.00  0.00    -0.386 OA 
HETATM    9  O   UNL     1      -9.818   8.223  69.913  1.00  0.00    -0.182 OA 
HETATM   10  S   UNL     1     -12.489   7.980  71.671  1.00  0.00    -0.328 S  
ENDROOT
BRANCH   3  11
HETATM   11  N   UNL     1     -10.463  11.158  68.404  1.00  0.00    -0.180 N  
HETATM   12  O   UNL     1     -11.059  13.367  68.710  1.00  0.00    -0.243 OA 
HETATM   13  C   UNL     1     -10.563  12.484  68.024  1.00  0.00    -0.223 C  
HETATM   14  H   UNL     1     -10.175  10.475  67.702  1.00  0.00     0.000 HD 
BRANCH  13  15
HETATM   15  C   UNL     1     -10.049  12.858  66.637  1.00  0.00    -0.245 C  
BRANCH  15  16
HETATM   16  C   UNL     1     -10.120  14.260  66.195  1.00  0.00    -0.313 A  
HETATM   17  C   UNL     1     -10.868  15.957  64.993  1.00  0.00    -0.426 A  
HETATM   18  N   UNL     1     -11.667  16.552  64.006  1.00  0.00    -1.442 NA 
HETATM   19  H2  UNL     1     -11.045  17.108  63.418  1.00  0.00     0.000 HD 
HETATM   20  C   UNL     1      -9.427  15.309  66.786  1.00  0.00    -0.245 A  
HETATM   21  H1  UNL     1     -12.290  16.045  63.378  1.00  0.00     0.000 HD 
HETATM   22  S   UNL     1      -9.836  16.799  66.033  1.00  0.00    -0.254 SA 
HETATM   23  N   UNL     1     -10.931  14.662  65.127  1.00  0.00    -0.361 NA 
ENDBRANCH  15  16
BRANCH  15  24
HETATM   24  N   UNL     1      -9.527  12.020  65.785  1.00  0.00    -0.356 NA 
HETATM   25  H   UNL     1      -9.902  11.854  64.850  1.00  0.00     0.000 HD 
BRANCH  24  26
HETATM   26  O   UNL     1      -8.397  11.376  66.293  1.00  0.00    -0.168 OA 
HETATM   27  O   UNL     1      -7.545   9.842  68.142  1.00  0.00    -0.081 OA 
HETATM   28  O   UNL     1      -7.399   7.987  66.884  1.00  0.00    -0.086 OA 
HETATM   29  C   UNL     1      -9.644   9.376  65.496  1.00  0.00    -0.328 C  
HETATM   30  C   UNL     1      -7.324   9.976  64.650  1.00  0.00    -0.143 C  
HETATM   31  C   UNL     1      -8.287  10.007  65.832  1.00  0.00    -0.127 C  
HETATM   32  C   UNL     1      -7.696   9.293  67.054  1.00  0.00    -0.095 C  
ENDBRANCH  24  26
ENDBRANCH  15  24
ENDBRANCH  13  15
ENDBRANCH   3  11
TORSDOF 5
ENDMDL
MODEL       30
REMARK 921   NORMALIZED FREE ENERGY PREDICTED BY IDOCK:   -6.76 KCAL/MOL
REMARK 922        TOTAL FREE ENERGY PREDICTED BY IDOCK:   -9.88 KCAL/MOL
REMARK 923 INTER-LIGAND FREE ENERGY PREDICTED BY IDOCK:   -8.60 KCAL/MOL
REMARK 924 INTRA-LIGAND FREE ENERGY PREDICTED BY IDOCK:   -1.28 KCAL/MOL
REMARK 927      BINDING AFFINITY PREDICTED BY RF-SCORE:    0.00 PKD
ROOT
HETATM    1  C   UNL     1     -10.032  11.124  64.129  1.00  0.00    -0.369 C  
HETATM    2  C   UNL     1     -11.021  11.223  65.269  1.00  0.00    -0.137 C  
HETATM    3  C   UNL     1     -10.367  11.297  66.685  1.00  0.00    -0.237 C  
HETATM    4  O   UNL     1     -12.395  13.105  63.287  1.00  0.00    -0.712 OA 
HETATM    5  C   UNL     1     -11.268  12.592  66.847  1.00  0.00    -0.303 C  
HETATM    6  N   UNL     1     -11.591  12.546  65.504  1.00  0.00    -0.367 N  
HETATM    7  O   UNL     1     -13.351  14.224  65.238  1.00  0.00    -0.660 OA 
HETATM    8  O   UNL     1     -11.028  14.706  64.547  1.00  0.00    -0.339 OA 
HETATM    9  O   UNL     1     -11.583  13.386  67.698  1.00  0.00    -0.300 OA 
HETATM   10  S   UNL     1     -12.144  13.771  64.565  1.00  0.00    -0.426 S  
ENDROOT
BRANCH   3  11
HETATM   11  N   UNL     1     -10.588  10.175  67.650  1.00  0.00    -0.245 N  
HETATM   12  O   UNL     1      -8.966  10.748  69.190  1.00  0.00    -0.159 OA 
HETATM   13  C   UNL     1      -9.920  10.059  68.855  1.00  0.00    -0.192 C  
HETATM   14  H   UNL     1     -11.268   9.455  67.404  1.00  0.00     0.000 HD 
BRANCH  13  15
HETATM   15  C   UNL     1     -10.389   8.970  69.816  1.00  0.00    -0.211 C  
BRANCH  15  16
HETATM   16  C   UNL     1     -11.520   9.239  70.717  1.00  0.00    -0.292 A  
HETATM   17  C   UNL     1     -12.959  10.504  71.820  1.00  0.00    -0.476 A  
HETATM   18  N   UNL     1     -13.512  11.724  72.233  1.00  0.00    -0.547 NA 
HETATM   19  H2  UNL     1     -13.591  11.684  73.250  1.00  0.00     0.000 HD 
HETATM   20  C   UNL     1     -12.338   8.262  71.270  1.00  0.00    -0.263 A  
HETATM   21  H1  UNL     1     -13.132  12.642  72.003  1.00  0.00     0.000 HD 
HETATM   22  S   UNL     1     -13.590   8.983  72.201  1.00  0.00    -0.495 SA 
HETATM   23  N   UNL     1     -11.886  10.541  71.081  1.00  0.00    -0.332 NA 
ENDBRANCH  15  16
BRANCH  15  24
HETATM   24  N   UNL     1      -9.864   7.779  69.904  1.00  0.00    -0.176 NA 
HETATM   25  H   UNL     1      -9.849   7.228  70.763  1.00  0.00     0.000 HD 
BRANCH  24  26
HETATM   26  O   UNL     1      -9.326   7.341  68.692  1.00  0.00    -0.140 OA 
HETATM   27  O   UNL     1      -7.562   5.835  67.635  1.00  0.00    -0.087 OA 
HETATM   28  O   UNL     1      -8.970   4.202  67.004  1.00  0.00    -0.115 OA 
HETATM   29  C   UNL     1     -10.405   5.218  69.413  1.00  0.00    -0.313 C  
HETATM   30  C   UNL     1     -10.996   6.390  67.238  1.00  0.00    -0.474 C  
HETATM   31  C   UNL     1      -9.901   6.086  68.253  1.00  0.00    -0.132 C  
HETATM   32  C   UNL     1      -8.705   5.388  67.594  1.00  0.00    -0.106 C  
ENDBRANCH  24  26
ENDBRANCH  15  24
ENDBRANCH  13  15
ENDBRANCH   3  11
TORSDOF 5
ENDMDL
MODEL       31
REMARK 921   NORMALIZED FREE ENERGY PREDICTED BY IDOCK:   -6.67 KCAL/MOL
REMARK 922        TOTAL FREE ENERGY PREDICTED BY IDOCK:   -9.77 KCAL/MOL
REMARK 923 INTER-LIGAND FREE ENERGY PREDICTED BY IDOCK:   -8.69 KCAL/MOL
REMARK 924 INTRA-LIGAND FREE ENERGY PREDICTED BY IDOCK:   -1.08 KCAL/MOL
REMARK 927      BINDING AFFINITY PREDICTED BY RF-SCORE:    0.00 PKD
ROOT
HETATM    1  C   UNL     1      -7.009  15.952  69.372  1.00  0.00    -0.211 C  
HETATM    2  C   UNL     1      -8.008  15.854  68.241  1.00  0.00    -0.139 C  
HETATM    3  C   UNL     1      -9.407  15.302  68.663  1.00  0.00    -0.201 C  
HETATM    4  O   UNL     1      -6.737  18.541  67.517  1.00  0.00    -0.199 OA 
HETATM    5  C   UNL     1      -9.948  16.618  67.963  1.00  0.00    -0.258 C  
HETATM    6  N   UNL     1      -8.658  17.104  67.857  1.00  0.00    -0.210 N  
HETATM    7  O   UNL     1      -8.865  19.094  66.449  1.00  0.00    -0.326 OA 
HETATM    8  O   UNL     1      -8.618  19.297  68.900  1.00  0.00    -0.360 OA 
HETATM    9  O   UNL     1     -10.998  17.119  67.645  1.00  0.00    -0.285 OA 
HETATM   10  S   UNL     1      -8.188  18.662  67.662  1.00  0.00    -0.261 S  
ENDROOT
BRANCH   3  11
HETATM   11  N   UNL     1      -9.867  13.988  68.116  1.00  0.00    -0.228 N  
HETATM   12  O   UNL     1     -12.080  14.126  68.763  1.00  0.00    -0.341 OA 
HETATM   13  C   UNL     1     -11.184  13.566  68.145  1.00  0.00    -0.272 C  
HETATM   14  H   UNL     1      -9.171  13.369  67.699  1.00  0.00     0.000 HD 
BRANCH  13  15
HETATM   15  C   UNL     1     -11.530  12.292  67.379  1.00  0.00    -0.352 C  
BRANCH  15  16
HETATM   16  C   UNL     1     -11.536  12.312  65.909  1.00  0.00    -0.376 A  
HETATM   17  C   UNL     1     -10.999  11.610  63.883  1.00  0.00    -0.407 A  
HETATM   18  N   UNL     1     -10.346  10.772  62.967  1.00  0.00    -0.729 NA 
HETATM   19  H2  UNL     1      -9.872  11.378  62.297  1.00  0.00     0.000 HD 
HETATM   20  C   UNL     1     -12.314  13.164  65.134  1.00  0.00    -0.473 A  
HETATM   21  H1  UNL     1      -9.685  10.038  63.219  1.00  0.00     0.000 HD 
HETATM   22  S   UNL     1     -12.095  12.826  63.464  1.00  0.00    -0.532 SA 
HETATM   23  N   UNL     1     -10.751  11.434  65.150  1.00  0.00    -0.286 NA 
ENDBRANCH  15  16
BRANCH  15  24
HETATM   24  N   UNL     1     -11.820  11.147  67.932  1.00  0.00    -0.632 NA 
HETATM   25  H   UNL     1     -12.379  10.423  67.479  1.00  0.00     0.000 HD 
BRANCH  24  26
HETATM   26  O   UNL     1     -11.281  11.020  69.215  1.00  0.00    -0.215 OA 
HETATM   27  O   UNL     1     -11.572   9.889  71.480  1.00  0.00    -0.373 OA 
HETATM   28  O   UNL     1      -9.948   8.361  71.209  1.00  0.00    -0.183 OA 
HETATM   29  C   UNL     1     -10.784   8.733  68.371  1.00  0.00    -0.112 C  
HETATM   30  C   UNL     1      -8.974  10.325  69.174  1.00  0.00    -0.187 C  
HETATM   31  C   UNL     1     -10.417   9.864  69.339  1.00  0.00    -0.231 C  
HETATM   32  C   UNL     1     -10.695   9.398  70.775  1.00  0.00    -0.305 C  
ENDBRANCH  24  26
ENDBRANCH  15  24
ENDBRANCH  13  15
ENDBRANCH   3  11
TORSDOF 5
ENDMDL
MODEL       32
REMARK 921   NORMALIZED FREE ENERGY PREDICTED BY IDOCK:   -6.66 KCAL/MOL
REMARK 922        TOTAL FREE ENERGY PREDICTED BY IDOCK:   -9.75 KCAL/MOL
REMARK 923 INTER-LIGAND FREE ENERGY PREDICTED BY IDOCK:   -8.76 KCAL/MOL
REMARK 924 INTRA-LIGAND FREE ENERGY PREDICTED BY IDOCK:   -0.99 KCAL/MOL
REMARK 927      BINDING AFFINITY PREDICTED BY RF-SCORE:    0.00 PKD
ROOT
HETATM    1  C   UNL     1      -8.186   8.484  70.261  1.00  0.00    -0.115 C  
HETATM    2  C   UNL     1      -9.295   9.172  71.024  1.00  0.00    -0.263 C  
HETATM    3  C   UNL     1     -10.554   9.514  70.165  1.00  0.00    -0.254 C  
HETATM    4  O   UNL     1      -8.462   7.125  73.140  1.00  0.00    -0.117 OA 
HETATM    5  C   UNL     1     -11.334   8.736  71.306  1.00  0.00    -0.291 C  
HETATM    6  N   UNL     1     -10.137   8.303  71.843  1.00  0.00    -0.221 N  
HETATM    7  O   UNL     1     -10.756   7.269  73.972  1.00  0.00    -0.288 OA 
HETATM    8  O   UNL     1     -10.240   5.881  71.993  1.00  0.00    -0.190 OA 
HETATM    9  O   UNL     1     -12.469   8.507  71.644  1.00  0.00    -0.304 OA 
HETATM   10  S   UNL     1      -9.889   7.019  72.832  1.00  0.00    -0.191 S  
ENDROOT
BRANCH   3  11
HETATM   11  N   UNL     1     -10.912  10.948  69.935  1.00  0.00    -0.423 N  
HETATM   12  O   UNL     1      -9.597  11.315  68.072  1.00  0.00    -0.169 OA 
HETATM   13  C   UNL     1     -10.462  11.685  68.855  1.00  0.00    -0.175 C  
HETATM   14  H   UNL     1     -11.521  11.407  70.613  1.00  0.00     0.000 HD 
BRANCH  13  15
HETATM   15  C   UNL     1     -11.063  13.073  68.653  1.00  0.00    -0.269 C  
BRANCH  15  16
HETATM   16  C   UNL     1     -11.716  13.749  69.785  1.00  0.00    -0.302 A  
HETATM   17  C   UNL     1     -13.050  13.905  71.540  1.00  0.00    -0.365 A  
HETATM   18  N   UNL     1     -13.984  13.416  72.465  1.00  0.00    -0.751 NA 
HETATM   19  H2  UNL     1     -14.747  14.092  72.500  1.00  0.00     0.000 HD 
HETATM   20  C   UNL     1     -11.426  15.042  70.206  1.00  0.00    -0.269 A  
HETATM   21  H1  UNL     1     -14.411  12.491  72.427  1.00  0.00     0.000 HD 
HETATM   22  S   UNL     1     -12.343  15.438  71.604  1.00  0.00    -0.418 SA 
HETATM   23  N   UNL     1     -12.694  13.119  70.563  1.00  0.00    -0.136 NA 
ENDBRANCH  15  16
BRANCH  15  24
HETATM   24  N   UNL     1     -11.039  13.739  67.532  1.00  0.00    -0.272 NA 
HETATM   25  H   UNL     1     -10.720  14.705  67.452  1.00  0.00     0.000 HD 
BRANCH  24  26
HETATM   26  O   UNL     1     -11.499  12.983  66.451  1.00  0.00    -0.310 OA 
HETATM   27  O   UNL     1     -13.405  12.706  64.781  1.00  0.00    -0.787 OA 
HETATM   28  O   UNL     1     -12.334  13.610  63.025  1.00  0.00    -0.672 OA 
HETATM   29  C   UNL     1     -11.035  15.112  65.250  1.00  0.00    -0.405 C  
HETATM   30  C   UNL     1      -9.912  12.916  64.638  1.00  0.00    -0.153 C  
HETATM   31  C   UNL     1     -11.172  13.586  65.175  1.00  0.00    -0.309 C  
HETATM   32  C   UNL     1     -12.398  13.238  64.321  1.00  0.00    -0.340 C  
ENDBRANCH  24  26
ENDBRANCH  15  24
ENDBRANCH  13  15
ENDBRANCH   3  11
TORSDOF 5
ENDMDL
MODEL       33
REMARK 921   NORMALIZED FREE ENERGY PREDICTED BY IDOCK:   -6.65 KCAL/MOL
REMARK 922        TOTAL FREE ENERGY PREDICTED BY IDOCK:   -9.73 KCAL/MOL
REMARK 923 INTER-LIGAND FREE ENERGY PREDICTED BY IDOCK:   -8.49 KCAL/MOL
REMARK 924 INTRA-LIGAND FREE ENERGY PREDICTED BY IDOCK:   -1.24 KCAL/MOL
REMARK 927      BINDING AFFINITY PREDICTED BY RF-SCORE:    0.00 PKD
ROOT
HETATM    1  C   UNL     1      -8.990  11.284  64.538  1.00  0.00     0.085 C  
HETATM    2  C   UNL     1     -10.229  10.800  65.256  1.00  0.00    -0.285 C  
HETATM    3  C   UNL     1     -10.065  10.660  66.803  1.00  0.00    -0.224 C  
HETATM    4  O   UNL     1     -11.553  12.706  63.263  1.00  0.00    -0.489 OA 
HETATM    5  C   UNL     1     -11.363  11.570  66.852  1.00  0.00    -0.253 C  
HETATM    6  N   UNL     1     -11.261  11.805  65.494  1.00  0.00    -0.292 N  
HETATM    7  O   UNL     1     -13.340  12.954  64.911  1.00  0.00    -0.716 OA 
HETATM    8  O   UNL     1     -11.230  14.212  65.172  1.00  0.00    -0.311 OA 
HETATM    9  O   UNL     1     -12.156  11.988  67.658  1.00  0.00    -0.547 OA 
HETATM   10  S   UNL     1     -11.915  13.043  64.639  1.00  0.00    -0.420 S  
ENDROOT
BRANCH   3  11
HETATM   11  N   UNL     1     -10.148   9.302  67.425  1.00  0.00    -0.206 N  
HETATM   12  O   UNL     1      -7.919   9.064  67.980  1.00  0.00    -0.100 OA 
HETATM   13  C   UNL     1      -9.077   8.672  68.032  1.00  0.00    -0.140 C  
HETATM   14  H   UNL     1     -11.043   8.814  67.400  1.00  0.00     0.000 HD 
BRANCH  13  15
HETATM   15  C   UNL     1      -9.360   7.377  68.789  1.00  0.00    -0.144 C  
BRANCH  15  16
HETATM   16  C   UNL     1      -9.613   6.140  68.033  1.00  0.00    -0.115 A  
HETATM   17  C   UNL     1     -10.515   4.902  66.440  1.00  0.00    -0.280 A  
HETATM   18  N   UNL     1     -11.341   4.677  65.329  1.00  0.00    -1.078 NA 
HETATM   19  H2  UNL     1     -11.909   3.857  65.544  1.00  0.00     0.000 HD 
HETATM   20  C   UNL     1      -8.961   4.933  68.255  1.00  0.00    -0.109 A  
HETATM   21  H1  UNL     1     -11.966   5.370  64.919  1.00  0.00     0.000 HD 
HETATM   22  S   UNL     1      -9.478   3.753  67.118  1.00  0.00    -0.173 SA 
HETATM   23  N   UNL     1     -10.541   6.085  66.987  1.00  0.00    -0.279 NA 
ENDBRANCH  15  16
BRANCH  15  24
HETATM   24  N   UNL     1      -9.388   7.264  70.088  1.00  0.00    -0.155 NA 
HETATM   25  H   UNL     1      -9.063   6.439  70.592  1.00  0.00     0.000 HD 
BRANCH  24  26
HETATM   26  O   UNL     1      -9.913   8.399  70.712  1.00  0.00    -0.183 OA 
HETATM   27  O   UNL     1     -11.472  10.392  70.410  1.00  0.00    -0.291 OA 
HETATM   28  O   UNL     1     -13.170   9.571  71.630  1.00  0.00    -0.359 OA 
HETATM   29  C   UNL     1     -11.988   7.029  70.615  1.00  0.00    -0.361 C  
HETATM   30  C   UNL     1     -11.001   7.876  72.798  1.00  0.00    -0.456 C  
HETATM   31  C   UNL     1     -11.207   8.150  71.313  1.00  0.00    -0.260 C  
HETATM   32  C   UNL     1     -11.938   9.479  71.085  1.00  0.00    -0.348 C  
ENDBRANCH  24  26
ENDBRANCH  15  24
ENDBRANCH  13  15
ENDBRANCH   3  11
TORSDOF 5
ENDMDL
MODEL       34
REMARK 921   NORMALIZED FREE ENERGY PREDICTED BY IDOCK:   -6.64 KCAL/MOL
REMARK 922        TOTAL FREE ENERGY PREDICTED BY IDOCK:   -9.72 KCAL/MOL
REMARK 923 INTER-LIGAND FREE ENERGY PREDICTED BY IDOCK:   -8.72 KCAL/MOL
REMARK 924 INTRA-LIGAND FREE ENERGY PREDICTED BY IDOCK:   -1.01 KCAL/MOL
REMARK 927      BINDING AFFINITY PREDICTED BY RF-SCORE:    0.00 PKD
ROOT
HETATM    1  C   UNL     1     -10.122  19.709  68.594  1.00  0.00    -0.547 C  
HETATM    2  C   UNL     1      -9.560  18.324  68.369  1.00  0.00    -0.335 C  
HETATM    3  C   UNL     1     -10.532  17.345  67.638  1.00  0.00    -0.368 C  
HETATM    4  O   UNL     1      -7.056  19.960  67.726  1.00  0.00    -0.257 OA 
HETATM    5  C   UNL     1      -9.307  17.134  66.653  1.00  0.00    -0.260 C  
HETATM    6  N   UNL     1      -8.636  18.187  67.246  1.00  0.00    -0.237 N  
HETATM    7  O   UNL     1      -6.386  18.098  66.291  1.00  0.00    -0.177 OA 
HETATM    8  O   UNL     1      -8.038  19.751  65.487  1.00  0.00    -0.356 OA 
HETATM    9  O   UNL     1      -8.990  16.431  65.725  1.00  0.00    -0.455 OA 
HETATM   10  S   UNL     1      -7.412  19.076  66.616  1.00  0.00    -0.237 S  
ENDROOT
BRANCH   3  11
HETATM   11  N   UNL     1     -11.046  16.145  68.370  1.00  0.00    -0.346 N  
HETATM   12  O   UNL     1     -11.869  14.984  66.551  1.00  0.00    -0.215 OA 
HETATM   13  C   UNL     1     -11.589  15.040  67.741  1.00  0.00    -0.319 C  
HETATM   14  H   UNL     1     -10.993  16.144  69.389  1.00  0.00     0.000 HD 
BRANCH  13  15
HETATM   15  C   UNL     1     -11.893  13.819  68.605  1.00  0.00    -0.374 C  
BRANCH  15  16
HETATM   16  C   UNL     1     -11.128  12.579  68.398  1.00  0.00    -0.258 A  
HETATM   17  C   UNL     1      -9.383  11.236  68.579  1.00  0.00    -0.182 A  
HETATM   18  N   UNL     1      -8.084  10.898  68.986  1.00  0.00    -0.214 NA 
HETATM   19  H2  UNL     1      -7.603  10.530  68.165  1.00  0.00     0.000 HD 
HETATM   20  C   UNL     1     -11.635  11.430  67.804  1.00  0.00    -0.251 A  
HETATM   21  H1  UNL     1      -7.435  11.536  69.447  1.00  0.00     0.000 HD 
HETATM   22  S   UNL     1     -10.458  10.178  67.817  1.00  0.00    -0.250 SA 
HETATM   23  N   UNL     1      -9.797  12.449  68.813  1.00  0.00    -0.068 NA 
ENDBRANCH  15  16
BRANCH  15  24
HETATM   24  N   UNL     1     -12.792  13.780  69.549  1.00  0.00    -0.028 NA 
HETATM   25  H   UNL     1     -13.793  13.691  69.375  1.00  0.00     0.000 HD 
BRANCH  24  26
HETATM   26  O   UNL     1     -12.231  13.873  70.826  1.00  0.00    -0.338 OA 
HETATM   27  O   UNL     1     -11.176  15.466  72.511  1.00  0.00    -0.361 OA 
HETATM   28  O   UNL     1     -12.971  15.639  73.852  1.00  0.00    -0.518 OA 
HETATM   29  C   UNL     1     -14.324  15.154  71.239  1.00  0.00    -0.512 C  
HETATM   30  C   UNL     1     -13.717  13.057  72.540  1.00  0.00    -0.501 C  
HETATM   31  C   UNL     1     -13.194  14.296  71.822  1.00  0.00    -0.367 C  
HETATM   32  C   UNL     1     -12.341  15.165  72.756  1.00  0.00    -0.385 C  
ENDBRANCH  24  26
ENDBRANCH  15  24
ENDBRANCH  13  15
ENDBRANCH   3  11
TORSDOF 5
ENDMDL
MODEL       35
REMARK 921   NORMALIZED FREE ENERGY PREDICTED BY IDOCK:   -6.55 KCAL/MOL
REMARK 922        TOTAL FREE ENERGY PREDICTED BY IDOCK:   -9.61 KCAL/MOL
REMARK 923 INTER-LIGAND FREE ENERGY PREDICTED BY IDOCK:   -8.21 KCAL/MOL
REMARK 924 INTRA-LIGAND FREE ENERGY PREDICTED BY IDOCK:   -1.41 KCAL/MOL
REMARK 927      BINDING AFFINITY PREDICTED BY RF-SCORE:    0.00 PKD
ROOT
HETATM    1  C   UNL     1      -7.428  15.729  69.385  1.00  0.00    -0.216 C  
HETATM    2  C   UNL     1      -8.399  15.695  68.227  1.00  0.00    -0.154 C  
HETATM    3  C   UNL     1      -9.828  15.186  68.598  1.00  0.00    -0.218 C  
HETATM    4  O   UNL     1      -7.010  18.349  67.603  1.00  0.00    -0.204 OA 
HETATM    5  C   UNL     1     -10.301  16.538  67.917  1.00  0.00    -0.294 C  
HETATM    6  N   UNL     1      -8.992  16.977  67.856  1.00  0.00    -0.224 N  
HETATM    7  O   UNL     1      -9.086  19.006  66.493  1.00  0.00    -0.315 OA 
HETATM    8  O   UNL     1      -8.899  19.142  68.954  1.00  0.00    -0.349 OA 
HETATM    9  O   UNL     1     -11.323  17.085  67.584  1.00  0.00    -0.035 OA 
HETATM   10  S   UNL     1      -8.459  18.521  67.712  1.00  0.00    -0.275 S  
ENDROOT
BRANCH   3  11
HETATM   11  N   UNL     1     -10.322  13.904  68.007  1.00  0.00    -0.239 N  
HETATM   12  O   UNL     1      -8.448  12.618  68.414  1.00  0.00    -0.168 OA 
HETATM   13  C   UNL     1      -9.612  12.718  68.051  1.00  0.00    -0.217 C  
HETATM   14  H   UNL     1     -11.232  13.905  67.545  1.00  0.00     0.000 HD 
BRANCH  13  15
HETATM   15  C   UNL     1     -10.325  11.454  67.576  1.00  0.00    -0.195 C  
BRANCH  15  16
HETATM   16  C   UNL     1     -10.549  10.353  68.525  1.00  0.00    -0.209 A  
HETATM   17  C   UNL     1     -11.240   9.427  70.410  1.00  0.00    -0.262 A  
HETATM   18  N   UNL     1     -11.815   9.441  71.689  1.00  0.00    -0.374 NA 
HETATM   19  H2  UNL     1     -11.176   8.940  72.306  1.00  0.00     0.000 HD 
HETATM   20  C   UNL     1     -10.294   9.014  68.254  1.00  0.00    -0.209 A  
HETATM   21  H1  UNL     1     -12.106  10.283  72.186  1.00  0.00     0.000 HD 
HETATM   22  S   UNL     1     -10.759   8.032  69.586  1.00  0.00    -0.164 SA 
HETATM   23  N   UNL     1     -11.072  10.570  69.806  1.00  0.00    -0.275 NA 
ENDBRANCH  15  16
BRANCH  15  24
HETATM   24  N   UNL     1     -10.777  11.264  66.368  1.00  0.00    -0.270 NA 
HETATM   25  H   UNL     1     -10.362  10.609  65.704  1.00  0.00     0.000 HD 
BRANCH  24  26
HETATM   26  O   UNL     1     -11.892  12.055  66.084  1.00  0.00    -0.546 OA 
HETATM   27  O   UNL     1     -12.814  14.430  66.143  1.00  0.00    -0.251 OA 
HETATM   28  O   UNL     1     -12.613  14.834  63.942  1.00  0.00    -0.834 OA 
HETATM   29  C   UNL     1     -10.360  12.917  64.323  1.00  0.00    -0.396 C  
HETATM   30  C   UNL     1     -12.602  11.846  63.789  1.00  0.00    -0.509 C  
HETATM   31  C   UNL     1     -11.805  12.685  64.782  1.00  0.00    -0.380 C  
HETATM   32  C   UNL     1     -12.472  14.044  65.029  1.00  0.00    -0.425 C  
ENDBRANCH  24  26
ENDBRANCH  15  24
ENDBRANCH  13  15
ENDBRANCH   3  11
TORSDOF 5
ENDMDL
MODEL       36
REMARK 921   NORMALIZED FREE ENERGY PREDICTED BY IDOCK:   -6.55 KCAL/MOL
REMARK 922        TOTAL FREE ENERGY PREDICTED BY IDOCK:   -9.61 KCAL/MOL
REMARK 923 INTER-LIGAND FREE ENERGY PREDICTED BY IDOCK:   -8.55 KCAL/MOL
REMARK 924 INTRA-LIGAND FREE ENERGY PREDICTED BY IDOCK:   -1.06 KCAL/MOL
REMARK 927      BINDING AFFINITY PREDICTED BY RF-SCORE:    0.00 PKD
ROOT
HETATM    1  C   UNL     1     -12.583  11.355  71.249  1.00  0.00    -0.480 C  
HETATM    2  C   UNL     1     -11.990  10.598  70.082  1.00  0.00    -0.334 C  
HETATM    3  C   UNL     1     -10.547  11.048  69.688  1.00  0.00    -0.083 C  
HETATM    4  O   UNL     1     -13.340   8.262  71.524  1.00  0.00    -0.325 OA 
HETATM    5  C   UNL     1     -10.211   9.505  69.830  1.00  0.00    -0.228 C  
HETATM    6  N   UNL     1     -11.454   9.275  70.389  1.00  0.00    -0.246 N  
HETATM    7  O   UNL     1     -11.635   6.838  70.504  1.00  0.00    -0.332 OA 
HETATM    8  O   UNL     1     -11.099   8.164  72.519  1.00  0.00    -0.334 OA 
HETATM    9  O   UNL     1      -9.297   8.745  69.621  1.00  0.00    -0.154 OA 
HETATM   10  S   UNL     1     -11.913   8.008  71.322  1.00  0.00    -0.285 S  
ENDROOT
BRANCH   3  11
HETATM   11  N   UNL     1     -10.322  11.686  68.354  1.00  0.00    -0.198 N  
HETATM   12  O   UNL     1     -10.736  13.874  68.968  1.00  0.00    -0.240 OA 
HETATM   13  C   UNL     1     -10.354  13.053  68.144  1.00  0.00    -0.240 C  
HETATM   14  H   UNL     1     -10.134  11.080  67.556  1.00  0.00     0.000 HD 
BRANCH  13  15
HETATM   15  C   UNL     1      -9.917  13.564  66.774  1.00  0.00    -0.269 C  
BRANCH  15  16
HETATM   16  C   UNL     1     -10.594  13.064  65.568  1.00  0.00    -0.282 A  
HETATM   17  C   UNL     1     -10.867  11.753  63.810  1.00  0.00    -0.424 A  
HETATM   18  N   UNL     1     -10.503  10.719  62.935  1.00  0.00    -0.741 NA 
HETATM   19  H2  UNL     1     -10.565  11.096  61.989  1.00  0.00     0.000 HD 
HETATM   20  C   UNL     1     -11.834  13.502  65.120  1.00  0.00    -0.343 A  
HETATM   21  H1  UNL     1      -9.630  10.194  62.986  1.00  0.00     0.000 HD 
HETATM   22  S   UNL     1     -12.314  12.621  63.725  1.00  0.00    -0.472 SA 
HETATM   23  N   UNL     1     -10.036  12.062  64.764  1.00  0.00    -0.244 NA 
ENDBRANCH  15  16
BRANCH  15  24
HETATM   24  N   UNL     1      -8.974  14.442  66.574  1.00  0.00    -0.447 NA 
HETATM   25  H   UNL     1      -8.006  14.196  66.363  1.00  0.00     0.000 HD 
BRANCH  24  26
HETATM   26  O   UNL     1      -9.434  15.756  66.679  1.00  0.00    -0.228 OA 
HETATM   27  O   UNL     1     -10.606  17.422  68.211  1.00  0.00    -0.365 OA 
HETATM   28  O   UNL     1      -8.763  18.570  68.790  1.00  0.00    -0.313 OA 
HETATM   29  C   UNL     1      -7.567  15.880  68.318  1.00  0.00    -0.135 C  
HETATM   30  C   UNL     1      -7.695  17.373  66.266  1.00  0.00    -0.340 C  
HETATM   31  C   UNL     1      -8.480  16.625  67.337  1.00  0.00    -0.188 C  
HETATM   32  C   UNL     1      -9.390  17.574  68.129  1.00  0.00    -0.276 C  
ENDBRANCH  24  26
ENDBRANCH  15  24
ENDBRANCH  13  15
ENDBRANCH   3  11
TORSDOF 5
ENDMDL
MODEL       37
REMARK 921   NORMALIZED FREE ENERGY PREDICTED BY IDOCK:   -6.54 KCAL/MOL
REMARK 922        TOTAL FREE ENERGY PREDICTED BY IDOCK:   -9.60 KCAL/MOL
REMARK 923 INTER-LIGAND FREE ENERGY PREDICTED BY IDOCK:   -8.47 KCAL/MOL
REMARK 924 INTRA-LIGAND FREE ENERGY PREDICTED BY IDOCK:   -1.13 KCAL/MOL
REMARK 927      BINDING AFFINITY PREDICTED BY RF-SCORE:    0.00 PKD
ROOT
HETATM    1  C   UNL     1      -7.561  16.027  69.178  1.00  0.00    -0.225 C  
HETATM    2  C   UNL     1      -8.768  15.648  68.348  1.00  0.00    -0.178 C  
HETATM    3  C   UNL     1      -9.816  14.768  69.099  1.00  0.00    -0.164 C  
HETATM    4  O   UNL     1      -8.457  18.552  67.436  1.00  0.00    -0.254 OA 
HETATM    5  C   UNL     1     -10.839  15.885  68.628  1.00  0.00    -0.291 C  
HETATM    6  N   UNL     1      -9.791  16.681  68.206  1.00  0.00    -0.245 N  
HETATM    7  O   UNL     1     -10.861  18.517  66.994  1.00  0.00    -0.364 OA 
HETATM    8  O   UNL     1     -10.028  18.836  69.299  1.00  0.00    -0.294 OA 
HETATM    9  O   UNL     1     -12.027  16.093  68.621  1.00  0.00    -0.254 OA 
HETATM   10  S   UNL     1      -9.798  18.302  67.964  1.00  0.00    -0.349 S  
ENDROOT
BRANCH   3  11
HETATM   11  N   UNL     1     -10.059  13.367  68.635  1.00  0.00    -0.363 N  
HETATM   12  O   UNL     1     -11.852  12.878  70.005  1.00  0.00    -0.326 OA 
HETATM   13  C   UNL     1     -11.112  12.586  69.075  1.00  0.00    -0.234 C  
HETATM   14  H   UNL     1      -9.411  12.966  67.956  1.00  0.00     0.000 HD 
BRANCH  13  15
HETATM   15  C   UNL     1     -11.340  11.252  68.370  1.00  0.00    -0.281 C  
BRANCH  15  16
HETATM   16  C   UNL     1     -10.999  11.120  66.945  1.00  0.00    -0.273 A  
HETATM   17  C   UNL     1     -11.053  11.662  64.803  1.00  0.00    -0.264 A  
HETATM   18  N   UNL     1     -11.473  12.422  63.701  1.00  0.00    -0.452 NA 
HETATM   19  H2  UNL     1     -11.786  11.762  62.989  1.00  0.00     0.000 HD 
HETATM   20  C   UNL     1     -10.071  10.219  66.436  1.00  0.00    -0.234 A  
HETATM   21  H1  UNL     1     -12.168  13.166  63.740  1.00  0.00     0.000 HD 
HETATM   22  S   UNL     1      -9.900  10.429  64.739  1.00  0.00    -0.342 SA 
HETATM   23  N   UNL     1     -11.582  11.930  65.964  1.00  0.00    -0.433 NA 
ENDBRANCH  15  16
BRANCH  15  24
HETATM   24  N   UNL     1     -11.815  10.180  68.941  1.00  0.00    -0.564 NA 
HETATM   25  H   UNL     1     -12.805   9.931  68.944  1.00  0.00     0.000 HD 
BRANCH  24  26
HETATM   26  O   UNL     1     -10.820   9.411  69.549  1.00  0.00    -0.235 OA 
HETATM   27  O   UNL     1      -9.027   9.404  71.360  1.00  0.00    -0.284 OA 
HETATM   28  O   UNL     1     -10.168   8.156  72.839  1.00  0.00    -0.307 OA 
HETATM   29  C   UNL     1     -12.434   9.499  71.440  1.00  0.00    -0.450 C  
HETATM   30  C   UNL     1     -11.665   7.316  70.389  1.00  0.00    -0.219 C  
HETATM   31  C   UNL     1     -11.288   8.749  70.749  1.00  0.00    -0.272 C  
HETATM   32  C   UNL     1     -10.050   8.791  71.654  1.00  0.00    -0.319 C  
ENDBRANCH  24  26
ENDBRANCH  15  24
ENDBRANCH  13  15
ENDBRANCH   3  11
TORSDOF 5
ENDMDL
MODEL       38
REMARK 921   NORMALIZED FREE ENERGY PREDICTED BY IDOCK:   -6.53 KCAL/MOL
REMARK 922        TOTAL FREE ENERGY PREDICTED BY IDOCK:   -9.59 KCAL/MOL
REMARK 923 INTER-LIGAND FREE ENERGY PREDICTED BY IDOCK:   -8.42 KCAL/MOL
REMARK 924 INTRA-LIGAND FREE ENERGY PREDICTED BY IDOCK:   -1.17 KCAL/MOL
REMARK 927      BINDING AFFINITY PREDICTED BY RF-SCORE:    0.00 PKD
ROOT
HETATM    1  C   UNL     1     -11.135  16.023  67.913  1.00  0.00    -0.307 C  
HETATM    2  C   UNL     1     -10.750  14.638  67.446  1.00  0.00    -0.280 C  
HETATM    3  C   UNL     1     -11.585  13.485  68.087  1.00  0.00    -0.333 C  
HETATM    4  O   UNL     1     -10.565  16.108  64.769  1.00  0.00    -0.630 OA 
HETATM    5  C   UNL     1     -11.834  13.056  66.581  1.00  0.00    -0.393 C  
HETATM    6  N   UNL     1     -11.270  14.239  66.141  1.00  0.00    -0.325 N  
HETATM    7  O   UNL     1     -11.062  13.958  63.720  1.00  0.00     0.080 OA 
HETATM    8  O   UNL     1     -12.886  15.317  64.684  1.00  0.00    -0.100 OA 
HETATM    9  O   UNL     1     -12.326  12.148  65.958  1.00  0.00    -0.550 OA 
HETATM   10  S   UNL     1     -11.473  14.965  64.685  1.00  0.00    -0.345 S  
ENDROOT
BRANCH   3  11
HETATM   11  N   UNL     1     -10.902  12.501  68.984  1.00  0.00    -0.376 N  
HETATM   12  O   UNL     1     -12.509  10.843  68.928  1.00  0.00    -0.431 OA 
HETATM   13  C   UNL     1     -11.395  11.236  69.247  1.00  0.00    -0.287 C  
HETATM   14  H   UNL     1     -10.025  12.779  69.424  1.00  0.00     0.000 HD 
BRANCH  13  15
HETATM   15  C   UNL     1     -10.495  10.279  70.024  1.00  0.00    -0.241 C  
BRANCH  15  16
HETATM   16  C   UNL     1     -11.077   9.436  71.079  1.00  0.00    -0.344 A  
HETATM   17  C   UNL     1     -12.666   8.727  72.443  1.00  0.00    -0.368 A  
HETATM   18  N   UNL     1     -13.950   8.747  73.007  1.00  0.00    -1.092 NA 
HETATM   19  H2  UNL     1     -13.828   8.750  74.020  1.00  0.00     0.000 HD 
HETATM   20  C   UNL     1     -10.438   8.349  71.664  1.00  0.00    -0.252 A  
HETATM   21  H1  UNL     1     -14.667   9.439  72.794  1.00  0.00     0.000 HD 
HETATM   22  S   UNL     1     -11.477   7.579  72.796  1.00  0.00    -0.253 SA 
HETATM   23  N   UNL     1     -12.368   9.654  71.577  1.00  0.00    -0.364 NA 
ENDBRANCH  15  16
BRANCH  15  24
HETATM   24  N   UNL     1      -9.215  10.130  69.821  1.00  0.00    -0.364 NA 
HETATM   25  H   UNL     1      -8.549   9.885  70.554  1.00  0.00     0.000 HD 
BRANCH  24  26
HETATM   26  O   UNL     1      -8.857  10.344  68.488  1.00  0.00    -0.130 OA 
HETATM   27  O   UNL     1      -8.478  12.127  66.707  1.00  0.00    -0.185 OA 
HETATM   28  O   UNL     1      -6.233  12.061  66.758  1.00  0.00    -0.129 OA 
HETATM   29  C   UNL     1      -6.836  11.301  69.578  1.00  0.00    -0.115 C  
HETATM   30  C   UNL     1      -6.725   9.359  67.943  1.00  0.00    -0.067 C  
HETATM   31  C   UNL     1      -7.448  10.643  68.335  1.00  0.00    -0.093 C  
HETATM   32  C   UNL     1      -7.449  11.659  67.185  1.00  0.00    -0.146 C  
ENDBRANCH  24  26
ENDBRANCH  15  24
ENDBRANCH  13  15
ENDBRANCH   3  11
TORSDOF 5
ENDMDL
MODEL       39
REMARK 921   NORMALIZED FREE ENERGY PREDICTED BY IDOCK:   -6.51 KCAL/MOL
REMARK 922        TOTAL FREE ENERGY PREDICTED BY IDOCK:   -9.56 KCAL/MOL
REMARK 923 INTER-LIGAND FREE ENERGY PREDICTED BY IDOCK:   -8.69 KCAL/MOL
REMARK 924 INTRA-LIGAND FREE ENERGY PREDICTED BY IDOCK:   -0.87 KCAL/MOL
REMARK 927      BINDING AFFINITY PREDICTED BY RF-SCORE:    0.00 PKD
ROOT
HETATM    1  C   UNL     1     -10.339  15.102  69.089  1.00  0.00    -0.249 C  
HETATM    2  C   UNL     1     -10.245  13.710  68.506  1.00  0.00    -0.234 C  
HETATM    3  C   UNL     1     -11.448  12.780  68.861  1.00  0.00    -0.305 C  
HETATM    4  O   UNL     1      -9.221  15.301  66.102  1.00  0.00    -0.298 OA 
HETATM    5  C   UNL     1     -11.528  12.568  67.291  1.00  0.00    -0.353 C  
HETATM    6  N   UNL     1     -10.612  13.585  67.098  1.00  0.00    -0.263 N  
HETATM    7  O   UNL     1     -10.058  13.468  64.718  1.00  0.00    -0.333 OA 
HETATM    8  O   UNL     1     -11.614  15.187  65.573  1.00  0.00    -0.272 OA 
HETATM    9  O   UNL     1     -12.118  11.887  66.490  1.00  0.00    -0.568 OA 
HETATM   10  S   UNL     1     -10.362  14.462  65.735  1.00  0.00    -0.344 S  
ENDROOT
BRANCH   3  11
HETATM   11  N   UNL     1     -11.209  11.572  69.711  1.00  0.00    -0.455 N  
HETATM   12  O   UNL     1      -9.451  10.675  68.512  1.00  0.00    -0.161 OA 
HETATM   13  C   UNL     1     -10.173  10.680  69.500  1.00  0.00    -0.158 C  
HETATM   14  H   UNL     1     -11.845  11.397  70.489  1.00  0.00     0.000 HD 
BRANCH  13  15
HETATM   15  C   UNL     1      -9.943   9.607  70.560  1.00  0.00    -0.254 C  
BRANCH  15  16
HETATM   16  C   UNL     1     -11.095   8.873  71.106  1.00  0.00    -0.285 A  
HETATM   17  C   UNL     1     -12.938   8.617  72.299  1.00  0.00    -0.381 A  
HETATM   18  N   UNL     1     -13.948   9.046  73.172  1.00  0.00    -1.215 NA 
HETATM   19  H2  UNL     1     -14.016   8.346  73.912  1.00  0.00     0.000 HD 
HETATM   20  C   UNL     1     -11.446   7.576  70.750  1.00  0.00    -0.284 A  
HETATM   21  H1  UNL     1     -13.976   9.958  73.626  1.00  0.00     0.000 HD 
HETATM   22  S   UNL     1     -12.893   7.105  71.547  1.00  0.00    -0.365 SA 
HETATM   23  N   UNL     1     -11.967   9.447  72.039  1.00  0.00    -0.332 NA 
ENDBRANCH  15  16
BRANCH  15  24
HETATM   24  N   UNL     1      -8.776   9.264  71.031  1.00  0.00    -0.278 NA 
HETATM   25  H   UNL     1      -7.917   9.274  70.481  1.00  0.00     0.000 HD 
BRANCH  24  26
HETATM   26  O   UNL     1      -8.833   8.880  72.373  1.00  0.00    -0.396 OA 
HETATM   27  O   UNL     1      -9.967   7.310  74.030  1.00  0.00    -0.300 OA 
HETATM   28  O   UNL     1      -8.251   5.873  74.230  1.00  0.00    -0.106 OA 
HETATM   29  C   UNL     1      -7.814   6.814  71.434  1.00  0.00    -0.098 C  
HETATM   30  C   UNL     1      -6.680   8.213  73.227  1.00  0.00    -0.124 C  
HETATM   31  C   UNL     1      -8.005   7.725  72.653  1.00  0.00    -0.112 C  
HETATM   32  C   UNL     1      -8.830   6.976  73.708  1.00  0.00    -0.167 C  
ENDBRANCH  24  26
ENDBRANCH  15  24
ENDBRANCH  13  15
ENDBRANCH   3  11
TORSDOF 5
ENDMDL
MODEL       40
REMARK 921   NORMALIZED FREE ENERGY PREDICTED BY IDOCK:   -6.51 KCAL/MOL
REMARK 922        TOTAL FREE ENERGY PREDICTED BY IDOCK:   -9.56 KCAL/MOL
REMARK 923 INTER-LIGAND FREE ENERGY PREDICTED BY IDOCK:   -8.58 KCAL/MOL
REMARK 924 INTRA-LIGAND FREE ENERGY PREDICTED BY IDOCK:   -0.98 KCAL/MOL
REMARK 927      BINDING AFFINITY PREDICTED BY RF-SCORE:    0.00 PKD
ROOT
HETATM    1  C   UNL     1      -9.907  10.719  63.574  1.00  0.00    -0.401 C  
HETATM    2  C   UNL     1      -9.479  11.180  64.949  1.00  0.00    -0.219 C  
HETATM    3  C   UNL     1     -10.613  11.144  66.023  1.00  0.00    -0.239 C  
HETATM    4  O   UNL     1      -6.993   9.564  64.197  1.00  0.00    -0.100 OA 
HETATM    5  C   UNL     1      -9.563  10.295  66.855  1.00  0.00    -0.173 C  
HETATM    6  N   UNL     1      -8.743  10.204  65.747  1.00  0.00    -0.146 N  
HETATM    7  O   UNL     1      -6.669   9.223  66.596  1.00  0.00    -0.074 OA 
HETATM    8  O   UNL     1      -8.306   7.847  65.357  1.00  0.00    -0.136 OA 
HETATM    9  O   UNL     1      -9.435   9.830  67.961  1.00  0.00    -0.131 OA 
HETATM   10  S   UNL     1      -7.567   9.098  65.459  1.00  0.00    -0.091 S  
ENDROOT
BRANCH   3  11
HETATM   11  N   UNL     1     -11.093  12.429  66.619  1.00  0.00    -0.275 N  
HETATM   12  O   UNL     1     -12.271  11.540  68.396  1.00  0.00    -0.540 OA 
HETATM   13  C   UNL     1     -11.807  12.504  67.802  1.00  0.00    -0.313 C  
HETATM   14  H   UNL     1     -10.883  13.297  66.127  1.00  0.00     0.000 HD 
BRANCH  13  15
HETATM   15  C   UNL     1     -12.061  13.892  68.382  1.00  0.00    -0.291 C  
BRANCH  15  16
HETATM   16  C   UNL     1     -11.369  15.054  67.804  1.00  0.00    -0.330 A  
HETATM   17  C   UNL     1     -10.751  16.432  66.190  1.00  0.00    -0.173 A  
HETATM   18  N   UNL     1     -10.701  16.884  64.863  1.00  0.00    -0.727 NA 
HETATM   19  H2  UNL     1      -9.718  17.044  64.642  1.00  0.00     0.000 HD 
HETATM   20  C   UNL     1     -10.681  16.011  68.541  1.00  0.00    -0.287 A  
HETATM   21  H1  UNL     1     -11.106  16.392  64.066  1.00  0.00     0.000 HD 
HETATM   22  S   UNL     1     -10.081  17.247  67.510  1.00  0.00    -0.326 SA 
HETATM   23  N   UNL     1     -11.367  15.308  66.427  1.00  0.00    -0.231 NA 
ENDBRANCH  15  16
BRANCH  15  24
HETATM   24  N   UNL     1     -12.872  14.149  69.370  1.00  0.00    -0.229 NA 
HETATM   25  H   UNL     1     -13.858  14.383  69.248  1.00  0.00     0.000 HD 
BRANCH  24  26
HETATM   26  O   UNL     1     -12.242  14.069  70.614  1.00  0.00    -0.328 OA 
HETATM   27  O   UNL     1     -11.171  15.432  72.483  1.00  0.00    -0.361 OA 
HETATM   28  O   UNL     1     -12.889  15.278  73.923  1.00  0.00    -0.516 OA 
HETATM   29  C   UNL     1     -14.369  15.138  71.338  1.00  0.00    -0.601 C  
HETATM   30  C   UNL     1     -13.578  12.900  72.245  1.00  0.00    -0.611 C  
HETATM   31  C   UNL     1     -13.163  14.268  71.714  1.00  0.00    -0.367 C  
HETATM   32  C   UNL     1     -12.302  15.026  72.733  1.00  0.00    -0.360 C  
ENDBRANCH  24  26
ENDBRANCH  15  24
ENDBRANCH  13  15
ENDBRANCH   3  11
TORSDOF 5
ENDMDL
MODEL       41
REMARK 921   NORMALIZED FREE ENERGY PREDICTED BY IDOCK:   -6.49 KCAL/MOL
REMARK 922        TOTAL FREE ENERGY PREDICTED BY IDOCK:   -9.53 KCAL/MOL
REMARK 923 INTER-LIGAND FREE ENERGY PREDICTED BY IDOCK:   -8.34 KCAL/MOL
REMARK 924 INTRA-LIGAND FREE ENERGY PREDICTED BY IDOCK:   -1.19 KCAL/MOL
REMARK 927      BINDING AFFINITY PREDICTED BY RF-SCORE:    0.00 PKD
ROOT
HETATM    1  C   UNL     1     -11.861  15.957  69.040  1.00  0.00    -0.328 C  
HETATM    2  C   UNL     1     -10.671  15.080  68.719  1.00  0.00    -0.241 C  
HETATM    3  C   UNL     1     -11.039  13.618  68.312  1.00  0.00    -0.256 C  
HETATM    4  O   UNL     1      -9.736  17.661  67.367  1.00  0.00    -0.271 OA 
HETATM    5  C   UNL     1     -10.143  13.928  67.040  1.00  0.00    -0.256 C  
HETATM    6  N   UNL     1     -10.086  15.263  67.393  1.00  0.00    -0.231 N  
HETATM    7  O   UNL     1      -8.437  16.232  65.869  1.00  0.00    -0.330 OA 
HETATM    8  O   UNL     1     -10.857  16.553  65.486  1.00  0.00    -0.298 OA 
HETATM    9  O   UNL     1      -9.681  13.353  66.086  1.00  0.00    -0.282 OA 
HETATM   10  S   UNL     1      -9.744  16.541  66.425  1.00  0.00    -0.303 S  
ENDROOT
BRANCH   3  11
HETATM   11  N   UNL     1     -10.618  12.488  69.197  1.00  0.00    -0.438 N  
HETATM   12  O   UNL     1     -12.354  11.041  68.722  1.00  0.00    -0.533 OA 
HETATM   13  C   UNL     1     -11.274  11.272  69.249  1.00  0.00    -0.272 C  
HETATM   14  H   UNL     1      -9.801  12.621  69.794  1.00  0.00     0.000 HD 
BRANCH  13  15
HETATM   15  C   UNL     1     -10.617  10.153  70.053  1.00  0.00    -0.287 C  
BRANCH  15  16
HETATM   16  C   UNL     1     -11.461   9.224  70.820  1.00  0.00    -0.292 A  
HETATM   17  C   UNL     1     -13.026   8.659  72.276  1.00  0.00    -0.381 A  
HETATM   18  N   UNL     1     -14.014   8.922  73.236  1.00  0.00    -1.217 NA 
HETATM   19  H2  UNL     1     -13.808   8.330  74.041  1.00  0.00     0.000 HD 
HETATM   20  C   UNL     1     -11.484   7.846  70.641  1.00  0.00    -0.238 A  
HETATM   21  H1  UNL     1     -14.238   9.848  73.600  1.00  0.00     0.000 HD 
HETATM   22  S   UNL     1     -12.655   7.125  71.672  1.00  0.00    -0.371 SA 
HETATM   23  N   UNL     1     -12.350   9.670  71.806  1.00  0.00    -0.387 NA 
ENDBRANCH  15  16
BRANCH  15  24
HETATM   24  N   UNL     1      -9.333   9.933  70.112  1.00  0.00    -0.368 NA 
HETATM   25  H   UNL     1      -8.867   9.505  70.913  1.00  0.00     0.000 HD 
BRANCH  24  26
HETATM   26  O   UNL     1      -8.665  10.350  68.958  1.00  0.00    -0.149 OA 
HETATM   27  O   UNL     1      -6.371  10.777  67.935  1.00  0.00    -0.060 OA 
HETATM   28  O   UNL     1      -6.307   8.918  66.675  1.00  0.00    -0.060 OA 
HETATM   29  C   UNL     1      -7.999   7.953  68.933  1.00  0.00    -0.123 C  
HETATM   30  C   UNL     1      -9.274   9.045  67.025  1.00  0.00    -0.169 C  
HETATM   31  C   UNL     1      -8.243   9.238  68.131  1.00  0.00    -0.119 C  
HETATM   32  C   UNL     1      -6.905   9.734  67.569  1.00  0.00    -0.082 C  
ENDBRANCH  24  26
ENDBRANCH  15  24
ENDBRANCH  13  15
ENDBRANCH   3  11
TORSDOF 5
ENDMDL
MODEL       42
REMARK 921   NORMALIZED FREE ENERGY PREDICTED BY IDOCK:   -6.49 KCAL/MOL
REMARK 922        TOTAL FREE ENERGY PREDICTED BY IDOCK:   -9.53 KCAL/MOL
REMARK 923 INTER-LIGAND FREE ENERGY PREDICTED BY IDOCK:   -8.26 KCAL/MOL
REMARK 924 INTRA-LIGAND FREE ENERGY PREDICTED BY IDOCK:   -1.26 KCAL/MOL
REMARK 927      BINDING AFFINITY PREDICTED BY RF-SCORE:    0.00 PKD
ROOT
HETATM    1  C   UNL     1      -8.050  15.328  68.337  1.00  0.00    -0.137 C  
HETATM    2  C   UNL     1      -8.826  14.673  67.217  1.00  0.00    -0.207 C  
HETATM    3  C   UNL     1      -9.944  13.692  67.694  1.00  0.00    -0.239 C  
HETATM    4  O   UNL     1      -8.607  17.494  66.055  1.00  0.00    -0.497 OA 
HETATM    5  C   UNL     1     -10.875  14.567  66.755  1.00  0.00    -0.305 C  
HETATM    6  N   UNL     1      -9.862  15.494  66.597  1.00  0.00    -0.245 N  
HETATM    7  O   UNL     1     -10.674  17.000  64.849  1.00  0.00    -0.728 OA 
HETATM    8  O   UNL     1     -10.755  17.662  67.229  1.00  0.00    -0.325 OA 
HETATM    9  O   UNL     1     -12.002  14.562  66.324  1.00  0.00    -0.382 OA 
HETATM   10  S   UNL     1     -10.002  17.061  66.137  1.00  0.00    -0.274 S  
ENDROOT
BRANCH   3  11
HETATM   11  N   UNL     1      -9.817  12.235  67.380  1.00  0.00    -0.196 N  
HETATM   12  O   UNL     1     -11.869  11.551  68.189  1.00  0.00    -0.510 OA 
HETATM   13  C   UNL     1     -10.833  11.318  67.581  1.00  0.00    -0.238 C  
HETATM   14  H   UNL     1      -8.933  11.899  66.997  1.00  0.00     0.000 HD 
BRANCH  13  15
HETATM   15  C   UNL     1     -10.624   9.907  67.037  1.00  0.00    -0.203 C  
BRANCH  15  16
HETATM   16  C   UNL     1      -9.900   9.722  65.770  1.00  0.00    -0.290 A  
HETATM   17  C   UNL     1      -9.275  10.238  63.714  1.00  0.00    -0.275 A  
HETATM   18  N   UNL     1      -9.277  11.023  62.551  1.00  0.00    -0.455 NA 
HETATM   19  H2  UNL     1      -9.437  10.389  61.767  1.00  0.00     0.000 HD 
HETATM   20  C   UNL     1      -8.962   8.724  65.536  1.00  0.00    -0.181 A  
HETATM   21  H1  UNL     1      -9.874  11.836  62.399  1.00  0.00     0.000 HD 
HETATM   22  S   UNL     1      -8.286   8.892  63.965  1.00  0.00    -0.157 SA 
HETATM   23  N   UNL     1     -10.087  10.575  64.676  1.00  0.00    -0.346 NA 
ENDBRANCH  15  16
BRANCH  15  24
HETATM   24  N   UNL     1     -11.034   8.816  67.621  1.00  0.00    -0.473 NA 
HETATM   25  H   UNL     1     -11.656   8.137  67.180  1.00  0.00     0.000 HD 
BRANCH  24  26
HETATM   26  O   UNL     1     -10.529   8.679  68.916  1.00  0.00    -0.215 OA 
HETATM   27  O   UNL     1     -11.130   8.085  71.320  1.00  0.00    -0.239 OA 
HETATM   28  O   UNL     1     -10.225   6.030  71.306  1.00  0.00    -0.194 OA 
HETATM   29  C   UNL     1     -10.979   6.280  68.432  1.00  0.00    -0.409 C  
HETATM   30  C   UNL     1      -8.665   7.154  69.015  1.00  0.00    -0.132 C  
HETATM   31  C   UNL     1     -10.166   7.311  69.226  1.00  0.00    -0.193 C  
HETATM   32  C   UNL     1     -10.538   7.200  70.710  1.00  0.00    -0.222 C  
ENDBRANCH  24  26
ENDBRANCH  15  24
ENDBRANCH  13  15
ENDBRANCH   3  11
TORSDOF 5
ENDMDL
MODEL       43
REMARK 921   NORMALIZED FREE ENERGY PREDICTED BY IDOCK:   -6.47 KCAL/MOL
REMARK 922        TOTAL FREE ENERGY PREDICTED BY IDOCK:   -9.51 KCAL/MOL
REMARK 923 INTER-LIGAND FREE ENERGY PREDICTED BY IDOCK:   -8.02 KCAL/MOL
REMARK 924 INTRA-LIGAND FREE ENERGY PREDICTED BY IDOCK:   -1.49 KCAL/MOL
REMARK 927      BINDING AFFINITY PREDICTED BY RF-SCORE:    0.00 PKD
ROOT
HETATM    1  C   UNL     1     -10.334  10.843  65.082  1.00  0.00    -0.344 C  
HETATM    2  C   UNL     1      -9.799  11.165  66.459  1.00  0.00    -0.208 C  
HETATM    3  C   UNL     1     -10.879  11.664  67.470  1.00  0.00    -0.237 C  
HETATM    4  O   UNL     1      -8.189   8.622  65.908  1.00  0.00    -0.111 OA 
HETATM    5  C   UNL     1     -10.307  10.507  68.391  1.00  0.00    -0.176 C  
HETATM    6  N   UNL     1      -9.564  10.019  67.334  1.00  0.00    -0.152 N  
HETATM    7  O   UNL     1      -8.117   8.318  68.332  1.00  0.00    -0.123 OA 
HETATM    8  O   UNL     1     -10.136   7.675  67.061  1.00  0.00    -0.214 OA 
HETATM    9  O   UNL     1     -10.422  10.096  69.519  1.00  0.00    -0.209 OA 
HETATM   10  S   UNL     1      -8.947   8.510  67.154  1.00  0.00    -0.132 S  
ENDROOT
BRANCH   3  11
HETATM   11  N   UNL     1     -10.800  13.065  67.988  1.00  0.00    -0.234 N  
HETATM   12  O   UNL     1     -11.929  14.112  66.267  1.00  0.00    -0.394 OA 
HETATM   13  C   UNL     1     -11.410  14.144  67.375  1.00  0.00    -0.327 C  
HETATM   14  H   UNL     1     -10.265  13.234  68.841  1.00  0.00     0.000 HD 
BRANCH  13  15
HETATM   15  C   UNL     1     -11.401  15.475  68.123  1.00  0.00    -0.345 C  
BRANCH  15  16
HETATM   16  C   UNL     1     -10.551  16.571  67.634  1.00  0.00    -0.321 A  
HETATM   17  C   UNL     1      -9.828  18.656  67.508  1.00  0.00    -0.320 A  
HETATM   18  N   UNL     1      -9.838  20.020  67.836  1.00  0.00    -0.391 NA 
HETATM   19  H2  UNL     1      -9.840  20.536  66.955  1.00  0.00     0.000 HD 
HETATM   20  C   UNL     1      -9.467  16.409  66.779  1.00  0.00    -0.247 A  
HETATM   21  H1  UNL     1     -10.527  20.467  68.441  1.00  0.00     0.000 HD 
HETATM   22  S   UNL     1      -8.687  17.915  66.506  1.00  0.00    -0.234 SA 
HETATM   23  N   UNL     1     -10.760  17.901  68.019  1.00  0.00    -0.352 NA 
ENDBRANCH  15  16
BRANCH  15  24
HETATM   24  N   UNL     1     -12.112  15.737  69.184  1.00  0.00    -0.543 NA 
HETATM   25  H   UNL     1     -12.177  16.664  69.608  1.00  0.00     0.000 HD 
BRANCH  24  26
HETATM   26  O   UNL     1     -12.773  14.610  69.677  1.00  0.00    -0.147 OA 
HETATM   27  O   UNL     1     -12.444  12.289  70.676  1.00  0.00    -0.315 OA 
HETATM   28  O   UNL     1     -12.923  12.857  72.797  1.00  0.00    -0.185 OA 
HETATM   29  C   UNL     1     -11.800  15.439  71.812  1.00  0.00    -0.483 C  
HETATM   30  C   UNL     1     -14.301  15.152  71.461  1.00  0.00    -0.660 C  
HETATM   31  C   UNL     1     -12.908  14.635  71.119  1.00  0.00    -0.343 C  
HETATM   32  C   UNL     1     -12.754  13.155  71.490  1.00  0.00    -0.269 C  
ENDBRANCH  24  26
ENDBRANCH  15  24
ENDBRANCH  13  15
ENDBRANCH   3  11
TORSDOF 5
ENDMDL
MODEL       44
REMARK 921   NORMALIZED FREE ENERGY PREDICTED BY IDOCK:   -6.45 KCAL/MOL
REMARK 922        TOTAL FREE ENERGY PREDICTED BY IDOCK:   -9.48 KCAL/MOL
REMARK 923 INTER-LIGAND FREE ENERGY PREDICTED BY IDOCK:   -8.12 KCAL/MOL
REMARK 924 INTRA-LIGAND FREE ENERGY PREDICTED BY IDOCK:   -1.36 KCAL/MOL
REMARK 927      BINDING AFFINITY PREDICTED BY RF-SCORE:    0.00 PKD
ROOT
HETATM    1  C   UNL     1     -10.700   6.570  68.053  1.00  0.00    -0.351 C  
HETATM    2  C   UNL     1     -10.070   7.917  68.327  1.00  0.00    -0.194 C  
HETATM    3  C   UNL     1     -10.909   9.135  67.823  1.00  0.00    -0.092 C  
HETATM    4  O   UNL     1      -9.409   6.539  70.977  1.00  0.00    -0.160 OA 
HETATM    5  C   UNL     1     -10.745   9.648  69.315  1.00  0.00    -0.226 C  
HETATM    6  N   UNL     1     -10.220   8.425  69.688  1.00  0.00    -0.204 N  
HETATM    7  O   UNL     1      -9.412   8.773  71.970  1.00  0.00    -0.281 OA 
HETATM    8  O   UNL     1     -11.546   7.601  71.548  1.00  0.00    -0.261 OA 
HETATM    9  O   UNL     1     -10.976  10.631  69.974  1.00  0.00    -0.282 OA 
HETATM   10  S   UNL     1     -10.145   7.785  71.196  1.00  0.00    -0.187 S  
ENDROOT
BRANCH   3  11
HETATM   11  N   UNL     1     -10.359   9.996  66.731  1.00  0.00    -0.227 N  
HETATM   12  O   UNL     1     -11.923  11.692  66.839  1.00  0.00    -0.567 OA 
HETATM   13  C   UNL     1     -10.874  11.237  66.403  1.00  0.00    -0.251 C  
HETATM   14  H   UNL     1      -9.562   9.649  66.198  1.00  0.00     0.000 HD 
BRANCH  13  15
HETATM   15  C   UNL     1     -10.092  12.079  65.398  1.00  0.00    -0.256 C  
BRANCH  15  16
HETATM   16  C   UNL     1     -10.093  13.544  65.528  1.00  0.00    -0.268 A  
HETATM   17  C   UNL     1     -10.662  15.613  64.996  1.00  0.00    -0.436 A  
HETATM   18  N   UNL     1     -11.317  16.586  64.228  1.00  0.00    -1.345 NA 
HETATM   19  H2  UNL     1     -10.619  17.287  63.980  1.00  0.00     0.000 HD 
HETATM   20  C   UNL     1      -9.478  14.245  66.558  1.00  0.00    -0.287 A  
HETATM   21  H1  UNL     1     -11.855  16.394  63.383  1.00  0.00     0.000 HD 
HETATM   22  S   UNL     1      -9.772  15.931  66.397  1.00  0.00    -0.312 SA 
HETATM   23  N   UNL     1     -10.751  14.371  64.610  1.00  0.00    -0.388 NA 
ENDBRANCH  15  16
BRANCH  15  24
HETATM   24  N   UNL     1      -9.391  11.598  64.409  1.00  0.00    -0.427 NA 
HETATM   25  H   UNL     1      -9.459  11.936  63.448  1.00  0.00     0.000 HD 
BRANCH  24  26
HETATM   26  O   UNL     1      -8.537  10.567  64.810  1.00  0.00    -0.177 OA 
HETATM   27  O   UNL     1      -8.424   8.101  65.440  1.00  0.00    -0.149 OA 
HETATM   28  O   UNL     1      -7.531   7.387  63.506  1.00  0.00    -0.089 OA 
HETATM   29  C   UNL     1      -9.073   9.744  62.524  1.00  0.00    -0.301 C  
HETATM   30  C   UNL     1      -6.701  10.252  63.281  1.00  0.00    -0.105 C  
HETATM   31  C   UNL     1      -8.083   9.761  63.696  1.00  0.00    -0.151 C  
HETATM   32  C   UNL     1      -8.017   8.357  64.310  1.00  0.00    -0.149 C  
ENDBRANCH  24  26
ENDBRANCH  15  24
ENDBRANCH  13  15
ENDBRANCH   3  11
TORSDOF 5
ENDMDL
MODEL       45
REMARK 921   NORMALIZED FREE ENERGY PREDICTED BY IDOCK:   -6.44 KCAL/MOL
REMARK 922        TOTAL FREE ENERGY PREDICTED BY IDOCK:   -9.47 KCAL/MOL
REMARK 923 INTER-LIGAND FREE ENERGY PREDICTED BY IDOCK:   -8.32 KCAL/MOL
REMARK 924 INTRA-LIGAND FREE ENERGY PREDICTED BY IDOCK:   -1.16 KCAL/MOL
REMARK 927      BINDING AFFINITY PREDICTED BY RF-SCORE:    0.00 PKD
ROOT
HETATM    1  C   UNL     1     -12.420   6.878  71.503  1.00  0.00    -0.420 C  
HETATM    2  C   UNL     1     -11.183   7.663  71.130  1.00  0.00    -0.261 C  
HETATM    3  C   UNL     1     -10.995   8.991  71.930  1.00  0.00    -0.353 C  
HETATM    4  O   UNL     1      -9.992   4.845  71.070  1.00  0.00    -0.189 OA 
HETATM    5  C   UNL     1      -9.556   8.401  72.240  1.00  0.00    -0.304 C  
HETATM    6  N   UNL     1      -9.928   7.183  71.703  1.00  0.00    -0.178 N  
HETATM    7  O   UNL     1      -7.850   5.897  71.597  1.00  0.00    -0.103 OA 
HETATM    8  O   UNL     1      -9.503   5.486  73.387  1.00  0.00    -0.138 OA 
HETATM    9  O   UNL     1      -8.519   8.743  72.752  1.00  0.00    -0.414 OA 
HETATM   10  S   UNL     1      -9.243   5.718  71.973  1.00  0.00    -0.146 S  
ENDROOT
BRANCH   3  11
HETATM   11  N   UNL     1     -11.067  10.296  71.202  1.00  0.00    -0.243 N  
HETATM   12  O   UNL     1     -13.314  10.250  70.675  1.00  0.00    -0.311 OA 
HETATM   13  C   UNL     1     -12.243  10.840  70.719  1.00  0.00    -0.381 C  
HETATM   14  H   UNL     1     -10.200  10.814  71.055  1.00  0.00     0.000 HD 
BRANCH  13  15
HETATM   15  C   UNL     1     -12.186  12.263  70.171  1.00  0.00    -0.226 C  
BRANCH  15  16
HETATM   16  C   UNL     1     -12.416  13.396  71.079  1.00  0.00    -0.353 A  
HETATM   17  C   UNL     1     -12.205  15.476  71.799  1.00  0.00    -0.394 A  
HETATM   18  N   UNL     1     -11.712  16.788  71.747  1.00  0.00    -0.485 NA 
HETATM   19  H2  UNL     1     -11.336  16.999  72.671  1.00  0.00     0.000 HD 
HETATM   20  C   UNL     1     -13.290  13.377  72.159  1.00  0.00    -0.520 A  
HETATM   21  H1  UNL     1     -11.030  17.126  71.068  1.00  0.00     0.000 HD 
HETATM   22  S   UNL     1     -13.334  14.916  72.924  1.00  0.00    -0.456 SA 
HETATM   23  N   UNL     1     -11.769  14.627  70.911  1.00  0.00    -0.298 NA 
ENDBRANCH  15  16
BRANCH  15  24
HETATM   24  N   UNL     1     -11.933  12.573  68.929  1.00  0.00    -0.281 NA 
HETATM   25  H   UNL     1     -12.403  13.327  68.426  1.00  0.00     0.000 HD 
BRANCH  24  26
HETATM   26  O   UNL     1     -10.949  11.758  68.365  1.00  0.00    -0.204 OA 
HETATM   27  O   UNL     1     -10.537   9.594  67.084  1.00  0.00    -0.256 OA 
HETATM   28  O   UNL     1     -10.158  10.552  65.087  1.00  0.00    -0.291 OA 
HETATM   29  C   UNL     1     -12.031  12.548  66.268  1.00  0.00    -0.410 C  
HETATM   30  C   UNL     1      -9.574  12.947  66.781  1.00  0.00    -0.246 C  
HETATM   31  C   UNL     1     -10.766  12.012  66.950  1.00  0.00    -0.244 C  
HETATM   32  C   UNL     1     -10.462  10.612  66.401  1.00  0.00    -0.213 C  
ENDBRANCH  24  26
ENDBRANCH  15  24
ENDBRANCH  13  15
ENDBRANCH   3  11
TORSDOF 5
ENDMDL
MODEL       46
REMARK 921   NORMALIZED FREE ENERGY PREDICTED BY IDOCK:   -6.44 KCAL/MOL
REMARK 922        TOTAL FREE ENERGY PREDICTED BY IDOCK:   -9.47 KCAL/MOL
REMARK 923 INTER-LIGAND FREE ENERGY PREDICTED BY IDOCK:   -8.17 KCAL/MOL
REMARK 924 INTRA-LIGAND FREE ENERGY PREDICTED BY IDOCK:   -1.30 KCAL/MOL
REMARK 927      BINDING AFFINITY PREDICTED BY RF-SCORE:    0.00 PKD
ROOT
HETATM    1  C   UNL     1     -10.998   6.772  67.419  1.00  0.00    -0.407 C  
HETATM    2  C   UNL     1     -10.162   8.031  67.467  1.00  0.00    -0.245 C  
HETATM    3  C   UNL     1     -10.806   9.201  68.276  1.00  0.00    -0.051 C  
HETATM    4  O   UNL     1      -7.931   5.968  67.819  1.00  0.00    -0.103 OA 
HETATM    5  C   UNL     1      -9.419   9.206  69.046  1.00  0.00    -0.152 C  
HETATM    6  N   UNL     1      -9.059   8.026  68.424  1.00  0.00    -0.136 N  
HETATM    7  O   UNL     1      -6.706   7.713  69.014  1.00  0.00    -0.047 OA 
HETATM    8  O   UNL     1      -8.480   6.434  70.165  1.00  0.00    -0.131 OA 
HETATM    9  O   UNL     1      -8.832   9.865  69.868  1.00  0.00    -0.203 OA 
HETATM   10  S   UNL     1      -7.933   6.939  68.913  1.00  0.00    -0.117 S  
ENDROOT
BRANCH   3  11
HETATM   11  N   UNL     1     -11.203  10.452  67.558  1.00  0.00    -0.340 N  
HETATM   12  O   UNL     1     -11.850  11.690  69.397  1.00  0.00    -0.299 OA 
HETATM   13  C   UNL     1     -11.607  11.608  68.201  1.00  0.00    -0.319 C  
HETATM   14  H   UNL     1     -11.175  10.452  66.538  1.00  0.00     0.000 HD 
BRANCH  13  15
HETATM   15  C   UNL     1     -11.796  12.858  67.345  1.00  0.00    -0.360 C  
BRANCH  15  16
HETATM   16  C   UNL     1     -11.622  12.768  65.887  1.00  0.00    -0.382 A  
HETATM   17  C   UNL     1     -10.526  12.360  64.012  1.00  0.00    -0.416 A  
HETATM   18  N   UNL     1      -9.404  11.986  63.259  1.00  0.00    -0.668 NA 
HETATM   19  H2  UNL     1      -9.270  12.706  62.549  1.00  0.00     0.000 HD 
HETATM   20  C   UNL     1     -12.636  12.964  64.958  1.00  0.00    -0.472 A  
HETATM   21  H1  UNL     1      -8.483  11.783  63.649  1.00  0.00     0.000 HD 
HETATM   22  S   UNL     1     -12.051  12.696  63.365  1.00  0.00    -0.445 SA 
HETATM   23  N   UNL     1     -10.390  12.448  65.305  1.00  0.00    -0.277 NA 
ENDBRANCH  15  16
BRANCH  15  24
HETATM   24  N   UNL     1     -12.120  14.034  67.807  1.00  0.00    -0.509 NA 
HETATM   25  H   UNL     1     -12.964  14.217  68.352  1.00  0.00     0.000 HD 
BRANCH  24  26
HETATM   26  O   UNL     1     -11.185  15.016  67.472  1.00  0.00    -0.312 OA 
HETATM   27  O   UNL     1     -10.886  17.484  66.909  1.00  0.00    -0.190 OA 
HETATM   28  O   UNL     1     -10.046  18.097  68.901  1.00  0.00    -0.381 OA 
HETATM   29  C   UNL     1     -11.779  15.823  69.749  1.00  0.00    -0.355 C  
HETATM   30  C   UNL     1      -9.410  15.181  69.095  1.00  0.00    -0.215 C  
HETATM   31  C   UNL     1     -10.736  15.768  68.627  1.00  0.00    -0.263 C  
HETATM   32  C   UNL     1     -10.552  17.178  68.050  1.00  0.00    -0.374 C  
ENDBRANCH  24  26
ENDBRANCH  15  24
ENDBRANCH  13  15
ENDBRANCH   3  11
TORSDOF 5
ENDMDL
MODEL       47
REMARK 921   NORMALIZED FREE ENERGY PREDICTED BY IDOCK:   -6.43 KCAL/MOL
REMARK 922        TOTAL FREE ENERGY PREDICTED BY IDOCK:   -9.46 KCAL/MOL
REMARK 923 INTER-LIGAND FREE ENERGY PREDICTED BY IDOCK:   -8.69 KCAL/MOL
REMARK 924 INTRA-LIGAND FREE ENERGY PREDICTED BY IDOCK:   -0.77 KCAL/MOL
REMARK 927      BINDING AFFINITY PREDICTED BY RF-SCORE:    0.00 PKD
ROOT
HETATM    1  C   UNL     1     -12.065  13.275  63.658  1.00  0.00    -0.551 C  
HETATM    2  C   UNL     1     -11.200  13.377  64.895  1.00  0.00    -0.331 C  
HETATM    3  C   UNL     1     -11.965  13.148  66.237  1.00  0.00    -0.415 C  
HETATM    4  O   UNL     1      -9.260  11.854  63.084  1.00  0.00    -0.221 OA 
HETATM    5  C   UNL     1     -10.830  12.074  66.504  1.00  0.00    -0.277 C  
HETATM    6  N   UNL     1     -10.388  12.203  65.201  1.00  0.00    -0.271 N  
HETATM    7  O   UNL     1      -8.292  10.942  65.135  1.00  0.00    -0.120 OA 
HETATM    8  O   UNL     1     -10.376   9.984  64.214  1.00  0.00     0.109 OA 
HETATM    9  O   UNL     1     -10.442  11.356  67.391  1.00  0.00    -0.192 OA 
HETATM   10  S   UNL     1      -9.492  11.135  64.337  1.00  0.00    -0.194 S  
ENDROOT
BRANCH   3  11
HETATM   11  N   UNL     1     -12.089  14.281  67.207  1.00  0.00    -0.557 N  
HETATM   12  O   UNL     1      -9.844  14.781  67.408  1.00  0.00    -0.220 OA 
HETATM   13  C   UNL     1     -11.018  15.044  67.632  1.00  0.00    -0.305 C  
HETATM   14  H   UNL     1     -13.015  14.501  67.575  1.00  0.00     0.000 HD 
BRANCH  13  15
HETATM   15  C   UNL     1     -11.326  16.281  68.471  1.00  0.00    -0.330 C  
BRANCH  15  16
HETATM   16  C   UNL     1     -10.609  17.536  68.198  1.00  0.00    -0.366 A  
HETATM   17  C   UNL     1     -10.132  19.379  67.075  1.00  0.00    -0.387 A  
HETATM   18  N   UNL     1     -10.275  20.287  66.015  1.00  0.00    -0.530 NA 
HETATM   19  H2  UNL     1      -9.339  20.465  65.650  1.00  0.00     0.000 HD 
HETATM   20  C   UNL     1      -9.674  18.113  69.049  1.00  0.00    -0.194 A  
HETATM   21  H1  UNL     1     -10.885  20.149  65.210  1.00  0.00     0.000 HD 
HETATM   22  S   UNL     1      -9.122  19.609  68.410  1.00  0.00    -0.293 SA 
HETATM   23  N   UNL     1     -10.834  18.282  67.034  1.00  0.00    -0.264 NA 
ENDBRANCH  15  16
BRANCH  15  24
HETATM   24  N   UNL     1     -12.205  16.328  69.433  1.00  0.00    -0.298 NA 
HETATM   25  H   UNL     1     -13.133  16.743  69.334  1.00  0.00     0.000 HD 
BRANCH  24  26
HETATM   26  O   UNL     1     -11.737  15.748  70.615  1.00  0.00    -0.324 OA 
HETATM   27  O   UNL     1     -11.725  15.948  73.155  1.00  0.00    -0.409 OA 
HETATM   28  O   UNL     1     -13.204  14.303  73.545  1.00  0.00    -0.421 OA 
HETATM   29  C   UNL     1     -14.157  15.232  70.876  1.00  0.00    -0.184 C  
HETATM   30  C   UNL     1     -12.367  13.430  70.809  1.00  0.00    -0.433 C  
HETATM   31  C   UNL     1     -12.709  14.858  71.217  1.00  0.00    -0.340 C  
HETATM   32  C   UNL     1     -12.477  15.083  72.716  1.00  0.00    -0.377 C  
ENDBRANCH  24  26
ENDBRANCH  15  24
ENDBRANCH  13  15
ENDBRANCH   3  11
TORSDOF 5
ENDMDL
MODEL       48
REMARK 921   NORMALIZED FREE ENERGY PREDICTED BY IDOCK:   -6.42 KCAL/MOL
REMARK 922        TOTAL FREE ENERGY PREDICTED BY IDOCK:   -9.45 KCAL/MOL
REMARK 923 INTER-LIGAND FREE ENERGY PREDICTED BY IDOCK:   -8.61 KCAL/MOL
REMARK 924 INTRA-LIGAND FREE ENERGY PREDICTED BY IDOCK:   -0.84 KCAL/MOL
REMARK 927      BINDING AFFINITY PREDICTED BY RF-SCORE:    0.00 PKD
ROOT
HETATM    1  C   UNL     1      -9.986  11.794  63.409  1.00  0.00    -0.446 C  
HETATM    2  C   UNL     1     -10.988  11.419  64.477  1.00  0.00    -0.277 C  
HETATM    3  C   UNL     1     -10.352  11.019  65.846  1.00  0.00    -0.257 C  
HETATM    4  O   UNL     1     -12.467  13.803  63.255  1.00  0.00    -0.819 OA 
HETATM    5  C   UNL     1     -11.338  12.115  66.431  1.00  0.00    -0.356 C  
HETATM    6  N   UNL     1     -11.646  12.535  65.151  1.00  0.00    -0.338 N  
HETATM    7  O   UNL     1     -13.510  14.091  65.446  1.00  0.00    -0.679 OA 
HETATM    8  O   UNL     1     -11.218  14.923  65.046  1.00  0.00    -0.365 OA 
HETATM    9  O   UNL     1     -11.711  12.532  67.499  1.00  0.00    -0.355 OA 
HETATM   10  S   UNL     1     -12.271  13.981  64.694  1.00  0.00    -0.421 S  
ENDROOT
BRANCH   3  11
HETATM   11  N   UNL     1     -10.507   9.615  66.339  1.00  0.00    -0.164 N  
HETATM   12  O   UNL     1      -8.945   9.695  68.038  1.00  0.00    -0.123 OA 
HETATM   13  C   UNL     1      -9.846   9.116  67.447  1.00  0.00    -0.184 C  
HETATM   14  H   UNL     1     -11.135   8.992  65.830  1.00  0.00     0.000 HD 
BRANCH  13  15
HETATM   15  C   UNL     1     -10.250   7.729  67.940  1.00  0.00    -0.206 C  
BRANCH  15  16
HETATM   16  C   UNL     1      -9.861   6.544  67.160  1.00  0.00    -0.148 A  
HETATM   17  C   UNL     1      -8.454   5.074  66.297  1.00  0.00    -0.112 A  
HETATM   18  N   UNL     1      -7.183   4.537  66.045  1.00  0.00    -0.074 NA 
HETATM   19  H2  UNL     1      -7.122   4.380  65.039  1.00  0.00     0.000 HD 
HETATM   20  C   UNL     1     -10.756   5.651  66.582  1.00  0.00    -0.268 A  
HETATM   21  H1  UNL     1      -6.304   4.967  66.330  1.00  0.00     0.000 HD 
HETATM   22  S   UNL     1      -9.911   4.361  65.824  1.00  0.00    -0.236 SA 
HETATM   23  N   UNL     1      -8.520   6.200  66.950  1.00  0.00    -0.106 NA 
ENDBRANCH  15  16
BRANCH  15  24
HETATM   24  N   UNL     1     -10.922   7.494  69.033  1.00  0.00    -0.424 NA 
HETATM   25  H   UNL     1     -11.211   6.561  69.331  1.00  0.00     0.000 HD 
BRANCH  24  26
HETATM   26  O   UNL     1     -11.202   8.659  69.750  1.00  0.00    -0.139 OA 
HETATM   27  O   UNL     1     -13.032  10.325  70.358  1.00  0.00    -0.272 OA 
HETATM   28  O   UNL     1     -13.369   9.577  72.450  1.00  0.00    -0.446 OA 
HETATM   29  C   UNL     1     -12.501   7.047  71.130  1.00  0.00    -0.407 C  
HETATM   30  C   UNL     1     -10.617   8.464  72.080  1.00  0.00    -0.387 C  
HETATM   31  C   UNL     1     -11.749   8.383  71.062  1.00  0.00    -0.267 C  
HETATM   32  C   UNL     1     -12.753   9.528  71.249  1.00  0.00    -0.332 C  
ENDBRANCH  24  26
ENDBRANCH  15  24
ENDBRANCH  13  15
ENDBRANCH   3  11
TORSDOF 5
ENDMDL
MODEL       49
REMARK 921   NORMALIZED FREE ENERGY PREDICTED BY IDOCK:   -6.40 KCAL/MOL
REMARK 922        TOTAL FREE ENERGY PREDICTED BY IDOCK:   -9.42 KCAL/MOL
REMARK 923 INTER-LIGAND FREE ENERGY PREDICTED BY IDOCK:   -8.38 KCAL/MOL
REMARK 924 INTRA-LIGAND FREE ENERGY PREDICTED BY IDOCK:   -1.03 KCAL/MOL
REMARK 927      BINDING AFFINITY PREDICTED BY RF-SCORE:    0.00 PKD
ROOT
HETATM    1  C   UNL     1     -10.619   7.438  68.675  1.00  0.00    -0.182 C  
HETATM    2  C   UNL     1      -9.655   8.602  68.613  1.00  0.00    -0.155 C  
HETATM    3  C   UNL     1      -9.838   9.652  69.754  1.00  0.00    -0.229 C  
HETATM    4  O   UNL     1      -7.724   6.348  67.872  1.00  0.00    -0.100 OA 
HETATM    5  C   UNL     1      -8.288   9.414  69.990  1.00  0.00    -0.180 C  
HETATM    6  N   UNL     1      -8.310   8.341  69.119  1.00  0.00    -0.122 N  
HETATM    7  O   UNL     1      -5.957   7.752  68.809  1.00  0.00    -0.033 OA 
HETATM    8  O   UNL     1      -7.408   6.423  70.304  1.00  0.00    -0.083 OA 
HETATM    9  O   UNL     1      -7.383   9.868  70.645  1.00  0.00    -0.278 OA 
HETATM   10  S   UNL     1      -7.239   7.103  69.028  1.00  0.00    -0.089 S  
ENDROOT
BRANCH   3  11
HETATM   11  N   UNL     1     -10.281  11.038  69.405  1.00  0.00    -0.418 N  
HETATM   12  O   UNL     1     -12.548  10.626  69.258  1.00  0.00    -0.270 OA 
HETATM   13  C   UNL     1     -11.607  11.408  69.275  1.00  0.00    -0.317 C  
HETATM   14  H   UNL     1      -9.565  11.749  69.255  1.00  0.00     0.000 HD 
BRANCH  13  15
HETATM   15  C   UNL     1     -11.909  12.894  69.106  1.00  0.00    -0.303 C  
BRANCH  15  16
HETATM   16  C   UNL     1     -12.257  13.699  70.286  1.00  0.00    -0.353 A  
HETATM   17  C   UNL     1     -12.192  15.471  71.607  1.00  0.00    -0.399 A  
HETATM   18  N   UNL     1     -11.752  16.746  71.991  1.00  0.00    -0.491 NA 
HETATM   19  H2  UNL     1     -11.461  16.677  72.966  1.00  0.00     0.000 HD 
HETATM   20  C   UNL     1     -13.213  13.343  71.230  1.00  0.00    -0.174 A  
HETATM   21  H1  UNL     1     -11.034  17.283  71.506  1.00  0.00     0.000 HD 
HETATM   22  S   UNL     1     -13.383  14.580  72.410  1.00  0.00    -0.474 SA 
HETATM   23  N   UNL     1     -11.652  14.934  70.549  1.00  0.00    -0.274 NA 
ENDBRANCH  15  16
BRANCH  15  24
HETATM   24  N   UNL     1     -11.873  13.536  67.971  1.00  0.00    -0.360 NA 
HETATM   25  H   UNL     1     -11.671  14.534  67.891  1.00  0.00     0.000 HD 
BRANCH  24  26
HETATM   26  O   UNL     1     -12.141  12.708  66.879  1.00  0.00    -0.490 OA 
HETATM   27  O   UNL     1     -13.385  12.547  64.661  1.00  0.00    -0.804 OA 
HETATM   28  O   UNL     1     -11.588  12.831  63.343  1.00  0.00    -0.499 OA 
HETATM   29  C   UNL     1     -10.733  14.406  65.727  1.00  0.00    -0.312 C  
HETATM   30  C   UNL     1     -10.130  11.938  65.797  1.00  0.00    -0.272 C  
HETATM   31  C   UNL     1     -11.256  12.964  65.761  1.00  0.00    -0.294 C  
HETATM   32  C   UNL     1     -12.177  12.742  64.554  1.00  0.00    -0.433 C  
ENDBRANCH  24  26
ENDBRANCH  15  24
ENDBRANCH  13  15
ENDBRANCH   3  11
TORSDOF 5
ENDMDL
MODEL       50
REMARK 921   NORMALIZED FREE ENERGY PREDICTED BY IDOCK:   -6.39 KCAL/MOL
REMARK 922        TOTAL FREE ENERGY PREDICTED BY IDOCK:   -9.40 KCAL/MOL
REMARK 923 INTER-LIGAND FREE ENERGY PREDICTED BY IDOCK:   -8.72 KCAL/MOL
REMARK 924 INTRA-LIGAND FREE ENERGY PREDICTED BY IDOCK:   -0.68 KCAL/MOL
REMARK 927      BINDING AFFINITY PREDICTED BY RF-SCORE:    0.00 PKD
ROOT
HETATM    1  C   UNL     1     -10.057  20.247  68.028  1.00  0.00    -0.451 C  
HETATM    2  C   UNL     1      -9.141  19.048  68.134  1.00  0.00    -0.320 C  
HETATM    3  C   UNL     1      -9.747  17.722  67.574  1.00  0.00    -0.284 C  
HETATM    4  O   UNL     1      -7.078  21.148  67.301  1.00  0.00    -0.433 OA 
HETATM    5  C   UNL     1      -8.407  17.668  66.728  1.00  0.00    -0.251 C  
HETATM    6  N   UNL     1      -8.095  18.955  67.120  1.00  0.00    -0.260 N  
HETATM    7  O   UNL     1      -5.804  19.300  66.334  1.00  0.00    -0.165 OA 
HETATM    8  O   UNL     1      -7.721  20.260  65.106  1.00  0.00    -0.115 OA 
HETATM    9  O   UNL     1      -7.822  16.914  65.989  1.00  0.00    -0.376 OA 
HETATM   10  S   UNL     1      -7.073  20.007  66.385  1.00  0.00    -0.254 S  
ENDROOT
BRANCH   3  11
HETATM   11  N   UNL     1     -10.018  16.591  68.514  1.00  0.00    -0.240 N  
HETATM   12  O   UNL     1     -12.030  15.900  67.617  1.00  0.00     0.146 OA 
HETATM   13  C   UNL     1     -11.096  15.733  68.389  1.00  0.00    -0.341 C  
HETATM   14  H   UNL     1      -9.372  16.444  69.291  1.00  0.00     0.000 HD 
BRANCH  13  15
HETATM   15  C   UNL     1     -11.135  14.514  69.307  1.00  0.00    -0.270 C  
BRANCH  15  16
HETATM   16  C   UNL     1     -12.118  14.465  70.400  1.00  0.00    -0.331 A  
HETATM   17  C   UNL     1     -13.296  13.508  72.007  1.00  0.00    -0.475 A  
HETATM   18  N   UNL     1     -13.713  12.427  72.796  1.00  0.00    -0.535 NA 
HETATM   19  H2  UNL     1     -14.733  12.431  72.788  1.00  0.00     0.000 HD 
HETATM   20  C   UNL     1     -12.770  15.574  70.925  1.00  0.00    -0.468 A  
HETATM   21  H1  UNL     1     -13.422  11.459  72.657  1.00  0.00     0.000 HD 
HETATM   22  S   UNL     1     -13.778  15.111  72.237  1.00  0.00    -0.542 SA 
HETATM   23  N   UNL     1     -12.468  13.264  71.030  1.00  0.00    -0.370 NA 
ENDBRANCH  15  16
BRANCH  15  24
HETATM   24  N   UNL     1     -10.355  13.475  69.197  1.00  0.00    -0.436 NA 
HETATM   25  H   UNL     1     -10.072  12.892  69.986  1.00  0.00     0.000 HD 
BRANCH  24  26
HETATM   26  O   UNL     1      -9.949  13.247  67.880  1.00  0.00    -0.220 OA 
HETATM   27  O   UNL     1      -8.517  11.763  66.383  1.00  0.00    -0.166 OA 
HETATM   28  O   UNL     1     -10.211  10.567  65.519  1.00  0.00    -0.272 OA 
HETATM   29  C   UNL     1     -11.350  11.216  68.197  1.00  0.00    -0.377 C  
HETATM   30  C   UNL     1     -11.815  12.937  66.387  1.00  0.00    -0.478 C  
HETATM   31  C   UNL     1     -10.750  12.236  67.221  1.00  0.00    -0.231 C  
HETATM   32  C   UNL     1      -9.720  11.526  66.333  1.00  0.00    -0.207 C  
ENDBRANCH  24  26
ENDBRANCH  15  24
ENDBRANCH  13  15
ENDBRANCH   3  11
TORSDOF 5
ENDMDL
MODEL       51
REMARK 921   NORMALIZED FREE ENERGY PREDICTED BY IDOCK:   -6.36 KCAL/MOL
REMARK 922        TOTAL FREE ENERGY PREDICTED BY IDOCK:   -9.37 KCAL/MOL
REMARK 923 INTER-LIGAND FREE ENERGY PREDICTED BY IDOCK:   -8.31 KCAL/MOL
REMARK 924 INTRA-LIGAND FREE ENERGY PREDICTED BY IDOCK:   -1.06 KCAL/MOL
REMARK 927      BINDING AFFINITY PREDICTED BY RF-SCORE:    0.00 PKD
ROOT
HETATM    1  C   UNL     1      -9.797  10.954  64.733  1.00  0.00    -0.343 C  
HETATM    2  C   UNL     1     -10.998  11.078  65.644  1.00  0.00    -0.020 C  
HETATM    3  C   UNL     1     -10.648  11.175  67.163  1.00  0.00    -0.244 C  
HETATM    4  O   UNL     1     -11.921  12.929  63.390  1.00  0.00    -0.533 OA 
HETATM    5  C   UNL     1     -11.553  12.476  67.114  1.00  0.00    -0.368 C  
HETATM    6  N   UNL     1     -11.594  12.408  65.734  1.00  0.00    -0.380 N  
HETATM    7  O   UNL     1     -13.248  14.088  65.084  1.00  0.00    -0.768 OA 
HETATM    8  O   UNL     1     -10.829  14.547  64.876  1.00  0.00    -0.385 OA 
HETATM    9  O   UNL     1     -12.029  13.288  67.868  1.00  0.00    -0.345 OA 
HETATM   10  S   UNL     1     -11.933  13.618  64.680  1.00  0.00    -0.429 S  
ENDROOT
BRANCH   3  11
HETATM   11  N   UNL     1     -11.071  10.072  68.080  1.00  0.00    -0.457 N  
HETATM   12  O   UNL     1      -8.971   9.384  68.749  1.00  0.00    -0.130 OA 
HETATM   13  C   UNL     1     -10.189   9.338  68.852  1.00  0.00    -0.202 C  
HETATM   14  H   UNL     1     -12.065   9.849  68.139  1.00  0.00     0.000 HD 
BRANCH  13  15
HETATM   15  C   UNL     1     -10.784   8.378  69.879  1.00  0.00    -0.227 C  
BRANCH  15  16
HETATM   16  C   UNL     1     -11.842   8.854  70.783  1.00  0.00    -0.194 A  
HETATM   17  C   UNL     1     -13.069  10.368  71.827  1.00  0.00    -0.462 A  
HETATM   18  N   UNL     1     -13.445  11.676  72.166  1.00  0.00    -0.518 NA 
HETATM   19  H2  UNL     1     -13.497  11.714  73.184  1.00  0.00     0.000 HD 
HETATM   20  C   UNL     1     -12.764   8.033  71.421  1.00  0.00    -0.280 A  
HETATM   21  H1  UNL     1     -12.955  12.518  71.864  1.00  0.00     0.000 HD 
HETATM   22  S   UNL     1     -13.881   8.973  72.327  1.00  0.00    -0.450 SA 
HETATM   23  N   UNL     1     -12.024  10.214  71.064  1.00  0.00    -0.348 NA 
ENDBRANCH  15  16
BRANCH  15  24
HETATM   24  N   UNL     1     -10.434   7.130  70.023  1.00  0.00    -0.215 NA 
HETATM   25  H   UNL     1     -10.794   6.371  69.444  1.00  0.00     0.000 HD 
BRANCH  24  26
HETATM   26  O   UNL     1      -9.513   6.949  71.057  1.00  0.00    -0.163 OA 
HETATM   27  O   UNL     1      -9.175   5.948  73.376  1.00  0.00    -0.133 OA 
HETATM   28  O   UNL     1      -7.995   4.157  72.708  1.00  0.00    -0.082 OA 
HETATM   29  C   UNL     1      -9.690   4.588  70.292  1.00  0.00    -0.287 C  
HETATM   30  C   UNL     1      -7.494   5.866  70.305  1.00  0.00    -0.089 C  
HETATM   31  C   UNL     1      -8.845   5.666  70.983  1.00  0.00    -0.137 C  
HETATM   32  C   UNL     1      -8.679   5.295  72.462  1.00  0.00    -0.120 C  
ENDBRANCH  24  26
ENDBRANCH  15  24
ENDBRANCH  13  15
ENDBRANCH   3  11
TORSDOF 5
ENDMDL
MODEL       52
REMARK 921   NORMALIZED FREE ENERGY PREDICTED BY IDOCK:   -6.36 KCAL/MOL
REMARK 922        TOTAL FREE ENERGY PREDICTED BY IDOCK:   -9.37 KCAL/MOL
REMARK 923 INTER-LIGAND FREE ENERGY PREDICTED BY IDOCK:   -8.23 KCAL/MOL
REMARK 924 INTRA-LIGAND FREE ENERGY PREDICTED BY IDOCK:   -1.14 KCAL/MOL
REMARK 927      BINDING AFFINITY PREDICTED BY RF-SCORE:    0.00 PKD
ROOT
HETATM    1  C   UNL     1     -10.952   5.742  69.558  1.00  0.00    -0.374 C  
HETATM    2  C   UNL     1     -10.847   6.712  68.403  1.00  0.00    -0.255 C  
HETATM    3  C   UNL     1     -10.227   8.095  68.776  1.00  0.00    -0.207 C  
HETATM    4  O   UNL     1     -10.012   4.152  66.950  1.00  0.00    -0.210 OA 
HETATM    5  C   UNL     1      -9.246   7.790  67.569  1.00  0.00    -0.132 C  
HETATM    6  N   UNL     1      -9.726   6.497  67.492  1.00  0.00    -0.119 N  
HETATM    7  O   UNL     1      -8.746   5.597  65.439  1.00  0.00    -0.153 OA 
HETATM    8  O   UNL     1      -7.820   5.001  67.652  1.00  0.00    -0.093 OA 
HETATM    9  O   UNL     1      -8.382   8.340  66.931  1.00  0.00    -0.112 OA 
HETATM   10  S   UNL     1      -8.995   5.195  66.814  1.00  0.00    -0.115 S  
ENDROOT
BRANCH   3  11
HETATM   11  N   UNL     1     -11.076   9.324  68.685  1.00  0.00    -0.458 N  
HETATM   12  O   UNL     1      -9.557  10.832  69.549  1.00  0.00    -0.110 OA 
HETATM   13  C   UNL     1     -10.624  10.592  69.002  1.00  0.00    -0.222 C  
HETATM   14  H   UNL     1     -12.042   9.219  68.372  1.00  0.00     0.000 HD 
BRANCH  13  15
HETATM   15  C   UNL     1     -11.543  11.766  68.677  1.00  0.00    -0.309 C  
BRANCH  15  16
HETATM   16  C   UNL     1     -12.126  12.552  69.775  1.00  0.00    -0.224 A  
HETATM   17  C   UNL     1     -12.972  14.356  70.733  1.00  0.00    -0.326 A  
HETATM   18  N   UNL     1     -13.371  15.700  70.768  1.00  0.00    -0.771 NA 
HETATM   19  H2  UNL     1     -12.951  16.111  71.601  1.00  0.00     0.000 HD 
HETATM   20  C   UNL     1     -12.487  12.032  71.012  1.00  0.00    -0.276 A  
HETATM   21  H1  UNL     1     -13.233  16.367  70.008  1.00  0.00     0.000 HD 
HETATM   22  S   UNL     1     -13.202  13.251  71.991  1.00  0.00    -0.433 SA 
HETATM   23  N   UNL     1     -12.391  13.921  69.650  1.00  0.00    -0.306 NA 
ENDBRANCH  15  16
BRANCH  15  24
HETATM   24  N   UNL     1     -11.858  12.154  67.472  1.00  0.00    -0.553 NA 
HETATM   25  H   UNL     1     -12.756  12.573  67.228  1.00  0.00     0.000 HD 
BRANCH  24  26
HETATM   26  O   UNL     1     -10.830  11.931  66.553  1.00  0.00    -0.254 OA 
HETATM   27  O   UNL     1     -10.044  10.428  64.651  1.00  0.00    -0.345 OA 
HETATM   28  O   UNL     1     -10.523  11.857  62.985  1.00  0.00    -0.329 OA 
HETATM   29  C   UNL     1     -12.604  12.658  64.966  1.00  0.00    -0.504 C  
HETATM   30  C   UNL     1     -10.382  13.870  65.193  1.00  0.00    -0.403 C  
HETATM   31  C   UNL     1     -11.104  12.530  65.262  1.00  0.00    -0.297 C  
HETATM   32  C   UNL     1     -10.491  11.513  64.291  1.00  0.00    -0.338 C  
ENDBRANCH  24  26
ENDBRANCH  15  24
ENDBRANCH  13  15
ENDBRANCH   3  11
TORSDOF 5
ENDMDL
MODEL       53
REMARK 921   NORMALIZED FREE ENERGY PREDICTED BY IDOCK:   -6.28 KCAL/MOL
REMARK 922        TOTAL FREE ENERGY PREDICTED BY IDOCK:   -9.26 KCAL/MOL
REMARK 923 INTER-LIGAND FREE ENERGY PREDICTED BY IDOCK:   -8.26 KCAL/MOL
REMARK 924 INTRA-LIGAND FREE ENERGY PREDICTED BY IDOCK:   -1.00 KCAL/MOL
REMARK 927      BINDING AFFINITY PREDICTED BY RF-SCORE:    0.00 PKD
ROOT
HETATM    1  C   UNL     1     -10.922  15.196  65.166  1.00  0.00    -0.428 C  
HETATM    2  C   UNL     1     -10.469  15.114  66.607  1.00  0.00    -0.287 C  
HETATM    3  C   UNL     1      -9.561  13.885  66.928  1.00  0.00    -0.269 C  
HETATM    4  O   UNL     1     -10.168  18.129  66.186  1.00  0.00    -0.401 OA 
HETATM    5  C   UNL     1      -8.577  14.981  67.516  1.00  0.00    -0.180 C  
HETATM    6  N   UNL     1      -9.357  15.985  66.974  1.00  0.00    -0.213 N  
HETATM    7  O   UNL     1      -8.443  18.049  67.916  1.00  0.00    -0.243 OA 
HETATM    8  O   UNL     1      -7.909  17.370  65.601  1.00  0.00    -0.465 OA 
HETATM    9  O   UNL     1      -7.547  15.045  68.140  1.00  0.00    -0.101 OA 
HETATM   10  S   UNL     1      -8.914  17.529  66.643  1.00  0.00    -0.268 S  
ENDROOT
BRANCH   3  11
HETATM   11  N   UNL     1     -10.063  12.832  67.865  1.00  0.00    -0.224 N  
HETATM   12  O   UNL     1     -11.945  12.215  66.677  1.00  0.00    -0.616 OA 
HETATM   13  C   UNL     1     -11.164  12.037  67.603  1.00  0.00    -0.282 C  
HETATM   14  H   UNL     1      -9.566  12.693  68.745  1.00  0.00     0.000 HD 
BRANCH  13  15
HETATM   15  C   UNL     1     -11.441  10.882  68.561  1.00  0.00    -0.310 C  
BRANCH  15  16
HETATM   16  C   UNL     1     -12.140  11.146  69.828  1.00  0.00    -0.344 A  
HETATM   17  C   UNL     1     -13.116  10.614  71.738  1.00  0.00    -0.466 A  
HETATM   18  N   UNL     1     -13.582   9.721  72.714  1.00  0.00    -0.568 NA 
HETATM   19  H2  UNL     1     -14.549   9.978  72.912  1.00  0.00     0.000 HD 
HETATM   20  C   UNL     1     -12.387  12.412  70.343  1.00  0.00    -0.227 A  
HETATM   21  H1  UNL     1     -13.558   8.705  72.632  1.00  0.00     0.000 HD 
HETATM   22  S   UNL     1     -13.155  12.298  71.876  1.00  0.00    -0.251 SA 
HETATM   23  N   UNL     1     -12.605  10.112  70.649  1.00  0.00    -0.294 NA 
ENDBRANCH  15  16
BRANCH  15  24
HETATM   24  N   UNL     1     -11.111   9.639  68.343  1.00  0.00    -0.481 NA 
HETATM   25  H   UNL     1     -11.768   8.860  68.397  1.00  0.00     0.000 HD 
BRANCH  24  26
HETATM   26  O   UNL     1      -9.758   9.492  68.029  1.00  0.00    -0.143 OA 
HETATM   27  O   UNL     1      -7.672   8.094  68.464  1.00  0.00    -0.108 OA 
HETATM   28  O   UNL     1      -7.713   6.969  66.519  1.00  0.00    -0.099 OA 
HETATM   29  C   UNL     1     -10.631   7.458  66.893  1.00  0.00    -0.375 C  
HETATM   30  C   UNL     1      -9.385   9.294  65.656  1.00  0.00    -0.308 C  
HETATM   31  C   UNL     1      -9.538   8.532  66.967  1.00  0.00    -0.188 C  
HETATM   32  C   UNL     1      -8.219   7.871  67.387  1.00  0.00    -0.123 C  
ENDBRANCH  24  26
ENDBRANCH  15  24
ENDBRANCH  13  15
ENDBRANCH   3  11
TORSDOF 5
ENDMDL
MODEL       54
REMARK 921   NORMALIZED FREE ENERGY PREDICTED BY IDOCK:   -6.27 KCAL/MOL
REMARK 922        TOTAL FREE ENERGY PREDICTED BY IDOCK:   -9.25 KCAL/MOL
REMARK 923 INTER-LIGAND FREE ENERGY PREDICTED BY IDOCK:   -8.19 KCAL/MOL
REMARK 924 INTRA-LIGAND FREE ENERGY PREDICTED BY IDOCK:   -1.06 KCAL/MOL
REMARK 927      BINDING AFFINITY PREDICTED BY RF-SCORE:    0.00 PKD
ROOT
HETATM    1  C   UNL     1      -8.111  16.550  68.786  1.00  0.00    -0.244 C  
HETATM    2  C   UNL     1      -8.730  15.552  67.834  1.00  0.00    -0.163 C  
HETATM    3  C   UNL     1      -9.727  14.554  68.504  1.00  0.00    -0.224 C  
HETATM    4  O   UNL     1      -8.839  18.037  66.053  1.00  0.00    -0.498 OA 
HETATM    5  C   UNL     1     -10.719  15.048  67.370  1.00  0.00    -0.289 C  
HETATM    6  N   UNL     1      -9.836  16.052  67.021  1.00  0.00    -0.232 N  
HETATM    7  O   UNL     1     -10.754  16.988  64.956  1.00  0.00    -0.713 OA 
HETATM    8  O   UNL     1     -11.048  18.154  67.115  1.00  0.00    -0.151 OA 
HETATM    9  O   UNL     1     -11.811  14.782  66.931  1.00  0.00    -0.354 OA 
HETATM   10  S   UNL     1     -10.164  17.437  66.207  1.00  0.00    -0.308 S  
ENDROOT
BRANCH   3  11
HETATM   11  N   UNL     1      -9.387  13.098  68.540  1.00  0.00    -0.371 N  
HETATM   12  O   UNL     1     -11.455  12.298  69.184  1.00  0.00    -0.258 OA 
HETATM   13  C   UNL     1     -10.312  12.102  68.794  1.00  0.00    -0.147 C  
HETATM   14  H   UNL     1      -8.419  12.825  68.368  1.00  0.00     0.000 HD 
BRANCH  13  15
HETATM   15  C   UNL     1      -9.857  10.656  68.609  1.00  0.00    -0.179 C  
BRANCH  15  16
HETATM   16  C   UNL     1      -9.457  10.192  67.272  1.00  0.00    -0.154 A  
HETATM   17  C   UNL     1      -9.591  10.033  65.071  1.00  0.00    -0.297 A  
HETATM   18  N   UNL     1     -10.160  10.297  63.817  1.00  0.00    -0.483 NA 
HETATM   19  H2  UNL     1     -10.278   9.397  63.351  1.00  0.00     0.000 HD 
HETATM   20  C   UNL     1      -8.319   9.440  67.006  1.00  0.00    -0.127 A  
HETATM   21  H1  UNL     1     -11.022  10.821  63.668  1.00  0.00     0.000 HD 
HETATM   22  S   UNL     1      -8.162   9.165  65.317  1.00  0.00    -0.142 SA 
HETATM   23  N   UNL     1     -10.200  10.497  66.125  1.00  0.00    -0.242 NA 
ENDBRANCH  15  16
BRANCH  15  24
HETATM   24  N   UNL     1      -9.779   9.772  69.564  1.00  0.00    -0.199 NA 
HETATM   25  H   UNL     1      -8.998   9.710  70.218  1.00  0.00     0.000 HD 
BRANCH  24  26
HETATM   26  O   UNL     1     -10.884   8.917  69.592  1.00  0.00    -0.233 OA 
HETATM   27  O   UNL     1     -11.618   6.492  69.869  1.00  0.00    -0.409 OA 
HETATM   28  O   UNL     1     -12.375   6.697  71.974  1.00  0.00    -0.330 OA 
HETATM   29  C   UNL     1     -10.237   8.776  71.991  1.00  0.00    -0.401 C  
HETATM   30  C   UNL     1     -12.520   9.590  71.229  1.00  0.00    -0.432 C  
HETATM   31  C   UNL     1     -11.348   8.659  70.940  1.00  0.00    -0.272 C  
HETATM   32  C   UNL     1     -11.803   7.196  70.858  1.00  0.00    -0.339 C  
ENDBRANCH  24  26
ENDBRANCH  15  24
ENDBRANCH  13  15
ENDBRANCH   3  11
TORSDOF 5
ENDMDL
MODEL       55
REMARK 921   NORMALIZED FREE ENERGY PREDICTED BY IDOCK:   -6.27 KCAL/MOL
REMARK 922        TOTAL FREE ENERGY PREDICTED BY IDOCK:   -9.25 KCAL/MOL
REMARK 923 INTER-LIGAND FREE ENERGY PREDICTED BY IDOCK:   -8.10 KCAL/MOL
REMARK 924 INTRA-LIGAND FREE ENERGY PREDICTED BY IDOCK:   -1.15 KCAL/MOL
REMARK 927      BINDING AFFINITY PREDICTED BY RF-SCORE:    0.00 PKD
ROOT
HETATM    1  C   UNL     1      -9.829  11.185  63.700  1.00  0.00    -0.387 C  
HETATM    2  C   UNL     1     -10.855  11.012  64.798  1.00  0.00    -0.163 C  
HETATM    3  C   UNL     1     -10.247  10.793  66.219  1.00  0.00    -0.245 C  
HETATM    4  O   UNL     1     -12.223  13.247  63.219  1.00  0.00    -0.663 OA 
HETATM    5  C   UNL     1     -11.190  12.002  66.623  1.00  0.00    -0.327 C  
HETATM    6  N   UNL     1     -11.471  12.241  65.291  1.00  0.00    -0.342 N  
HETATM    7  O   UNL     1     -13.270  13.897  65.329  1.00  0.00    -0.774 OA 
HETATM    8  O   UNL     1     -10.942  14.568  64.842  1.00  0.00    -0.373 OA 
HETATM    9  O   UNL     1     -11.554  12.586  67.614  1.00  0.00    -0.314 OA 
HETATM   10  S   UNL     1     -12.031  13.627  64.618  1.00  0.00    -0.429 S  
ENDROOT
BRANCH   3  11
HETATM   11  N   UNL     1     -10.464   9.484  66.911  1.00  0.00    -0.230 N  
HETATM   12  O   UNL     1      -9.738  10.105  69.013  1.00  0.00    -0.184 OA 
HETATM   13  C   UNL     1     -10.268   9.293  68.266  1.00  0.00    -0.201 C  
HETATM   14  H   UNL     1     -10.773   8.689  66.351  1.00  0.00     0.000 HD 
BRANCH  13  15
HETATM   15  C   UNL     1     -10.713   7.960  68.860  1.00  0.00    -0.073 C  
BRANCH  15  16
HETATM   16  C   UNL     1     -10.899   7.843  70.314  1.00  0.00    -0.241 A  
HETATM   17  C   UNL     1     -11.998   8.020  72.224  1.00  0.00    -0.358 A  
HETATM   18  N   UNL     1     -13.099   8.362  73.022  1.00  0.00    -0.571 NA 
HETATM   19  H2  UNL     1     -12.741   8.921  73.797  1.00  0.00     0.000 HD 
HETATM   20  C   UNL     1      -9.990   7.250  71.182  1.00  0.00    -0.186 A  
HETATM   21  H1  UNL     1     -13.939   8.832  72.684  1.00  0.00     0.000 HD 
HETATM   22  S   UNL     1     -10.607   7.242  72.786  1.00  0.00    -0.313 SA 
HETATM   23  N   UNL     1     -12.052   8.314  70.955  1.00  0.00    -0.257 NA 
ENDBRANCH  15  16
BRANCH  15  24
HETATM   24  N   UNL     1     -10.960   6.882  68.168  1.00  0.00    -0.467 NA 
HETATM   25  H   UNL     1     -11.730   6.243  68.369  1.00  0.00     0.000 HD 
BRANCH  24  26
HETATM   26  O   UNL     1     -10.055   6.700  67.120  1.00  0.00    -0.144 OA 
HETATM   27  O   UNL     1      -7.588   6.430  66.540  1.00  0.00    -0.091 OA 
HETATM   28  O   UNL     1      -7.655   4.213  66.180  1.00  0.00    -0.087 OA 
HETATM   29  C   UNL     1      -9.828   4.473  68.205  1.00  0.00    -0.153 C  
HETATM   30  C   UNL     1     -10.571   4.755  65.792  1.00  0.00    -0.262 C  
HETATM   31  C   UNL     1      -9.711   5.306  66.923  1.00  0.00    -0.156 C  
HETATM   32  C   UNL     1      -8.234   5.386  66.516  1.00  0.00    -0.109 C  
ENDBRANCH  24  26
ENDBRANCH  15  24
ENDBRANCH  13  15
ENDBRANCH   3  11
TORSDOF 5
ENDMDL
MODEL       56
REMARK 921   NORMALIZED FREE ENERGY PREDICTED BY IDOCK:   -6.26 KCAL/MOL
REMARK 922        TOTAL FREE ENERGY PREDICTED BY IDOCK:   -9.23 KCAL/MOL
REMARK 923 INTER-LIGAND FREE ENERGY PREDICTED BY IDOCK:   -8.31 KCAL/MOL
REMARK 924 INTRA-LIGAND FREE ENERGY PREDICTED BY IDOCK:   -0.92 KCAL/MOL
REMARK 927      BINDING AFFINITY PREDICTED BY RF-SCORE:    0.00 PKD
ROOT
HETATM    1  C   UNL     1     -10.116   8.778  66.686  1.00  0.00    -0.358 C  
HETATM    2  C   UNL     1      -9.692   9.521  67.932  1.00  0.00    -0.147 C  
HETATM    3  C   UNL     1     -10.872  10.136  68.749  1.00  0.00    -0.225 C  
HETATM    4  O   UNL     1      -7.776   7.143  68.124  1.00  0.00    -0.111 OA 
HETATM    5  C   UNL     1     -10.219   9.349  69.961  1.00  0.00    -0.229 C  
HETATM    6  N   UNL     1      -9.372   8.691  69.090  1.00  0.00    -0.152 N  
HETATM    7  O   UNL     1      -7.792   7.513  70.540  1.00  0.00    -0.093 OA 
HETATM    8  O   UNL     1      -9.659   6.307  69.457  1.00  0.00    -0.146 OA 
HETATM    9  O   UNL     1     -10.342   9.245  71.156  1.00  0.00    -0.282 OA 
HETATM   10  S   UNL     1      -8.579   7.277  69.339  1.00  0.00    -0.134 S  
ENDROOT
BRANCH   3  11
HETATM   11  N   UNL     1     -10.979  11.624  68.868  1.00  0.00    -0.221 N  
HETATM   12  O   UNL     1     -12.105  12.025  66.892  1.00  0.00    -0.608 OA 
HETATM   13  C   UNL     1     -11.663  12.416  67.964  1.00  0.00    -0.356 C  
HETATM   14  H   UNL     1     -10.521  12.079  69.658  1.00  0.00     0.000 HD 
BRANCH  13  15
HETATM   15  C   UNL     1     -11.847  13.889  68.320  1.00  0.00    -0.376 C  
BRANCH  15  16
HETATM   16  C   UNL     1     -12.286  14.256  69.675  1.00  0.00    -0.323 A  
HETATM   17  C   UNL     1     -13.098  13.887  71.697  1.00  0.00    -0.367 A  
HETATM   18  N   UNL     1     -13.633  13.089  72.719  1.00  0.00    -0.707 NA 
HETATM   19  H2  UNL     1     -14.474  13.560  73.053  1.00  0.00     0.000 HD 
HETATM   20  C   UNL     1     -12.147  15.520  70.234  1.00  0.00    -0.386 A  
HETATM   21  H1  UNL     1     -13.868  12.101  72.622  1.00  0.00     0.000 HD 
HETATM   22  S   UNL     1     -12.708  15.523  71.858  1.00  0.00    -0.451 SA 
HETATM   23  N   UNL     1     -12.875  13.327  70.542  1.00  0.00    -0.069 NA 
ENDBRANCH  15  16
BRANCH  15  24
HETATM   24  N   UNL     1     -11.632  14.884  67.504  1.00  0.00    -0.353 NA 
HETATM   25  H   UNL     1     -12.295  15.184  66.789  1.00  0.00     0.000 HD 
BRANCH  24  26
HETATM   26  O   UNL     1     -10.393  15.493  67.719  1.00  0.00    -0.253 OA 
HETATM   27  O   UNL     1      -7.948  15.520  66.999  1.00  0.00    -0.201 OA 
HETATM   28  O   UNL     1      -8.071  17.391  65.761  1.00  0.00    -0.543 OA 
HETATM   29  C   UNL     1     -10.857  16.376  65.439  1.00  0.00    -0.249 C  
HETATM   30  C   UNL     1     -10.490  17.886  67.450  1.00  0.00    -0.390 C  
HETATM   31  C   UNL     1     -10.134  16.564  66.779  1.00  0.00    -0.288 C  
HETATM   32  C   UNL     1      -8.622  16.443  66.549  1.00  0.00    -0.294 C  
ENDBRANCH  24  26
ENDBRANCH  15  24
ENDBRANCH  13  15
ENDBRANCH   3  11
TORSDOF 5
ENDMDL
MODEL       57
REMARK 921   NORMALIZED FREE ENERGY PREDICTED BY IDOCK:   -6.24 KCAL/MOL
REMARK 922        TOTAL FREE ENERGY PREDICTED BY IDOCK:   -9.21 KCAL/MOL
REMARK 923 INTER-LIGAND FREE ENERGY PREDICTED BY IDOCK:   -8.13 KCAL/MOL
REMARK 924 INTRA-LIGAND FREE ENERGY PREDICTED BY IDOCK:   -1.08 KCAL/MOL
REMARK 927      BINDING AFFINITY PREDICTED BY RF-SCORE:    0.00 PKD
ROOT
HETATM    1  C   UNL     1     -10.222   8.288  67.578  1.00  0.00    -0.309 C  
HETATM    2  C   UNL     1      -9.581   9.147  68.645  1.00  0.00    -0.152 C  
HETATM    3  C   UNL     1     -10.595   9.833  69.616  1.00  0.00    -0.239 C  
HETATM    4  O   UNL     1      -7.613   6.805  68.679  1.00  0.00    -0.100 OA 
HETATM    5  C   UNL     1      -9.703   9.166  70.745  1.00  0.00    -0.273 C  
HETATM    6  N   UNL     1      -9.026   8.431  69.790  1.00  0.00    -0.144 N  
HETATM    7  O   UNL     1      -7.171   7.401  71.008  1.00  0.00    -0.066 OA 
HETATM    8  O   UNL     1      -9.184   6.092  70.424  1.00  0.00    -0.153 OA 
HETATM    9  O   UNL     1      -9.591   9.174  71.946  1.00  0.00    -0.310 OA 
HETATM   10  S   UNL     1      -8.169   7.050  70.010  1.00  0.00    -0.135 S  
ENDROOT
BRANCH   3  11
HETATM   11  N   UNL     1     -10.709  11.324  69.615  1.00  0.00    -0.454 N  
HETATM   12  O   UNL     1     -11.668  11.574  67.529  1.00  0.00    -0.555 OA 
HETATM   13  C   UNL     1     -11.316  12.045  68.603  1.00  0.00    -0.277 C  
HETATM   14  H   UNL     1     -10.318  11.838  70.405  1.00  0.00     0.000 HD 
BRANCH  13  15
HETATM   15  C   UNL     1     -11.527  13.539  68.833  1.00  0.00    -0.306 C  
BRANCH  15  16
HETATM   16  C   UNL     1     -10.690  14.506  68.107  1.00  0.00    -0.239 A  
HETATM   17  C   UNL     1      -8.843  15.249  67.146  1.00  0.00    -0.212 A  
HETATM   18  N   UNL     1      -7.499  15.165  66.756  1.00  0.00    -0.285 NA 
HETATM   19  H2  UNL     1      -7.049  16.030  67.057  1.00  0.00     0.000 HD 
HETATM   20  C   UNL     1     -11.151  15.703  67.571  1.00  0.00    -0.289 A  
HETATM   21  H1  UNL     1      -6.868  14.403  67.005  1.00  0.00     0.000 HD 
HETATM   22  S   UNL     1      -9.888  16.512  66.733  1.00  0.00    -0.279 SA 
HETATM   23  N   UNL     1      -9.329  14.281  67.871  1.00  0.00    -0.192 NA 
ENDBRANCH  15  16
BRANCH  15  24
HETATM   24  N   UNL     1     -12.420  14.050  69.635  1.00  0.00    -0.418 NA 
HETATM   25  H   UNL     1     -13.326  14.403  69.323  1.00  0.00     0.000 HD 
BRANCH  24  26
HETATM   26  O   UNL     1     -11.999  14.062  70.966  1.00  0.00    -0.327 OA 
HETATM   27  O   UNL     1     -11.040  15.524  72.821  1.00  0.00    -0.076 OA 
HETATM   28  O   UNL     1     -12.957  15.768  73.966  1.00  0.00    -0.506 OA 
HETATM   29  C   UNL     1     -14.041  15.463  71.205  1.00  0.00    -0.463 C  
HETATM   30  C   UNL     1     -13.711  13.287  72.475  1.00  0.00    -0.613 C  
HETATM   31  C   UNL     1     -13.037  14.513  71.870  1.00  0.00    -0.350 C  
HETATM   32  C   UNL     1     -12.241  15.292  72.925  1.00  0.00    -0.408 C  
ENDBRANCH  24  26
ENDBRANCH  15  24
ENDBRANCH  13  15
ENDBRANCH   3  11
TORSDOF 5
ENDMDL
MODEL       58
REMARK 921   NORMALIZED FREE ENERGY PREDICTED BY IDOCK:   -6.24 KCAL/MOL
REMARK 922        TOTAL FREE ENERGY PREDICTED BY IDOCK:   -9.21 KCAL/MOL
REMARK 923 INTER-LIGAND FREE ENERGY PREDICTED BY IDOCK:   -8.15 KCAL/MOL
REMARK 924 INTRA-LIGAND FREE ENERGY PREDICTED BY IDOCK:   -1.05 KCAL/MOL
REMARK 927      BINDING AFFINITY PREDICTED BY RF-SCORE:    0.00 PKD
ROOT
HETATM    1  C   UNL     1      -9.632   8.882  71.085  1.00  0.00    -0.342 C  
HETATM    2  C   UNL     1     -10.544   9.431  70.011  1.00  0.00    -0.235 C  
HETATM    3  C   UNL     1      -9.988  10.691  69.276  1.00  0.00    -0.193 C  
HETATM    4  O   UNL     1     -10.913   6.444  69.463  1.00  0.00    -0.286 OA 
HETATM    5  C   UNL     1     -10.276   9.844  67.966  1.00  0.00    -0.182 C  
HETATM    6  N   UNL     1     -10.523   8.722  68.735  1.00  0.00    -0.211 N  
HETATM    7  O   UNL     1     -11.410   7.078  67.156  1.00  0.00    -0.240 OA 
HETATM    8  O   UNL     1      -9.066   6.953  67.930  1.00  0.00    -0.124 OA 
HETATM    9  O   UNL     1     -10.273   9.983  66.768  1.00  0.00    -0.217 OA 
HETATM   10  S   UNL     1     -10.470   7.153  68.263  1.00  0.00    -0.187 S  
ENDROOT
BRANCH   3  11
HETATM   11  N   UNL     1     -10.703  11.997  69.425  1.00  0.00    -0.450 N  
HETATM   12  O   UNL     1      -9.229  13.312  68.228  1.00  0.00    -0.206 OA 
HETATM   13  C   UNL     1     -10.295  13.167  68.812  1.00  0.00    -0.130 C  
HETATM   14  H   UNL     1     -11.536  12.026  70.013  1.00  0.00     0.000 HD 
BRANCH  13  15
HETATM   15  C   UNL     1     -11.229  14.371  68.903  1.00  0.00    -0.262 C  
BRANCH  15  16
HETATM   16  C   UNL     1     -11.997  14.597  70.137  1.00  0.00    -0.313 A  
HETATM   17  C   UNL     1     -13.258  14.021  71.858  1.00  0.00    -0.395 A  
HETATM   18  N   UNL     1     -13.991  13.119  72.643  1.00  0.00    -0.743 NA 
HETATM   19  H2  UNL     1     -14.906  13.541  72.802  1.00  0.00     0.000 HD 
HETATM   20  C   UNL     1     -12.049  15.804  70.824  1.00  0.00    -0.408 A  
HETATM   21  H1  UNL     1     -14.155  12.141  72.404  1.00  0.00     0.000 HD 
HETATM   22  S   UNL     1     -12.986  15.641  72.255  1.00  0.00    -0.462 SA 
HETATM   23  N   UNL     1     -12.740  13.579  70.747  1.00  0.00    -0.281 NA 
ENDBRANCH  15  16
BRANCH  15  24
HETATM   24  N   UNL     1     -11.404  15.251  67.956  1.00  0.00    -0.330 NA 
HETATM   25  H   UNL     1     -12.187  15.232  67.301  1.00  0.00     0.000 HD 
BRANCH  24  26
HETATM   26  O   UNL     1     -10.401  16.223  67.938  1.00  0.00    -0.267 OA 
HETATM   27  O   UNL     1      -7.880  16.596  67.940  1.00  0.00    -0.161 OA 
HETATM   28  O   UNL     1      -7.699  17.109  65.760  1.00  0.00    -0.421 OA 
HETATM   29  C   UNL     1     -10.048  15.275  65.664  1.00  0.00    -0.401 C  
HETATM   30  C   UNL     1     -10.612  17.721  66.061  1.00  0.00    -0.229 C  
HETATM   31  C   UNL     1      -9.907  16.482  66.601  1.00  0.00    -0.268 C  
HETATM   32  C   UNL     1      -8.416  16.748  66.846  1.00  0.00    -0.212 C  
ENDBRANCH  24  26
ENDBRANCH  15  24
ENDBRANCH  13  15
ENDBRANCH   3  11
TORSDOF 5
ENDMDL
MODEL       59
REMARK 921   NORMALIZED FREE ENERGY PREDICTED BY IDOCK:   -6.24 KCAL/MOL
REMARK 922        TOTAL FREE ENERGY PREDICTED BY IDOCK:   -9.21 KCAL/MOL
REMARK 923 INTER-LIGAND FREE ENERGY PREDICTED BY IDOCK:   -8.22 KCAL/MOL
REMARK 924 INTRA-LIGAND FREE ENERGY PREDICTED BY IDOCK:   -0.98 KCAL/MOL
REMARK 927      BINDING AFFINITY PREDICTED BY RF-SCORE:    0.00 PKD
ROOT
HETATM    1  C   UNL     1     -10.856   6.146  68.998  1.00  0.00    -0.416 C  
HETATM    2  C   UNL     1     -10.080   7.428  69.201  1.00  0.00    -0.189 C  
HETATM    3  C   UNL     1     -10.901   8.582  69.859  1.00  0.00    -0.205 C  
HETATM    4  O   UNL     1      -7.907   5.429  69.999  1.00  0.00    -0.078 OA 
HETATM    5  C   UNL     1      -9.693   8.627  70.885  1.00  0.00    -0.204 C  
HETATM    6  N   UNL     1      -9.187   7.455  70.355  1.00  0.00    -0.158 N  
HETATM    7  O   UNL     1      -6.988   7.209  71.398  1.00  0.00    -0.062 OA 
HETATM    8  O   UNL     1      -8.918   5.884  72.188  1.00  0.00    -0.142 OA 
HETATM    9  O   UNL     1      -9.297   9.303  71.802  1.00  0.00    -0.309 OA 
HETATM   10  S   UNL     1      -8.150   6.402  71.064  1.00  0.00    -0.122 S  
ENDROOT
BRANCH   3  11
HETATM   11  N   UNL     1     -11.183   9.820  69.067  1.00  0.00    -0.436 N  
HETATM   12  O   UNL     1     -12.356  10.978  70.684  1.00  0.00    -0.328 OA 
HETATM   13  C   UNL     1     -11.811  10.936  69.589  1.00  0.00    -0.344 C  
HETATM   14  H   UNL     1     -10.896   9.841  68.088  1.00  0.00     0.000 HD 
BRANCH  13  15
HETATM   15  C   UNL     1     -11.857  12.188  68.718  1.00  0.00    -0.303 C  
BRANCH  15  16
HETATM   16  C   UNL     1     -11.557  13.497  69.319  1.00  0.00    -0.316 A  
HETATM   17  C   UNL     1     -11.758  15.127  70.798  1.00  0.00    -0.325 A  
HETATM   18  N   UNL     1     -12.307  15.746  71.930  1.00  0.00    -0.421 NA 
HETATM   19  H2  UNL     1     -12.567  16.693  71.652  1.00  0.00     0.000 HD 
HETATM   20  C   UNL     1     -10.549  14.350  68.888  1.00  0.00    -0.247 A  
HETATM   21  H1  UNL     1     -13.085  15.376  72.475  1.00  0.00     0.000 HD 
HETATM   22  S   UNL     1     -10.469  15.741  69.895  1.00  0.00    -0.313 SA 
HETATM   23  N   UNL     1     -12.271  13.990  70.418  1.00  0.00    -0.341 NA 
ENDBRANCH  15  16
BRANCH  15  24
HETATM   24  N   UNL     1     -12.137  12.199  67.444  1.00  0.00    -0.515 NA 
HETATM   25  H   UNL     1     -13.051  12.452  67.066  1.00  0.00     0.000 HD 
BRANCH  24  26
HETATM   26  O   UNL     1     -11.047  11.826  66.654  1.00  0.00    -0.284 OA 
HETATM   27  O   UNL     1     -10.228  10.152  64.915  1.00  0.00    -0.300 OA 
HETATM   28  O   UNL     1     -10.375  11.531  63.148  1.00  0.00    -0.361 OA 
HETATM   29  C   UNL     1     -12.557  12.642  64.852  1.00  0.00    -0.525 C  
HETATM   30  C   UNL     1     -10.256  13.635  65.271  1.00  0.00    -0.341 C  
HETATM   31  C   UNL     1     -11.119  12.379  65.317  1.00  0.00    -0.303 C  
HETATM   32  C   UNL     1     -10.517  11.256  64.462  1.00  0.00    -0.334 C  
ENDBRANCH  24  26
ENDBRANCH  15  24
ENDBRANCH  13  15
ENDBRANCH   3  11
TORSDOF 5
ENDMDL
MODEL       60
REMARK 921   NORMALIZED FREE ENERGY PREDICTED BY IDOCK:   -6.23 KCAL/MOL
REMARK 922        TOTAL FREE ENERGY PREDICTED BY IDOCK:   -9.20 KCAL/MOL
REMARK 923 INTER-LIGAND FREE ENERGY PREDICTED BY IDOCK:   -8.27 KCAL/MOL
REMARK 924 INTRA-LIGAND FREE ENERGY PREDICTED BY IDOCK:   -0.93 KCAL/MOL
REMARK 927      BINDING AFFINITY PREDICTED BY RF-SCORE:    0.00 PKD
ROOT
HETATM    1  C   UNL     1      -9.973   6.276  69.098  1.00  0.00    -0.181 C  
HETATM    2  C   UNL     1      -9.712   7.671  69.621  1.00  0.00    -0.171 C  
HETATM    3  C   UNL     1     -10.803   8.719  69.235  1.00  0.00    -0.077 C  
HETATM    4  O   UNL     1      -8.849   6.073  72.083  1.00  0.00    -0.135 OA 
HETATM    5  C   UNL     1     -10.839   9.003  70.795  1.00  0.00    -0.251 C  
HETATM    6  N   UNL     1     -10.044   7.896  71.025  1.00  0.00    -0.192 N  
HETATM    7  O   UNL     1      -9.452   8.046  73.393  1.00  0.00    -0.279 OA 
HETATM    8  O   UNL     1     -11.207   6.485  72.623  1.00  0.00    -0.253 OA 
HETATM    9  O   UNL     1     -11.337   9.781  71.571  1.00  0.00    -0.367 OA 
HETATM   10  S   UNL     1      -9.881   7.053  72.421  1.00  0.00    -0.154 S  
ENDROOT
BRANCH   3  11
HETATM   11  N   UNL     1     -10.436   9.855  68.333  1.00  0.00    -0.198 N  
HETATM   12  O   UNL     1     -12.354  11.113  68.600  1.00  0.00    -0.549 OA 
HETATM   13  C   UNL     1     -11.215  10.986  68.171  1.00  0.00    -0.302 C  
HETATM   14  H   UNL     1      -9.563   9.791  67.808  1.00  0.00     0.000 HD 
BRANCH  13  15
HETATM   15  C   UNL     1     -10.620  12.140  67.368  1.00  0.00    -0.226 C  
BRANCH  15  16
HETATM   16  C   UNL     1     -10.746  12.139  65.902  1.00  0.00    -0.266 A  
HETATM   17  C   UNL     1     -11.548  12.795  63.950  1.00  0.00    -0.452 A  
HETATM   18  N   UNL     1     -12.380  13.556  63.116  1.00  0.00    -1.024 NA 
HETATM   19  H2  UNL     1     -12.833  12.903  62.476  1.00  0.00     0.000 HD 
HETATM   20  C   UNL     1      -9.941  11.402  65.042  1.00  0.00    -0.266 A  
HETATM   21  H1  UNL     1     -13.101  14.197  63.443  1.00  0.00     0.000 HD 
HETATM   22  S   UNL     1     -10.351  11.733  63.406  1.00  0.00    -0.424 SA 
HETATM   23  N   UNL     1     -11.699  12.921  65.238  1.00  0.00    -0.344 NA 
ENDBRANCH  15  16
BRANCH  15  24
HETATM   24  N   UNL     1     -10.000  13.164  67.884  1.00  0.00    -0.226 NA 
HETATM   25  H   UNL     1      -9.015  13.156  68.151  1.00  0.00     0.000 HD 
BRANCH  24  26
HETATM   26  O   UNL     1     -10.834  14.275  68.032  1.00  0.00    -0.234 OA 
HETATM   27  O   UNL     1     -11.674  16.028  69.681  1.00  0.00    -0.328 OA 
HETATM   28  O   UNL     1     -10.418  17.723  68.907  1.00  0.00    -0.342 OA 
HETATM   29  C   UNL     1      -8.638  15.422  68.253  1.00  0.00    -0.158 C  
HETATM   30  C   UNL     1     -10.325  16.020  66.450  1.00  0.00    -0.312 C  
HETATM   31  C   UNL     1     -10.121  15.526  67.877  1.00  0.00    -0.224 C  
HETATM   32  C   UNL     1     -10.827  16.436  68.890  1.00  0.00    -0.334 C  
ENDBRANCH  24  26
ENDBRANCH  15  24
ENDBRANCH  13  15
ENDBRANCH   3  11
TORSDOF 5
ENDMDL
MODEL       61
REMARK 921   NORMALIZED FREE ENERGY PREDICTED BY IDOCK:   -6.23 KCAL/MOL
REMARK 922        TOTAL FREE ENERGY PREDICTED BY IDOCK:   -9.20 KCAL/MOL
REMARK 923 INTER-LIGAND FREE ENERGY PREDICTED BY IDOCK:   -8.04 KCAL/MOL
REMARK 924 INTRA-LIGAND FREE ENERGY PREDICTED BY IDOCK:   -1.15 KCAL/MOL
REMARK 927      BINDING AFFINITY PREDICTED BY RF-SCORE:    0.00 PKD
ROOT
HETATM    1  C   UNL     1      -8.281  15.809  68.613  1.00  0.00    -0.174 C  
HETATM    2  C   UNL     1      -9.072  14.843  67.759  1.00  0.00    -0.185 C  
HETATM    3  C   UNL     1     -10.228  14.113  68.514  1.00  0.00    -0.247 C  
HETATM    4  O   UNL     1      -8.741  17.106  65.728  1.00  0.00    -0.527 OA 
HETATM    5  C   UNL     1     -11.120  14.653  67.319  1.00  0.00    -0.328 C  
HETATM    6  N   UNL     1     -10.073  15.442  66.881  1.00  0.00    -0.253 N  
HETATM    7  O   UNL     1     -10.816  16.304  64.716  1.00  0.00    -0.671 OA 
HETATM    8  O   UNL     1     -10.891  17.724  66.737  1.00  0.00    -0.197 OA 
HETATM    9  O   UNL     1     -12.243  14.541  66.893  1.00  0.00    -0.375 OA 
HETATM   10  S   UNL     1     -10.152  16.770  65.923  1.00  0.00    -0.264 S  
ENDROOT
BRANCH   3  11
HETATM   11  N   UNL     1     -10.153  12.631  68.706  1.00  0.00    -0.417 N  
HETATM   12  O   UNL     1     -12.215  12.329  69.700  1.00  0.00    -0.220 OA 
HETATM   13  C   UNL     1     -11.194  11.870  69.204  1.00  0.00    -0.255 C  
HETATM   14  H   UNL     1      -9.285  12.157  68.456  1.00  0.00     0.000 HD 
BRANCH  13  15
HETATM   15  C   UNL     1     -11.038  10.353  69.164  1.00  0.00    -0.246 C  
BRANCH  15  16
HETATM   16  C   UNL     1     -10.107   9.749  68.198  1.00  0.00    -0.165 A  
HETATM   17  C   UNL     1      -8.130   9.290  67.323  1.00  0.00    -0.113 A  
HETATM   18  N   UNL     1      -6.731   9.367  67.249  1.00  0.00    -0.074 NA 
HETATM   19  H2  UNL     1      -6.500   9.616  66.287  1.00  0.00     0.000 HD 
HETATM   20  C   UNL     1     -10.478   8.868  67.189  1.00  0.00    -0.274 A  
HETATM   21  H1  UNL     1      -6.148   9.948  67.851  1.00  0.00     0.000 HD 
HETATM   22  S   UNL     1      -9.095   8.327  66.325  1.00  0.00    -0.193 SA 
HETATM   23  N   UNL     1      -8.731  10.003  68.234  1.00  0.00    -0.118 NA 
ENDBRANCH  15  16
BRANCH  15  24
HETATM   24  N   UNL     1     -11.669   9.518  69.942  1.00  0.00    -0.448 NA 
HETATM   25  H   UNL     1     -12.685   9.478  70.026  1.00  0.00     0.000 HD 
BRANCH  24  26
HETATM   26  O   UNL     1     -10.799   8.684  70.649  1.00  0.00    -0.217 OA 
HETATM   27  O   UNL     1      -9.263   8.539  72.677  1.00  0.00    -0.258 OA 
HETATM   28  O   UNL     1     -10.647   7.313  73.954  1.00  0.00    -0.344 OA 
HETATM   29  C   UNL     1     -12.642   8.804  72.315  1.00  0.00    -0.460 C  
HETATM   30  C   UNL     1     -11.845   6.614  71.304  1.00  0.00    -0.403 C  
HETATM   31  C   UNL     1     -11.452   8.015  71.756  1.00  0.00    -0.277 C  
HETATM   32  C   UNL     1     -10.343   7.972  72.815  1.00  0.00    -0.339 C  
ENDBRANCH  24  26
ENDBRANCH  15  24
ENDBRANCH  13  15
ENDBRANCH   3  11
TORSDOF 5
ENDMDL
MODEL       62
REMARK 921   NORMALIZED FREE ENERGY PREDICTED BY IDOCK:   -6.21 KCAL/MOL
REMARK 922        TOTAL FREE ENERGY PREDICTED BY IDOCK:   -9.17 KCAL/MOL
REMARK 923 INTER-LIGAND FREE ENERGY PREDICTED BY IDOCK:   -8.03 KCAL/MOL
REMARK 924 INTRA-LIGAND FREE ENERGY PREDICTED BY IDOCK:   -1.13 KCAL/MOL
REMARK 927      BINDING AFFINITY PREDICTED BY RF-SCORE:    0.00 PKD
ROOT
HETATM    1  C   UNL     1     -10.139  17.012  69.640  1.00  0.00     0.062 C  
HETATM    2  C   UNL     1      -9.594  16.599  68.292  1.00  0.00    -0.233 C  
HETATM    3  C   UNL     1     -10.522  15.633  67.490  1.00  0.00    -0.285 C  
HETATM    4  O   UNL     1      -8.782  19.548  68.247  1.00  0.00    -0.323 OA 
HETATM    5  C   UNL     1     -10.358  16.707  66.335  1.00  0.00    -0.306 C  
HETATM    6  N   UNL     1      -9.745  17.576  67.218  1.00  0.00    -0.269 N  
HETATM    7  O   UNL     1      -8.910  19.394  65.811  1.00  0.00    -0.393 OA 
HETATM    8  O   UNL     1     -10.971  19.671  67.145  1.00  0.00    -0.467 OA 
HETATM    9  O   UNL     1     -10.638  16.848  65.171  1.00  0.00    -0.679 OA 
HETATM   10  S   UNL     1      -9.594  19.203  67.079  1.00  0.00    -0.337 S  
ENDROOT
BRANCH   3  11
HETATM   11  N   UNL     1     -10.056  14.239  67.210  1.00  0.00    -0.250 N  
HETATM   12  O   UNL     1     -11.108  13.185  68.975  1.00  0.00    -0.249 OA 
HETATM   13  C   UNL     1     -10.466  13.134  67.934  1.00  0.00    -0.240 C  
HETATM   14  H   UNL     1      -9.398  14.096  66.443  1.00  0.00     0.000 HD 
BRANCH  13  15
HETATM   15  C   UNL     1     -10.057  11.760  67.411  1.00  0.00    -0.195 C  
BRANCH  15  16
HETATM   16  C   UNL     1     -10.152  11.477  65.971  1.00  0.00    -0.232 A  
HETATM   17  C   UNL     1     -10.845  11.799  63.897  1.00  0.00    -0.404 A  
HETATM   18  N   UNL     1     -11.581  12.451  62.897  1.00  0.00    -0.580 NA 
HETATM   19  H2  UNL     1     -12.084  11.729  62.381  1.00  0.00     0.000 HD 
HETATM   20  C   UNL     1      -9.408  10.511  65.306  1.00  0.00    -0.213 A  
HETATM   21  H1  UNL     1     -12.242  13.210  63.062  1.00  0.00     0.000 HD 
HETATM   22  S   UNL     1      -9.749  10.543  63.622  1.00  0.00    -0.287 SA 
HETATM   23  N   UNL     1     -11.009  12.195  65.128  1.00  0.00    -0.301 NA 
ENDBRANCH  15  16
BRANCH  15  24
HETATM   24  N   UNL     1      -9.605  10.786  68.152  1.00  0.00    -0.156 NA 
HETATM   25  H   UNL     1      -8.664  10.763  68.546  1.00  0.00     0.000 HD 
BRANCH  24  26
HETATM   26  O   UNL     1     -10.553   9.778  68.347  1.00  0.00    -0.208 OA 
HETATM   27  O   UNL     1     -10.907   7.255  68.411  1.00  0.00    -0.159 OA 
HETATM   28  O   UNL     1     -11.015   7.073  70.648  1.00  0.00    -0.242 OA 
HETATM   29  C   UNL     1      -9.205   9.431  70.409  1.00  0.00    -0.305 C  
HETATM   30  C   UNL     1     -11.685   9.982  70.465  1.00  0.00    -0.400 C  
HETATM   31  C   UNL     1     -10.561   9.283  69.708  1.00  0.00    -0.231 C  
HETATM   32  C   UNL     1     -10.860   7.791  69.515  1.00  0.00    -0.153 C  
ENDBRANCH  24  26
ENDBRANCH  15  24
ENDBRANCH  13  15
ENDBRANCH   3  11
TORSDOF 5
ENDMDL
MODEL       63
REMARK 921   NORMALIZED FREE ENERGY PREDICTED BY IDOCK:   -6.17 KCAL/MOL
REMARK 922        TOTAL FREE ENERGY PREDICTED BY IDOCK:   -9.12 KCAL/MOL
REMARK 923 INTER-LIGAND FREE ENERGY PREDICTED BY IDOCK:   -8.09 KCAL/MOL
REMARK 924 INTRA-LIGAND FREE ENERGY PREDICTED BY IDOCK:   -1.03 KCAL/MOL
REMARK 927      BINDING AFFINITY PREDICTED BY RF-SCORE:    0.00 PKD
ROOT
HETATM    1  C   UNL     1      -8.411  15.791  68.960  1.00  0.00    -0.242 C  
HETATM    2  C   UNL     1      -9.135  14.896  67.979  1.00  0.00    -0.180 C  
HETATM    3  C   UNL     1     -10.354  14.130  68.584  1.00  0.00    -0.243 C  
HETATM    4  O   UNL     1      -8.624  17.292  66.146  1.00  0.00    -0.424 OA 
HETATM    5  C   UNL     1     -11.141  14.763  67.361  1.00  0.00    -0.324 C  
HETATM    6  N   UNL     1     -10.057  15.567  67.067  1.00  0.00    -0.249 N  
HETATM    7  O   UNL     1     -10.614  16.587  64.914  1.00  0.00    -0.689 OA 
HETATM    8  O   UNL     1     -10.846  17.864  67.018  1.00  0.00    -0.258 OA 
HETATM    9  O   UNL     1     -12.226  14.694  66.838  1.00  0.00    -0.311 OA 
HETATM   10  S   UNL     1     -10.048  16.960  66.201  1.00  0.00    -0.319 S  
ENDROOT
BRANCH   3  11
HETATM   11  N   UNL     1     -10.304  12.638  68.677  1.00  0.00    -0.341 N  
HETATM   12  O   UNL     1     -12.085  12.343  70.117  1.00  0.00    -0.335 OA 
HETATM   13  C   UNL     1     -11.232  11.882  69.369  1.00  0.00    -0.211 C  
HETATM   14  H   UNL     1      -9.542  12.151  68.203  1.00  0.00     0.000 HD 
BRANCH  13  15
HETATM   15  C   UNL     1     -11.160  10.366  69.215  1.00  0.00    -0.253 C  
BRANCH  15  16
HETATM   16  C   UNL     1     -10.945   9.528  70.405  1.00  0.00    -0.278 A  
HETATM   17  C   UNL     1      -9.795   8.690  72.097  1.00  0.00    -0.317 A  
HETATM   18  N   UNL     1      -8.650   8.526  72.889  1.00  0.00    -0.387 NA 
HETATM   19  H2  UNL     1      -8.502   7.522  72.991  1.00  0.00     0.000 HD 
HETATM   20  C   UNL     1     -11.935   8.784  71.036  1.00  0.00    -0.251 A  
HETATM   21  H1  UNL     1      -7.739   8.939  72.687  1.00  0.00     0.000 HD 
HETATM   22  S   UNL     1     -11.304   8.007  72.432  1.00  0.00    -0.404 SA 
HETATM   23  N   UNL     1      -9.695   9.430  71.028  1.00  0.00    -0.262 NA 
ENDBRANCH  15  16
BRANCH  15  24
HETATM   24  N   UNL     1     -11.288   9.725  68.086  1.00  0.00    -0.520 NA 
HETATM   25  H   UNL     1     -12.014   9.928  67.398  1.00  0.00     0.000 HD 
BRANCH  24  26
HETATM   26  O   UNL     1     -10.320   8.731  67.923  1.00  0.00    -0.208 OA 
HETATM   27  O   UNL     1      -9.706   6.637  66.607  1.00  0.00    -0.169 OA 
HETATM   28  O   UNL     1      -8.183   7.613  65.275  1.00  0.00    -0.131 OA 
HETATM   29  C   UNL     1      -9.999   9.927  65.765  1.00  0.00    -0.347 C  
HETATM   30  C   UNL     1      -8.136   9.645  67.470  1.00  0.00    -0.114 C  
HETATM   31  C   UNL     1      -9.390   9.036  66.854  1.00  0.00    -0.158 C  
HETATM   32  C   UNL     1      -9.106   7.650  66.260  1.00  0.00    -0.162 C  
ENDBRANCH  24  26
ENDBRANCH  15  24
ENDBRANCH  13  15
ENDBRANCH   3  11
TORSDOF 5
ENDMDL
MODEL       64
REMARK 921   NORMALIZED FREE ENERGY PREDICTED BY IDOCK:   -6.17 KCAL/MOL
REMARK 922        TOTAL FREE ENERGY PREDICTED BY IDOCK:   -9.12 KCAL/MOL
REMARK 923 INTER-LIGAND FREE ENERGY PREDICTED BY IDOCK:   -8.15 KCAL/MOL
REMARK 924 INTRA-LIGAND FREE ENERGY PREDICTED BY IDOCK:   -0.97 KCAL/MOL
REMARK 927      BINDING AFFINITY PREDICTED BY RF-SCORE:    0.00 PKD
ROOT
HETATM    1  C   UNL     1     -10.577   8.964  71.901  1.00  0.00    -0.419 C  
HETATM    2  C   UNL     1     -10.918   8.871  70.431  1.00  0.00    -0.244 C  
HETATM    3  C   UNL     1     -10.023   9.754  69.504  1.00  0.00    -0.214 C  
HETATM    4  O   UNL     1     -11.223   5.920  71.175  1.00  0.00    -0.276 OA 
HETATM    5  C   UNL     1      -9.793   8.395  68.718  1.00  0.00    -0.173 C  
HETATM    6  N   UNL     1     -10.413   7.692  69.734  1.00  0.00    -0.227 N  
HETATM    7  O   UNL     1     -10.667   5.427  68.846  1.00  0.00    -0.187 OA 
HETATM    8  O   UNL     1      -8.875   5.959  70.463  1.00  0.00    -0.140 OA 
HETATM    9  O   UNL     1      -9.281   8.004  67.699  1.00  0.00    -0.133 OA 
HETATM   10  S   UNL     1     -10.273   6.094  70.076  1.00  0.00    -0.211 S  
ENDROOT
BRANCH   3  11
HETATM   11  N   UNL     1     -10.646  10.889  68.755  1.00  0.00    -0.189 N  
HETATM   12  O   UNL     1      -8.740  12.155  68.444  1.00  0.00    -0.176 OA 
HETATM   13  C   UNL     1      -9.924  11.941  68.222  1.00  0.00    -0.202 C  
HETATM   14  H   UNL     1     -11.659  10.887  68.631  1.00  0.00     0.000 HD 
BRANCH  13  15
HETATM   15  C   UNL     1     -10.672  12.922  67.323  1.00  0.00    -0.245 C  
BRANCH  15  16
HETATM   16  C   UNL     1     -10.757  12.657  65.878  1.00  0.00    -0.266 A  
HETATM   17  C   UNL     1     -11.505  12.946  63.818  1.00  0.00    -0.459 A  
HETATM   18  N   UNL     1     -12.313  13.539  62.838  1.00  0.00    -0.900 NA 
HETATM   19  H2  UNL     1     -12.749  12.780  62.315  1.00  0.00     0.000 HD 
HETATM   20  C   UNL     1      -9.929  11.781  65.187  1.00  0.00    -0.253 A  
HETATM   21  H1  UNL     1     -13.044  14.226  63.025  1.00  0.00     0.000 HD 
HETATM   22  S   UNL     1     -10.294  11.808  63.508  1.00  0.00    -0.467 SA 
HETATM   23  N   UNL     1     -11.691  13.301  65.058  1.00  0.00    -0.321 NA 
ENDBRANCH  15  16
BRANCH  15  24
HETATM   24  N   UNL     1     -11.271  14.004  67.737  1.00  0.00    -0.270 NA 
HETATM   25  H   UNL     1     -12.197  14.010  68.167  1.00  0.00     0.000 HD 
BRANCH  24  26
HETATM   26  O   UNL     1     -10.505  15.153  67.527  1.00  0.00    -0.251 OA 
HETATM   27  O   UNL     1     -10.612  17.640  66.978  1.00  0.00    -0.328 OA 
HETATM   28  O   UNL     1     -10.204  18.375  69.062  1.00  0.00    -0.367 OA 
HETATM   29  C   UNL     1     -11.567  15.797  69.683  1.00  0.00    -0.363 C  
HETATM   30  C   UNL     1      -9.049  15.635  69.386  1.00  0.00    -0.278 C  
HETATM   31  C   UNL     1     -10.382  15.961  68.723  1.00  0.00    -0.228 C  
HETATM   32  C   UNL     1     -10.393  17.388  68.160  1.00  0.00    -0.366 C  
ENDBRANCH  24  26
ENDBRANCH  15  24
ENDBRANCH  13  15
ENDBRANCH   3  11
TORSDOF 5
ENDMDL
MODEL       65
REMARK 921   NORMALIZED FREE ENERGY PREDICTED BY IDOCK:   -6.13 KCAL/MOL
REMARK 922        TOTAL FREE ENERGY PREDICTED BY IDOCK:   -9.07 KCAL/MOL
REMARK 923 INTER-LIGAND FREE ENERGY PREDICTED BY IDOCK:   -7.63 KCAL/MOL
REMARK 924 INTRA-LIGAND FREE ENERGY PREDICTED BY IDOCK:   -1.44 KCAL/MOL
REMARK 927      BINDING AFFINITY PREDICTED BY RF-SCORE:    0.00 PKD
ROOT
HETATM    1  C   UNL     1      -8.365   5.963  66.430  1.00  0.00    -0.114 C  
HETATM    2  C   UNL     1      -9.074   7.235  66.024  1.00  0.00    -0.075 C  
HETATM    3  C   UNL     1      -8.867   8.431  67.007  1.00  0.00    -0.134 C  
HETATM    4  O   UNL     1      -8.084   6.345  63.270  1.00  0.00    -0.107 OA 
HETATM    5  C   UNL     1      -8.419   9.208  65.699  1.00  0.00    -0.139 C  
HETATM    6  N   UNL     1      -8.419   8.024  64.985  1.00  0.00    -0.116 N  
HETATM    7  O   UNL     1      -8.112   8.711  62.657  1.00  0.00    -0.158 OA 
HETATM    8  O   UNL     1      -6.227   7.791  63.965  1.00  0.00    -0.055 OA 
HETATM    9  O   UNL     1      -8.131  10.327  65.354  1.00  0.00    -0.138 OA 
HETATM   10  S   UNL     1      -7.630   7.700  63.584  1.00  0.00    -0.123 S  
ENDROOT
BRANCH   3  11
HETATM   11  N   UNL     1     -10.042   8.966  67.762  1.00  0.00    -0.197 N  
HETATM   12  O   UNL     1      -8.955  10.661  68.893  1.00  0.00    -0.157 OA 
HETATM   13  C   UNL     1      -9.987  10.088  68.569  1.00  0.00    -0.162 C  
HETATM   14  H   UNL     1     -10.933   8.476  67.677  1.00  0.00     0.000 HD 
BRANCH  13  15
HETATM   15  C   UNL     1     -11.306  10.623  69.120  1.00  0.00    -0.273 C  
BRANCH  15  16
HETATM   16  C   UNL     1     -11.907   9.984  70.300  1.00  0.00    -0.216 A  
HETATM   17  C   UNL     1     -11.997   8.575  72.001  1.00  0.00    -0.361 A  
HETATM   18  N   UNL     1     -11.509   7.541  72.814  1.00  0.00    -0.522 NA 
HETATM   19  H2  UNL     1     -12.259   6.856  72.903  1.00  0.00     0.000 HD 
HETATM   20  C   UNL     1     -13.094  10.389  70.898  1.00  0.00    -0.330 A  
HETATM   21  H1  UNL     1     -10.651   7.018  72.637  1.00  0.00     0.000 HD 
HETATM   22  S   UNL     1     -13.417   9.441  72.295  1.00  0.00    -0.426 SA 
HETATM   23  N   UNL     1     -11.302   8.899  70.947  1.00  0.00    -0.273 NA 
ENDBRANCH  15  16
BRANCH  15  24
HETATM   24  N   UNL     1     -11.963  11.636  68.627  1.00  0.00    -0.459 NA 
HETATM   25  H   UNL     1     -12.541  12.263  69.187  1.00  0.00     0.000 HD 
BRANCH  24  26
HETATM   26  O   UNL     1     -11.787  11.768  67.247  1.00  0.00    -0.596 OA 
HETATM   27  O   UNL     1     -12.955  12.347  65.058  1.00  0.00    -0.705 OA 
HETATM   28  O   UNL     1     -12.080  14.405  64.843  1.00  0.00    -0.401 OA 
HETATM   29  C   UNL     1     -12.114  14.168  67.815  1.00  0.00    -0.321 C  
HETATM   30  C   UNL     1     -10.008  13.296  66.692  1.00  0.00    -0.272 C  
HETATM   31  C   UNL     1     -11.515  13.135  66.853  1.00  0.00    -0.341 C  
HETATM   32  C   UNL     1     -12.235  13.237  65.502  1.00  0.00    -0.457 C  
ENDBRANCH  24  26
ENDBRANCH  15  24
ENDBRANCH  13  15
ENDBRANCH   3  11
TORSDOF 5
ENDMDL
MODEL       66
REMARK 921   NORMALIZED FREE ENERGY PREDICTED BY IDOCK:   -6.10 KCAL/MOL
REMARK 922        TOTAL FREE ENERGY PREDICTED BY IDOCK:   -9.03 KCAL/MOL
REMARK 923 INTER-LIGAND FREE ENERGY PREDICTED BY IDOCK:   -8.21 KCAL/MOL
REMARK 924 INTRA-LIGAND FREE ENERGY PREDICTED BY IDOCK:   -0.81 KCAL/MOL
REMARK 927      BINDING AFFINITY PREDICTED BY RF-SCORE:    0.00 PKD
ROOT
HETATM    1  C   UNL     1     -11.016  16.493  69.636  1.00  0.00    -0.287 C  
HETATM    2  C   UNL     1     -10.244  15.655  68.642  1.00  0.00    -0.212 C  
HETATM    3  C   UNL     1     -11.122  14.658  67.820  1.00  0.00    -0.298 C  
HETATM    4  O   UNL     1      -8.818  18.328  68.216  1.00  0.00    -0.274 OA 
HETATM    5  C   UNL     1     -10.429  15.345  66.570  1.00  0.00    -0.294 C  
HETATM    6  N   UNL     1      -9.891  16.318  67.390  1.00  0.00    -0.239 N  
HETATM    7  O   UNL     1      -8.338  17.544  65.952  1.00  0.00    -0.538 OA 
HETATM    8  O   UNL     1     -10.561  18.475  66.496  1.00  0.00    -0.392 OA 
HETATM    9  O   UNL     1     -10.358  15.206  65.374  1.00  0.00    -0.333 OA 
HETATM   10  S   UNL     1      -9.353  17.806  66.959  1.00  0.00    -0.266 S  
ENDROOT
BRANCH   3  11
HETATM   11  N   UNL     1     -10.919  13.187  68.003  1.00  0.00    -0.239 N  
HETATM   12  O   UNL     1     -12.200  12.461  66.224  1.00  0.00    -0.620 OA 
HETATM   13  C   UNL     1     -11.410  12.233  67.131  1.00  0.00    -0.335 C  
HETATM   14  H   UNL     1     -10.389  12.871  68.815  1.00  0.00     0.000 HD 
BRANCH  13  15
HETATM   15  C   UNL     1     -10.961  10.789  67.343  1.00  0.00    -0.300 C  
BRANCH  15  16
HETATM   16  C   UNL     1      -9.804  10.276  66.594  1.00  0.00    -0.204 A  
HETATM   17  C   UNL     1      -7.713  10.264  65.878  1.00  0.00    -0.137 A  
HETATM   18  N   UNL     1      -6.411  10.774  65.770  1.00  0.00    -0.262 NA 
HETATM   19  H2  UNL     1      -6.185  10.798  64.775  1.00  0.00     0.000 HD 
HETATM   20  C   UNL     1      -9.785   9.073  65.899  1.00  0.00    -0.236 A  
HETATM   21  H1  UNL     1      -6.099  11.661  66.164  1.00  0.00     0.000 HD 
HETATM   22  S   UNL     1      -8.229   8.794  65.224  1.00  0.00    -0.152 SA 
HETATM   23  N   UNL     1      -8.589  10.969  66.538  1.00  0.00    -0.159 NA 
ENDBRANCH  15  16
BRANCH  15  24
HETATM   24  N   UNL     1     -11.525   9.948  68.164  1.00  0.00    -0.577 NA 
HETATM   25  H   UNL     1     -12.533   9.887  68.311  1.00  0.00     0.000 HD 
BRANCH  24  26
HETATM   26  O   UNL     1     -10.595   9.138  68.821  1.00  0.00    -0.218 OA 
HETATM   27  O   UNL     1      -8.386   9.135  70.091  1.00  0.00    -0.129 OA 
HETATM   28  O   UNL     1      -9.273   8.887  72.140  1.00  0.00    -0.364 OA 
HETATM   29  C   UNL     1     -11.487  10.364  70.794  1.00  0.00    -0.422 C  
HETATM   30  C   UNL     1     -11.599   7.834  70.583  1.00  0.00    -0.233 C  
HETATM   31  C   UNL     1     -10.812   9.097  70.253  1.00  0.00    -0.246 C  
HETATM   32  C   UNL     1      -9.381   9.024  70.802  1.00  0.00    -0.249 C  
ENDBRANCH  24  26
ENDBRANCH  15  24
ENDBRANCH  13  15
ENDBRANCH   3  11
TORSDOF 5
ENDMDL
MODEL       67
REMARK 921   NORMALIZED FREE ENERGY PREDICTED BY IDOCK:   -6.10 KCAL/MOL
REMARK 922        TOTAL FREE ENERGY PREDICTED BY IDOCK:   -9.03 KCAL/MOL
REMARK 923 INTER-LIGAND FREE ENERGY PREDICTED BY IDOCK:   -8.29 KCAL/MOL
REMARK 924 INTRA-LIGAND FREE ENERGY PREDICTED BY IDOCK:   -0.74 KCAL/MOL
REMARK 927      BINDING AFFINITY PREDICTED BY RF-SCORE:    0.00 PKD
ROOT
HETATM    1  C   UNL     1      -9.686   9.422  70.921  1.00  0.00    -0.320 C  
HETATM    2  C   UNL     1     -10.162   9.927  69.578  1.00  0.00    -0.225 C  
HETATM    3  C   UNL     1      -9.194  10.942  68.891  1.00  0.00    -0.160 C  
HETATM    4  O   UNL     1     -10.971   6.990  69.293  1.00  0.00    -0.228 OA 
HETATM    5  C   UNL     1      -9.300   9.948  67.659  1.00  0.00    -0.140 C  
HETATM    6  N   UNL     1      -9.957   9.023  68.449  1.00  0.00    -0.173 N  
HETATM    7  O   UNL     1     -10.720   7.307  66.882  1.00  0.00    -0.338 OA 
HETATM    8  O   UNL     1      -8.729   6.934  68.297  1.00  0.00    -0.124 OA 
HETATM    9  O   UNL     1      -8.962   9.885  66.504  1.00  0.00    -0.143 OA 
HETATM   10  S   UNL     1     -10.101   7.410  68.194  1.00  0.00    -0.186 S  
ENDROOT
BRANCH   3  11
HETATM   11  N   UNL     1      -9.646  12.353  68.682  1.00  0.00    -0.394 N  
HETATM   12  O   UNL     1      -7.670  13.203  67.842  1.00  0.00    -0.118 OA 
HETATM   13  C   UNL     1      -8.861  13.328  68.095  1.00  0.00    -0.187 C  
HETATM   14  H   UNL     1     -10.584  12.609  68.991  1.00  0.00     0.000 HD 
BRANCH  13  15
HETATM   15  C   UNL     1      -9.524  14.666  67.777  1.00  0.00    -0.205 C  
BRANCH  15  16
HETATM   16  C   UNL     1     -10.510  14.742  66.688  1.00  0.00    -0.286 A  
HETATM   17  C   UNL     1     -11.393  15.532  64.822  1.00  0.00    -0.357 A  
HETATM   18  N   UNL     1     -11.457  16.399  63.722  1.00  0.00    -1.470 NA 
HETATM   19  H2  UNL     1     -12.406  16.772  63.694  1.00  0.00     0.000 HD 
HETATM   20  C   UNL     1     -11.559  13.847  66.510  1.00  0.00    -0.369 A  
HETATM   21  H1  UNL     1     -10.827  17.185  63.564  1.00  0.00     0.000 HD 
HETATM   22  S   UNL     1     -12.438  14.229  65.084  1.00  0.00    -0.356 SA 
HETATM   23  N   UNL     1     -10.456  15.736  65.704  1.00  0.00    -0.360 NA 
ENDBRANCH  15  16
BRANCH  15  24
HETATM   24  N   UNL     1      -9.293  15.781  68.412  1.00  0.00    -0.192 NA 
HETATM   25  H   UNL     1      -9.793  16.067  69.255  1.00  0.00     0.000 HD 
BRANCH  24  26
HETATM   26  O   UNL     1      -8.286  16.540  67.813  1.00  0.00    -0.162 OA 
HETATM   27  O   UNL     1      -7.624  17.799  65.698  1.00  0.00    -0.541 OA 
HETATM   28  O   UNL     1      -7.979  19.863  66.511  1.00  0.00    -0.294 OA 
HETATM   29  C   UNL     1      -9.990  18.331  68.094  1.00  0.00    -0.377 C  
HETATM   30  C   UNL     1      -7.675  18.460  69.136  1.00  0.00    -0.063 C  
HETATM   31  C   UNL     1      -8.507  17.965  67.958  1.00  0.00    -0.256 C  
HETATM   32  C   UNL     1      -7.978  18.518  66.628  1.00  0.00    -0.261 C  
ENDBRANCH  24  26
ENDBRANCH  15  24
ENDBRANCH  13  15
ENDBRANCH   3  11
TORSDOF 5
ENDMDL
MODEL       68
REMARK 921   NORMALIZED FREE ENERGY PREDICTED BY IDOCK:   -6.10 KCAL/MOL
REMARK 922        TOTAL FREE ENERGY PREDICTED BY IDOCK:   -9.02 KCAL/MOL
REMARK 923 INTER-LIGAND FREE ENERGY PREDICTED BY IDOCK:   -8.26 KCAL/MOL
REMARK 924 INTRA-LIGAND FREE ENERGY PREDICTED BY IDOCK:   -0.76 KCAL/MOL
REMARK 927      BINDING AFFINITY PREDICTED BY RF-SCORE:    0.00 PKD
ROOT
HETATM    1  C   UNL     1      -8.812   6.816  69.120  1.00  0.00    -0.134 C  
HETATM    2  C   UNL     1      -8.953   8.205  69.699  1.00  0.00    -0.154 C  
HETATM    3  C   UNL     1     -10.291   8.923  69.336  1.00  0.00    -0.213 C  
HETATM    4  O   UNL     1      -7.689   6.813  72.113  1.00  0.00    -0.094 OA 
HETATM    5  C   UNL     1     -10.412   9.122  70.905  1.00  0.00    -0.278 C  
HETATM    6  N   UNL     1      -9.341   8.272  71.105  1.00  0.00    -0.156 N  
HETATM    7  O   UNL     1      -8.825   8.485  73.487  1.00  0.00    -0.279 OA 
HETATM    8  O   UNL     1     -10.071   6.529  72.631  1.00  0.00    -0.171 OA 
HETATM    9  O   UNL     1     -11.111   9.698  71.702  1.00  0.00    -0.348 OA 
HETATM   10  S   UNL     1      -8.955   7.452  72.472  1.00  0.00    -0.138 S  
ENDROOT
BRANCH   3  11
HETATM   11  N   UNL     1     -10.252  10.151  68.483  1.00  0.00    -0.166 N  
HETATM   12  O   UNL     1     -12.447  10.810  68.764  1.00  0.00    -0.366 OA 
HETATM   13  C   UNL     1     -11.316  11.025  68.350  1.00  0.00    -0.295 C  
HETATM   14  H   UNL     1      -9.393  10.355  67.971  1.00  0.00     0.000 HD 
BRANCH  13  15
HETATM   15  C   UNL     1     -11.064  12.330  67.601  1.00  0.00    -0.268 C  
BRANCH  15  16
HETATM   16  C   UNL     1     -11.135  12.345  66.132  1.00  0.00    -0.302 A  
HETATM   17  C   UNL     1     -11.792  13.085  64.155  1.00  0.00    -0.416 A  
HETATM   18  N   UNL     1     -12.507  13.931  63.295  1.00  0.00    -1.112 NA 
HETATM   19  H2  UNL     1     -13.005  13.331  62.637  1.00  0.00     0.000 HD 
HETATM   20  C   UNL     1     -10.384  11.527  65.297  1.00  0.00    -0.272 A  
HETATM   21  H1  UNL     1     -13.168  14.645  63.600  1.00  0.00     0.000 HD 
HETATM   22  S   UNL     1     -10.697  11.901  63.649  1.00  0.00    -0.471 SA 
HETATM   23  N   UNL     1     -11.975  13.225  65.438  1.00  0.00    -0.371 NA 
ENDBRANCH  15  16
BRANCH  15  24
HETATM   24  N   UNL     1     -10.792  13.473  68.168  1.00  0.00    -0.247 NA 
HETATM   25  H   UNL     1     -11.136  13.745  69.089  1.00  0.00     0.000 HD 
BRANCH  24  26
HETATM   26  O   UNL     1      -9.979  14.284  67.373  1.00  0.00    -0.238 OA 
HETATM   27  O   UNL     1      -9.954  15.861  65.370  1.00  0.00    -0.399 OA 
HETATM   28  O   UNL     1      -9.813  17.766  66.552  1.00  0.00    -0.300 OA 
HETATM   29  C   UNL     1     -11.307  16.065  68.493  1.00  0.00    -0.382 C  
HETATM   30  C   UNL     1      -8.776  15.923  68.667  1.00  0.00    -0.199 C  
HETATM   31  C   UNL     1     -10.000  15.670  67.795  1.00  0.00    -0.223 C  
HETATM   32  C   UNL     1      -9.902  16.422  66.461  1.00  0.00    -0.274 C  
ENDBRANCH  24  26
ENDBRANCH  15  24
ENDBRANCH  13  15
ENDBRANCH   3  11
TORSDOF 5
ENDMDL
MODEL       69
REMARK 921   NORMALIZED FREE ENERGY PREDICTED BY IDOCK:   -6.05 KCAL/MOL
REMARK 922        TOTAL FREE ENERGY PREDICTED BY IDOCK:   -8.96 KCAL/MOL
REMARK 923 INTER-LIGAND FREE ENERGY PREDICTED BY IDOCK:   -7.94 KCAL/MOL
REMARK 924 INTRA-LIGAND FREE ENERGY PREDICTED BY IDOCK:   -1.03 KCAL/MOL
REMARK 927      BINDING AFFINITY PREDICTED BY RF-SCORE:    0.00 PKD
ROOT
HETATM    1  C   UNL     1      -8.907   9.210  64.891  1.00  0.00    -0.215 C  
HETATM    2  C   UNL     1      -8.923   9.098  66.399  1.00  0.00    -0.149 C  
HETATM    3  C   UNL     1     -10.266   9.538  67.064  1.00  0.00    -0.255 C  
HETATM    4  O   UNL     1      -7.440   6.503  65.747  1.00  0.00    -0.077 OA 
HETATM    5  C   UNL     1     -10.193   8.113  67.756  1.00  0.00    -0.228 C  
HETATM    6  N   UNL     1      -9.140   7.757  66.935  1.00  0.00    -0.137 N  
HETATM    7  O   UNL     1      -8.338   5.634  67.848  1.00  0.00    -0.101 OA 
HETATM    8  O   UNL     1      -9.753   5.687  65.822  1.00  0.00    -0.060 OA 
HETATM    9  O   UNL     1     -10.769   7.478  68.605  1.00  0.00    -0.171 OA 
HETATM   10  S   UNL     1      -8.628   6.245  66.561  1.00  0.00    -0.132 S  
ENDROOT
BRANCH   3  11
HETATM   11  N   UNL     1     -10.279  10.740  67.954  1.00  0.00    -0.170 N  
HETATM   12  O   UNL     1     -11.969  11.907  66.898  1.00  0.00    -0.614 OA 
HETATM   13  C   UNL     1     -11.192  11.772  67.834  1.00  0.00    -0.267 C  
HETATM   14  H   UNL     1      -9.575  10.803  68.690  1.00  0.00     0.000 HD 
BRANCH  13  15
HETATM   15  C   UNL     1     -11.202  12.834  68.930  1.00  0.00    -0.283 C  
BRANCH  15  16
HETATM   16  C   UNL     1     -12.030  12.627  70.128  1.00  0.00    -0.299 A  
HETATM   17  C   UNL     1     -13.037  11.445  71.700  1.00  0.00    -0.393 A  
HETATM   18  N   UNL     1     -13.410  10.256  72.345  1.00  0.00    -0.573 NA 
HETATM   19  H2  UNL     1     -14.420  10.300  72.484  1.00  0.00     0.000 HD 
HETATM   20  C   UNL     1     -12.536  13.648  70.923  1.00  0.00    -0.371 A  
HETATM   21  H1  UNL     1     -13.200   9.319  72.003  1.00  0.00     0.000 HD 
HETATM   22  S   UNL     1     -13.385  12.998  72.268  1.00  0.00    -0.430 SA 
HETATM   23  N   UNL     1     -12.365  11.348  70.587  1.00  0.00    -0.372 NA 
ENDBRANCH  15  16
BRANCH  15  24
HETATM   24  N   UNL     1     -10.510  13.939  68.902  1.00  0.00    -0.341 NA 
HETATM   25  H   UNL     1     -10.332  14.518  69.724  1.00  0.00     0.000 HD 
BRANCH  24  26
HETATM   26  O   UNL     1     -10.038  14.242  67.623  1.00  0.00    -0.227 OA 
HETATM   27  O   UNL     1     -10.734  14.695  65.214  1.00  0.00    -0.329 OA 
HETATM   28  O   UNL     1     -10.449  16.922  65.283  1.00  0.00    -0.638 OA 
HETATM   29  C   UNL     1     -11.159  16.404  68.133  1.00  0.00    -0.320 C  
HETATM   30  C   UNL     1      -8.681  16.235  67.596  1.00  0.00    -0.188 C  
HETATM   31  C   UNL     1     -10.072  15.663  67.344  1.00  0.00    -0.251 C  
HETATM   32  C   UNL     1     -10.430  15.698  65.853  1.00  0.00    -0.344 C  
ENDBRANCH  24  26
ENDBRANCH  15  24
ENDBRANCH  13  15
ENDBRANCH   3  11
TORSDOF 5
ENDMDL
MODEL       70
REMARK 921   NORMALIZED FREE ENERGY PREDICTED BY IDOCK:   -6.03 KCAL/MOL
REMARK 922        TOTAL FREE ENERGY PREDICTED BY IDOCK:   -8.94 KCAL/MOL
REMARK 923 INTER-LIGAND FREE ENERGY PREDICTED BY IDOCK:   -8.20 KCAL/MOL
REMARK 924 INTRA-LIGAND FREE ENERGY PREDICTED BY IDOCK:   -0.74 KCAL/MOL
REMARK 927      BINDING AFFINITY PREDICTED BY RF-SCORE:    0.00 PKD
ROOT
HETATM    1  C   UNL     1     -10.880  15.926  65.161  1.00  0.00    -0.438 C  
HETATM    2  C   UNL     1     -10.550  15.939  66.636  1.00  0.00    -0.305 C  
HETATM    3  C   UNL     1      -9.514  14.856  67.074  1.00  0.00    -0.229 C  
HETATM    4  O   UNL     1     -10.628  18.957  66.143  1.00  0.00    -0.446 OA 
HETATM    5  C   UNL     1      -8.746  16.090  67.707  1.00  0.00    -0.167 C  
HETATM    6  N   UNL     1      -9.604  16.964  67.068  1.00  0.00    -0.241 N  
HETATM    7  O   UNL     1      -9.069  19.155  68.015  1.00  0.00    -0.293 OA 
HETATM    8  O   UNL     1      -8.244  18.508  65.777  1.00  0.00    -0.481 OA 
HETATM    9  O   UNL     1      -7.793  16.310  68.414  1.00  0.00    -0.155 OA 
HETATM   10  S   UNL     1      -9.350  18.547  66.724  1.00  0.00    -0.306 S  
ENDROOT
BRANCH   3  11
HETATM   11  N   UNL     1      -9.949  13.763  67.999  1.00  0.00    -0.239 N  
HETATM   12  O   UNL     1     -11.843  13.104  66.854  1.00  0.00    -0.365 OA 
HETATM   13  C   UNL     1     -11.028  12.935  67.751  1.00  0.00    -0.243 C  
HETATM   14  H   UNL     1      -9.420  13.622  68.860  1.00  0.00     0.000 HD 
BRANCH  13  15
HETATM   15  C   UNL     1     -11.232  11.747  68.689  1.00  0.00    -0.257 C  
BRANCH  15  16
HETATM   16  C   UNL     1     -12.026  11.924  69.914  1.00  0.00    -0.325 A  
HETATM   17  C   UNL     1     -13.174  11.260  71.683  1.00  0.00    -0.327 A  
HETATM   18  N   UNL     1     -13.749  10.303  72.531  1.00  0.00    -0.465 NA 
HETATM   19  H2  UNL     1     -14.721  10.579  72.673  1.00  0.00     0.000 HD 
HETATM   20  C   UNL     1     -12.274  13.147  70.524  1.00  0.00    -0.328 A  
HETATM   21  H1  UNL     1     -13.750   9.298  72.356  1.00  0.00     0.000 HD 
HETATM   22  S   UNL     1     -13.171  12.925  71.973  1.00  0.00    -0.393 SA 
HETATM   23  N   UNL     1     -12.591  10.839  70.596  1.00  0.00    -0.350 NA 
ENDBRANCH  15  16
BRANCH  15  24
HETATM   24  N   UNL     1     -10.759  10.549  68.486  1.00  0.00    -0.208 NA 
HETATM   25  H   UNL     1     -10.384   9.955  69.226  1.00  0.00     0.000 HD 
BRANCH  24  26
HETATM   26  O   UNL     1     -10.823  10.169  67.143  1.00  0.00    -0.251 OA 
HETATM   27  O   UNL     1      -9.999  10.718  64.795  1.00  0.00    -0.269 OA 
HETATM   28  O   UNL     1      -8.498   9.053  64.658  1.00  0.00    -0.164 OA 
HETATM   29  C   UNL     1      -8.459   9.542  67.600  1.00  0.00    -0.122 C  
HETATM   30  C   UNL     1     -10.198   7.864  66.813  1.00  0.00    -0.358 C  
HETATM   31  C   UNL     1      -9.721   9.311  66.759  1.00  0.00    -0.200 C  
HETATM   32  C   UNL     1      -9.445   9.755  65.317  1.00  0.00    -0.279 C  
ENDBRANCH  24  26
ENDBRANCH  15  24
ENDBRANCH  13  15
ENDBRANCH   3  11
TORSDOF 5
ENDMDL
MODEL       71
REMARK 921   NORMALIZED FREE ENERGY PREDICTED BY IDOCK:   -5.98 KCAL/MOL
REMARK 922        TOTAL FREE ENERGY PREDICTED BY IDOCK:   -8.88 KCAL/MOL
REMARK 923 INTER-LIGAND FREE ENERGY PREDICTED BY IDOCK:   -8.01 KCAL/MOL
REMARK 924 INTRA-LIGAND FREE ENERGY PREDICTED BY IDOCK:   -0.86 KCAL/MOL
REMARK 927      BINDING AFFINITY PREDICTED BY RF-SCORE:    0.00 PKD
ROOT
HETATM    1  C   UNL     1      -9.609   8.480  72.072  1.00  0.00    -0.371 C  
HETATM    2  C   UNL     1     -10.430   8.635  70.812  1.00  0.00    -0.204 C  
HETATM    3  C   UNL     1      -9.837   9.642  69.776  1.00  0.00    -0.229 C  
HETATM    4  O   UNL     1     -10.679   5.607  71.168  1.00  0.00    -0.251 OA 
HETATM    5  C   UNL     1      -9.983   8.428  68.767  1.00  0.00    -0.187 C  
HETATM    6  N   UNL     1     -10.275   7.578  69.817  1.00  0.00    -0.206 N  
HETATM    7  O   UNL     1     -10.975   5.493  68.745  1.00  0.00    -0.145 OA 
HETATM    8  O   UNL     1      -8.711   5.723  69.708  1.00  0.00    -0.124 OA 
HETATM    9  O   UNL     1      -9.873   8.200  67.587  1.00  0.00    -0.152 OA 
HETATM   10  S   UNL     1     -10.143   5.944  69.849  1.00  0.00    -0.217 S  
ENDROOT
BRANCH   3  11
HETATM   11  N   UNL     1     -10.591  10.896  69.464  1.00  0.00    -0.375 N  
HETATM   12  O   UNL     1      -9.292  11.624  67.699  1.00  0.00    -0.171 OA 
HETATM   13  C   UNL     1     -10.293  11.722  68.396  1.00  0.00    -0.214 C  
HETATM   14  H   UNL     1     -11.368  11.155  70.072  1.00  0.00     0.000 HD 
BRANCH  13  15
HETATM   15  C   UNL     1     -11.267  12.858  68.093  1.00  0.00    -0.270 C  
BRANCH  15  16
HETATM   16  C   UNL     1     -11.029  14.188  68.675  1.00  0.00    -0.258 A  
HETATM   17  C   UNL     1     -11.295  15.822  70.140  1.00  0.00    -0.355 A  
HETATM   18  N   UNL     1     -11.859  16.424  71.274  1.00  0.00    -0.628 NA 
HETATM   19  H2  UNL     1     -12.173  17.352  70.990  1.00  0.00     0.000 HD 
HETATM   20  C   UNL     1     -10.074  15.089  68.220  1.00  0.00    -0.222 A  
HETATM   21  H1  UNL     1     -12.608  16.019  71.835  1.00  0.00     0.000 HD 
HETATM   22  S   UNL     1     -10.054  16.493  69.210  1.00  0.00    -0.246 SA 
HETATM   23  N   UNL     1     -11.751  14.655  69.780  1.00  0.00    -0.295 NA 
ENDBRANCH  15  16
BRANCH  15  24
HETATM   24  N   UNL     1     -12.320  12.753  67.330  1.00  0.00    -0.214 NA 
HETATM   25  H   UNL     1     -13.272  12.931  67.650  1.00  0.00     0.000 HD 
BRANCH  24  26
HETATM   26  O   UNL     1     -11.999  12.369  66.026  1.00  0.00    -0.537 OA 
HETATM   27  O   UNL     1     -12.970  11.727  63.759  1.00  0.00    -0.540 OA 
HETATM   28  O   UNL     1     -12.539  13.681  62.737  1.00  0.00    -0.456 OA 
HETATM   29  C   UNL     1     -12.906  14.634  65.539  1.00  0.00     0.008 C  
HETATM   30  C   UNL     1     -10.534  13.947  64.941  1.00  0.00    -0.446 C  
HETATM   31  C   UNL     1     -11.979  13.490  65.109  1.00  0.00    -0.368 C  
HETATM   32  C   UNL     1     -12.523  12.869  63.816  1.00  0.00    -0.347 C  
ENDBRANCH  24  26
ENDBRANCH  15  24
ENDBRANCH  13  15
ENDBRANCH   3  11
TORSDOF 5
ENDMDL
MODEL       72
REMARK 921   NORMALIZED FREE ENERGY PREDICTED BY IDOCK:   -5.95 KCAL/MOL
REMARK 922        TOTAL FREE ENERGY PREDICTED BY IDOCK:   -8.84 KCAL/MOL
REMARK 923 INTER-LIGAND FREE ENERGY PREDICTED BY IDOCK:   -8.25 KCAL/MOL
REMARK 924 INTRA-LIGAND FREE ENERGY PREDICTED BY IDOCK:   -0.59 KCAL/MOL
REMARK 927      BINDING AFFINITY PREDICTED BY RF-SCORE:    0.00 PKD
ROOT
HETATM    1  C   UNL     1      -9.335   4.980  69.823  1.00  0.00    -0.191 C  
HETATM    2  C   UNL     1      -9.819   6.363  70.197  1.00  0.00    -0.167 C  
HETATM    3  C   UNL     1     -11.109   6.820  69.445  1.00  0.00    -0.261 C  
HETATM    4  O   UNL     1      -9.027   5.371  72.981  1.00  0.00    -0.120 OA 
HETATM    5  C   UNL     1     -11.655   7.104  70.907  1.00  0.00    -0.311 C  
HETATM    6  N   UNL     1     -10.559   6.461  71.452  1.00  0.00    -0.224 N  
HETATM    7  O   UNL     1     -10.706   6.920  73.850  1.00  0.00    -0.323 OA 
HETATM    8  O   UNL     1     -11.395   4.730  72.936  1.00  0.00    -0.234 OA 
HETATM    9  O   UNL     1     -12.609   7.608  71.445  1.00  0.00    -0.329 OA 
HETATM   10  S   UNL     1     -10.422   5.813  72.951  1.00  0.00    -0.229 S  
ENDROOT
BRANCH   3  11
HETATM   11  N   UNL     1     -11.031   7.976  68.499  1.00  0.00    -0.414 N  
HETATM   12  O   UNL     1     -10.638   9.639  70.052  1.00  0.00    -0.222 OA 
HETATM   13  C   UNL     1     -10.716   9.265  68.890  1.00  0.00    -0.156 C  
HETATM   14  H   UNL     1     -11.220   7.804  67.511  1.00  0.00     0.000 HD 
BRANCH  13  15
HETATM   15  C   UNL     1     -10.487  10.297  67.789  1.00  0.00    -0.226 C  
BRANCH  15  16
HETATM   16  C   UNL     1      -9.440  10.059  66.783  1.00  0.00    -0.168 A  
HETATM   17  C   UNL     1      -8.576   9.196  64.941  1.00  0.00    -0.184 A  
HETATM   18  N   UNL     1      -8.599   8.403  63.785  1.00  0.00    -0.411 NA 
HETATM   19  H2  UNL     1      -7.760   7.823  63.807  1.00  0.00     0.000 HD 
HETATM   20  C   UNL     1      -8.205  10.697  66.764  1.00  0.00    -0.130 A  
HETATM   21  H1  UNL     1      -9.370   7.794  63.513  1.00  0.00     0.000 HD 
HETATM   22  S   UNL     1      -7.297  10.205  65.390  1.00  0.00    -0.146 SA 
HETATM   23  N   UNL     1      -9.618   9.162  65.723  1.00  0.00    -0.268 NA 
ENDBRANCH  15  16
BRANCH  15  24
HETATM   24  N   UNL     1     -11.167  11.401  67.650  1.00  0.00    -0.265 NA 
HETATM   25  H   UNL     1     -11.469  11.983  68.432  1.00  0.00     0.000 HD 
BRANCH  24  26
HETATM   26  O   UNL     1     -11.438  11.698  66.312  1.00  0.00    -0.362 OA 
HETATM   27  O   UNL     1     -13.286  12.259  64.649  1.00  0.00    -0.763 OA 
HETATM   28  O   UNL     1     -12.838  14.456  64.507  1.00  0.00    -0.634 OA 
HETATM   29  C   UNL     1     -11.937  13.926  67.300  1.00  0.00    -0.446 C  
HETATM   30  C   UNL     1     -10.162  13.581  65.516  1.00  0.00    -0.308 C  
HETATM   31  C   UNL     1     -11.508  13.123  66.065  1.00  0.00    -0.335 C  
HETATM   32  C   UNL     1     -12.609  13.221  65.002  1.00  0.00    -0.423 C  
ENDBRANCH  24  26
ENDBRANCH  15  24
ENDBRANCH  13  15
ENDBRANCH   3  11
TORSDOF 5
ENDMDL
MODEL       73
REMARK 921   NORMALIZED FREE ENERGY PREDICTED BY IDOCK:   -5.93 KCAL/MOL
REMARK 922        TOTAL FREE ENERGY PREDICTED BY IDOCK:   -8.81 KCAL/MOL
REMARK 923 INTER-LIGAND FREE ENERGY PREDICTED BY IDOCK:   -7.34 KCAL/MOL
REMARK 924 INTRA-LIGAND FREE ENERGY PREDICTED BY IDOCK:   -1.46 KCAL/MOL
REMARK 927      BINDING AFFINITY PREDICTED BY RF-SCORE:    0.00 PKD
ROOT
HETATM    1  C   UNL     1     -10.276  14.910  69.862  1.00  0.00    -0.016 C  
HETATM    2  C   UNL     1     -11.381  13.925  69.552  1.00  0.00    -0.237 C  
HETATM    3  C   UNL     1     -10.939  12.428  69.590  1.00  0.00     0.178 C  
HETATM    4  O   UNL     1     -12.965  15.883  71.289  1.00  0.00    -0.471 OA 
HETATM    5  C   UNL     1     -12.164  12.268  70.585  1.00  0.00    -0.287 C  
HETATM    6  N   UNL     1     -12.305  13.641  70.647  1.00  0.00    -0.361 N  
HETATM    7  O   UNL     1     -14.403  13.990  71.855  1.00  0.00    -0.464 OA 
HETATM    8  O   UNL     1     -12.227  14.276  72.990  1.00  0.00    -0.058 OA 
HETATM    9  O   UNL     1     -12.774  11.395  71.150  1.00  0.00    -0.392 OA 
HETATM   10  S   UNL     1     -13.050  14.520  71.814  1.00  0.00    -0.372 S  
ENDROOT
BRANCH   3  11
HETATM   11  N   UNL     1     -10.966  11.628  68.326  1.00  0.00    -0.211 N  
HETATM   12  O   UNL     1      -8.687  11.352  68.070  1.00  0.00    -0.136 OA 
HETATM   13  C   UNL     1      -9.835  11.093  67.735  1.00  0.00    -0.171 C  
HETATM   14  H   UNL     1     -11.867  11.469  67.875  1.00  0.00     0.000 HD 
BRANCH  13  15
HETATM   15  C   UNL     1     -10.040  10.143  66.558  1.00  0.00    -0.234 C  
BRANCH  15  16
HETATM   16  C   UNL     1      -9.739   8.713  66.724  1.00  0.00    -0.233 A  
HETATM   17  C   UNL     1     -10.207   6.556  66.831  1.00  0.00    -0.215 A  
HETATM   18  N   UNL     1     -11.063   5.445  66.809  1.00  0.00    -0.383 NA 
HETATM   19  H2  UNL     1     -10.851   4.891  67.638  1.00  0.00     0.000 HD 
HETATM   20  C   UNL     1      -8.459   8.185  66.847  1.00  0.00    -0.119 A  
HETATM   21  H1  UNL     1     -12.080   5.496  66.741  1.00  0.00     0.000 HD 
HETATM   22  S   UNL     1      -8.523   6.471  66.943  1.00  0.00    -0.116 SA 
HETATM   23  N   UNL     1     -10.745   7.740  66.750  1.00  0.00    -0.220 NA 
ENDBRANCH  15  16
BRANCH  15  24
HETATM   24  N   UNL     1     -10.484  10.497  65.384  1.00  0.00    -0.206 NA 
HETATM   25  H   UNL     1     -10.049  10.215  64.505  1.00  0.00     0.000 HD 
BRANCH  24  26
HETATM   26  O   UNL     1     -11.620  11.306  65.463  1.00  0.00    -0.006 OA 
HETATM   27  O   UNL     1     -12.520  13.534  66.312  1.00  0.00    -0.396 OA 
HETATM   28  O   UNL     1     -12.558  14.567  64.318  1.00  0.00    -0.681 OA 
HETATM   29  C   UNL     1     -10.285  12.686  63.881  1.00  0.00    -0.340 C  
HETATM   30  C   UNL     1     -12.576  11.756  63.296  1.00  0.00    -0.382 C  
HETATM   31  C   UNL     1     -11.672  12.290  64.401  1.00  0.00    -0.365 C  
HETATM   32  C   UNL     1     -12.303  13.500  65.104  1.00  0.00    -0.449 C  
ENDBRANCH  24  26
ENDBRANCH  15  24
ENDBRANCH  13  15
ENDBRANCH   3  11
TORSDOF 5
ENDMDL
MODEL       74
REMARK 921   NORMALIZED FREE ENERGY PREDICTED BY IDOCK:   -5.92 KCAL/MOL
REMARK 922        TOTAL FREE ENERGY PREDICTED BY IDOCK:   -8.80 KCAL/MOL
REMARK 923 INTER-LIGAND FREE ENERGY PREDICTED BY IDOCK:   -7.81 KCAL/MOL
REMARK 924 INTRA-LIGAND FREE ENERGY PREDICTED BY IDOCK:   -1.00 KCAL/MOL
REMARK 927      BINDING AFFINITY PREDICTED BY RF-SCORE:    0.00 PKD
ROOT
HETATM    1  C   UNL     1      -6.502  17.219  66.553  1.00  0.00    -0.272 C  
HETATM    2  C   UNL     1      -7.949  16.823  66.361  1.00  0.00    -0.321 C  
HETATM    3  C   UNL     1      -8.417  15.636  67.261  1.00  0.00    -0.191 C  
HETATM    4  O   UNL     1      -8.271  19.863  66.242  1.00  0.00    -0.328 OA 
HETATM    5  C   UNL     1      -9.577  16.633  67.680  1.00  0.00    -0.239 C  
HETATM    6  N   UNL     1      -8.934  17.669  67.030  1.00  0.00    -0.244 N  
HETATM    7  O   UNL     1     -10.548  19.507  67.056  1.00  0.00    -0.441 OA 
HETATM    8  O   UNL     1      -8.647  19.469  68.634  1.00  0.00    -0.356 OA 
HETATM    9  O   UNL     1     -10.600  16.629  68.318  1.00  0.00    -0.304 OA 
HETATM   10  S   UNL     1      -9.128  19.279  67.273  1.00  0.00    -0.305 S  
ENDROOT
BRANCH   3  11
HETATM   11  N   UNL     1      -8.814  14.345  66.617  1.00  0.00    -0.423 N  
HETATM   12  O   UNL     1      -7.891  12.910  68.173  1.00  0.00    -0.127 OA 
HETATM   13  C   UNL     1      -8.584  13.105  67.184  1.00  0.00    -0.192 C  
HETATM   14  H   UNL     1      -9.278  14.382  65.709  1.00  0.00     0.000 HD 
BRANCH  13  15
HETATM   15  C   UNL     1      -9.214  11.893  66.502  1.00  0.00    -0.214 C  
BRANCH  15  16
HETATM   16  C   UNL     1     -10.426  12.072  65.688  1.00  0.00    -0.256 A  
HETATM   17  C   UNL     1     -12.348  13.001  65.114  1.00  0.00    -0.484 A  
HETATM   18  N   UNL     1     -13.410  13.905  65.264  1.00  0.00    -0.586 NA 
HETATM   19  H2  UNL     1     -14.271  13.361  65.205  1.00  0.00     0.000 HD 
HETATM   20  C   UNL     1     -10.690  11.391  64.505  1.00  0.00    -0.327 A  
HETATM   21  H1  UNL     1     -13.520  14.548  66.048  1.00  0.00     0.000 HD 
HETATM   22  S   UNL     1     -12.166  11.936  63.815  1.00  0.00    -0.392 SA 
HETATM   23  N   UNL     1     -11.428  12.985  66.038  1.00  0.00    -0.321 NA 
ENDBRANCH  15  16
BRANCH  15  24
HETATM   24  N   UNL     1      -8.751  10.676  66.571  1.00  0.00    -0.142 NA 
HETATM   25  H   UNL     1      -8.321  10.187  65.785  1.00  0.00     0.000 HD 
BRANCH  24  26
HETATM   26  O   UNL     1      -8.910  10.114  67.840  1.00  0.00    -0.125 OA 
HETATM   27  O   UNL     1     -10.615   9.490  69.629  1.00  0.00    -0.209 OA 
HETATM   28  O   UNL     1     -10.611   7.281  69.220  1.00  0.00    -0.218 OA 
HETATM   29  C   UNL     1      -9.972   8.311  66.496  1.00  0.00    -0.320 C  
HETATM   30  C   UNL     1      -7.957   7.905  67.990  1.00  0.00    -0.128 C  
HETATM   31  C   UNL     1      -9.239   8.705  67.784  1.00  0.00    -0.134 C  
HETATM   32  C   UNL     1     -10.197   8.542  68.970  1.00  0.00    -0.207 C  
ENDBRANCH  24  26
ENDBRANCH  15  24
ENDBRANCH  13  15
ENDBRANCH   3  11
TORSDOF 5
ENDMDL
MODEL       75
REMARK 921   NORMALIZED FREE ENERGY PREDICTED BY IDOCK:   -5.92 KCAL/MOL
REMARK 922        TOTAL FREE ENERGY PREDICTED BY IDOCK:   -8.80 KCAL/MOL
REMARK 923 INTER-LIGAND FREE ENERGY PREDICTED BY IDOCK:   -7.30 KCAL/MOL
REMARK 924 INTRA-LIGAND FREE ENERGY PREDICTED BY IDOCK:   -1.51 KCAL/MOL
REMARK 927      BINDING AFFINITY PREDICTED BY RF-SCORE:    0.00 PKD
ROOT
HETATM    1  C   UNL     1      -6.516  17.273  66.224  1.00  0.00    -0.232 C  
HETATM    2  C   UNL     1      -8.003  17.448  66.436  1.00  0.00    -0.290 C  
HETATM    3  C   UNL     1      -8.585  16.627  67.630  1.00  0.00    -0.200 C  
HETATM    4  O   UNL     1      -7.272  20.350  65.800  1.00  0.00    -0.251 OA 
HETATM    5  C   UNL     1      -9.163  18.030  68.091  1.00  0.00    -0.279 C  
HETATM    6  N   UNL     1      -8.408  18.670  67.126  1.00  0.00    -0.259 N  
HETATM    7  O   UNL     1      -9.211  20.980  67.148  1.00  0.00    -0.241 OA 
HETATM    8  O   UNL     1      -7.083  20.369  68.246  1.00  0.00    -0.263 OA 
HETATM    9  O   UNL     1      -9.905  18.483  68.927  1.00  0.00    -0.377 OA 
HETATM   10  S   UNL     1      -7.957  20.246  67.088  1.00  0.00    -0.334 S  
ENDROOT
BRANCH   3  11
HETATM   11  N   UNL     1      -9.565  15.532  67.353  1.00  0.00    -0.212 N  
HETATM   12  O   UNL     1      -8.052  13.819  67.024  1.00  0.00    -0.118 OA 
HETATM   13  C   UNL     1      -9.203  14.211  67.161  1.00  0.00    -0.231 C  
HETATM   14  H   UNL     1     -10.555  15.773  67.303  1.00  0.00     0.000 HD 
BRANCH  13  15
HETATM   15  C   UNL     1     -10.325  13.180  67.080  1.00  0.00    -0.249 C  
BRANCH  15  16
HETATM   16  C   UNL     1     -10.464  12.360  65.866  1.00  0.00    -0.256 A  
HETATM   17  C   UNL     1     -11.398  11.710  63.971  1.00  0.00    -0.345 A  
HETATM   18  N   UNL     1     -12.369  11.753  62.960  1.00  0.00    -0.923 NA 
HETATM   19  H2  UNL     1     -12.698  10.797  62.825  1.00  0.00     0.000 HD 
HETATM   20  C   UNL     1      -9.544  11.406  65.448  1.00  0.00    -0.228 A  
HETATM   21  H1  UNL     1     -13.196  12.350  62.974  1.00  0.00     0.000 HD 
HETATM   22  S   UNL     1     -10.027  10.722  63.948  1.00  0.00    -0.335 SA 
HETATM   23  N   UNL     1     -11.556  12.494  65.000  1.00  0.00    -0.335 NA 
ENDBRANCH  15  16
BRANCH  15  24
HETATM   24  N   UNL     1     -11.192  12.946  68.025  1.00  0.00    -0.252 NA 
HETATM   25  H   UNL     1     -12.068  12.442  67.880  1.00  0.00     0.000 HD 
BRANCH  24  26
HETATM   26  O   UNL     1     -10.789  13.462  69.259  1.00  0.00    -0.167 OA 
HETATM   27  O   UNL     1      -9.921  15.541  70.450  1.00  0.00    -0.135 OA 
HETATM   28  O   UNL     1     -11.862  16.096  71.436  1.00  0.00    -0.441 OA 
HETATM   29  C   UNL     1     -12.896  14.756  68.980  1.00  0.00     0.701 C  
HETATM   30  C   UNL     1     -12.484  13.210  70.955  1.00  0.00    -0.407 C  
HETATM   31  C   UNL     1     -11.859  14.161  69.941  1.00  0.00    -0.325 C  
HETATM   32  C   UNL     1     -11.112  15.307  70.637  1.00  0.00    -0.308 C  
ENDBRANCH  24  26
ENDBRANCH  15  24
ENDBRANCH  13  15
ENDBRANCH   3  11
TORSDOF 5
ENDMDL
MODEL       76
REMARK 921   NORMALIZED FREE ENERGY PREDICTED BY IDOCK:   -5.90 KCAL/MOL
REMARK 922        TOTAL FREE ENERGY PREDICTED BY IDOCK:   -8.77 KCAL/MOL
REMARK 923 INTER-LIGAND FREE ENERGY PREDICTED BY IDOCK:   -7.61 KCAL/MOL
REMARK 924 INTRA-LIGAND FREE ENERGY PREDICTED BY IDOCK:   -1.16 KCAL/MOL
REMARK 927      BINDING AFFINITY PREDICTED BY RF-SCORE:    0.00 PKD
ROOT
HETATM    1  C   UNL     1     -10.802  16.409  69.638  1.00  0.00    -0.346 C  
HETATM    2  C   UNL     1      -9.966  15.561  68.706  1.00  0.00    -0.214 C  
HETATM    3  C   UNL     1     -10.748  14.399  68.016  1.00  0.00    -0.241 C  
HETATM    4  O   UNL     1      -8.850  18.313  67.972  1.00  0.00    -0.267 OA 
HETATM    5  C   UNL     1     -10.164  15.024  66.682  1.00  0.00    -0.268 C  
HETATM    6  N   UNL     1      -9.716  16.128  67.384  1.00  0.00    -0.231 N  
HETATM    7  O   UNL     1      -8.339  17.359  65.781  1.00  0.00    -0.538 OA 
HETATM    8  O   UNL     1     -10.638  18.099  66.305  1.00  0.00    -0.365 OA 
HETATM    9  O   UNL     1     -10.105  14.774  65.503  1.00  0.00    -0.337 OA 
HETATM   10  S   UNL     1      -9.354  17.613  66.791  1.00  0.00    -0.287 S  
ENDROOT
BRANCH   3  11
HETATM   11  N   UNL     1     -10.382  12.984  68.336  1.00  0.00    -0.250 N  
HETATM   12  O   UNL     1     -12.342  11.978  67.643  1.00  0.00    -0.345 OA 
HETATM   13  C   UNL     1     -11.186  11.899  68.037  1.00  0.00    -0.257 C  
HETATM   14  H   UNL     1      -9.490  12.810  68.800  1.00  0.00     0.000 HD 
BRANCH  13  15
HETATM   15  C   UNL     1     -10.596  10.507  68.249  1.00  0.00    -0.206 C  
BRANCH  15  16
HETATM   16  C   UNL     1     -10.956   9.747  69.455  1.00  0.00    -0.227 A  
HETATM   17  C   UNL     1     -11.016   7.976  70.776  1.00  0.00    -0.248 A  
HETATM   18  N   UNL     1     -10.740   6.644  71.118  1.00  0.00    -0.228 NA 
HETATM   19  H2  UNL     1     -11.623   6.227  71.416  1.00  0.00     0.000 HD 
HETATM   20  C   UNL     1     -11.590  10.286  70.568  1.00  0.00    -0.338 A  
HETATM   21  H1  UNL     1     -10.288   5.967  70.504  1.00  0.00     0.000 HD 
HETATM   22  S   UNL     1     -11.765   9.096  71.795  1.00  0.00    -0.385 SA 
HETATM   23  N   UNL     1     -10.660   8.385  69.591  1.00  0.00    -0.225 NA 
ENDBRANCH  15  16
BRANCH  15  24
HETATM   24  N   UNL     1      -9.783   9.909  67.422  1.00  0.00    -0.157 NA 
HETATM   25  H   UNL     1      -8.898   9.486  67.704  1.00  0.00     0.000 HD 
BRANCH  24  26
HETATM   26  O   UNL     1     -10.258   9.913  66.109  1.00  0.00    -0.250 OA 
HETATM   27  O   UNL     1     -11.224  11.378  64.261  1.00  0.00    -0.325 OA 
HETATM   28  O   UNL     1      -9.347  11.506  63.033  1.00  0.00    -0.338 OA 
HETATM   29  C   UNL     1      -8.164  11.209  65.755  1.00  0.00    -0.004 C  
HETATM   30  C   UNL     1      -8.648   9.024  64.550  1.00  0.00    -0.181 C  
HETATM   31  C   UNL     1      -9.238  10.294  65.153  1.00  0.00    -0.206 C  
HETATM   32  C   UNL     1     -10.041  11.087  64.113  1.00  0.00    -0.344 C  
ENDBRANCH  24  26
ENDBRANCH  15  24
ENDBRANCH  13  15
ENDBRANCH   3  11
TORSDOF 5
ENDMDL
MODEL       77
REMARK 921   NORMALIZED FREE ENERGY PREDICTED BY IDOCK:   -5.89 KCAL/MOL
REMARK 922        TOTAL FREE ENERGY PREDICTED BY IDOCK:   -8.76 KCAL/MOL
REMARK 923 INTER-LIGAND FREE ENERGY PREDICTED BY IDOCK:   -7.85 KCAL/MOL
REMARK 924 INTRA-LIGAND FREE ENERGY PREDICTED BY IDOCK:   -0.91 KCAL/MOL
REMARK 927      BINDING AFFINITY PREDICTED BY RF-SCORE:    0.00 PKD
ROOT
HETATM    1  C   UNL     1     -10.636  15.280  65.104  1.00  0.00    -0.453 C  
HETATM    2  C   UNL     1     -10.849  15.734  66.531  1.00  0.00    -0.230 C  
HETATM    3  C   UNL     1      -9.977  14.979  67.584  1.00  0.00    -0.225 C  
HETATM    4  O   UNL     1     -10.911  18.464  65.152  1.00  0.00    -0.604 OA 
HETATM    5  C   UNL     1      -9.550  16.441  68.026  1.00  0.00    -0.226 C  
HETATM    6  N   UNL     1     -10.173  16.971  66.913  1.00  0.00    -0.299 N  
HETATM    7  O   UNL     1     -10.127  19.389  67.274  1.00  0.00    -0.344 OA 
HETATM    8  O   UNL     1      -8.531  18.310  65.726  1.00  0.00    -0.473 OA 
HETATM    9  O   UNL     1      -8.921  16.985  68.900  1.00  0.00    -0.267 OA 
HETATM   10  S   UNL     1      -9.900  18.426  66.209  1.00  0.00    -0.297 S  
ENDROOT
BRANCH   3  11
HETATM   11  N   UNL     1     -10.650  14.116  68.604  1.00  0.00    -0.244 N  
HETATM   12  O   UNL     1     -11.589  12.579  67.159  1.00  0.00    -0.328 OA 
HETATM   13  C   UNL     1     -11.321  12.947  68.295  1.00  0.00    -0.291 C  
HETATM   14  H   UNL     1     -10.612  14.406  69.581  1.00  0.00     0.000 HD 
BRANCH  13  15
HETATM   15  C   UNL     1     -11.790  12.077  69.458  1.00  0.00    -0.326 C  
BRANCH  15  16
HETATM   16  C   UNL     1     -11.270  10.708  69.590  1.00  0.00    -0.289 A  
HETATM   17  C   UNL     1     -10.873   8.796  70.626  1.00  0.00    -0.232 A  
HETATM   18  N   UNL     1     -10.911   7.919  71.720  1.00  0.00    -0.230 NA 
HETATM   19  H2  UNL     1      -9.962   7.566  71.848  1.00  0.00     0.000 HD 
HETATM   20  C   UNL     1     -10.700   9.977  68.555  1.00  0.00    -0.231 A  
HETATM   21  H1  UNL     1     -11.263   8.160  72.646  1.00  0.00     0.000 HD 
HETATM   22  S   UNL     1     -10.289   8.397  69.091  1.00  0.00    -0.210 SA 
HETATM   23  N   UNL     1     -11.330  10.005  70.799  1.00  0.00    -0.336 NA 
ENDBRANCH  15  16
BRANCH  15  24
HETATM   24  N   UNL     1     -12.630  12.457  70.380  1.00  0.00    -0.097 NA 
HETATM   25  H   UNL     1     -13.165  11.811  70.962  1.00  0.00     0.000 HD 
BRANCH  24  26
HETATM   26  O   UNL     1     -12.718  13.848  70.483  1.00  0.00    -0.312 OA 
HETATM   27  O   UNL     1     -14.331  15.820  70.550  1.00  0.00     0.188 OA 
HETATM   28  O   UNL     1     -14.193  16.183  72.763  1.00  0.00    -0.375 OA 
HETATM   29  C   UNL     1     -13.695  13.244  72.691  1.00  0.00    -0.465 C  
HETATM   30  C   UNL     1     -11.619  14.691  72.456  1.00  0.00     0.154 C  
HETATM   31  C   UNL     1     -12.955  14.287  71.843  1.00  0.00    -0.350 C  
HETATM   32  C   UNL     1     -13.869  15.502  71.643  1.00  0.00    -0.456 C  
ENDBRANCH  24  26
ENDBRANCH  15  24
ENDBRANCH  13  15
ENDBRANCH   3  11
TORSDOF 5
ENDMDL
MODEL       78
REMARK 921   NORMALIZED FREE ENERGY PREDICTED BY IDOCK:   -5.89 KCAL/MOL
REMARK 922        TOTAL FREE ENERGY PREDICTED BY IDOCK:   -8.76 KCAL/MOL
REMARK 923 INTER-LIGAND FREE ENERGY PREDICTED BY IDOCK:   -7.80 KCAL/MOL
REMARK 924 INTRA-LIGAND FREE ENERGY PREDICTED BY IDOCK:   -0.96 KCAL/MOL
REMARK 927      BINDING AFFINITY PREDICTED BY RF-SCORE:    0.00 PKD
ROOT
HETATM    1  C   UNL     1     -10.712   9.229  71.483  1.00  0.00    -0.425 C  
HETATM    2  C   UNL     1     -11.030   9.360  70.011  1.00  0.00    -0.239 C  
HETATM    3  C   UNL     1     -10.000  10.211  69.202  1.00  0.00    -0.210 C  
HETATM    4  O   UNL     1     -11.760   6.414  70.391  1.00  0.00    -0.396 OA 
HETATM    5  C   UNL     1      -9.945   8.937  68.260  1.00  0.00    -0.175 C  
HETATM    6  N   UNL     1     -10.679   8.212  69.179  1.00  0.00    -0.158 N  
HETATM    7  O   UNL     1     -11.227   6.127  68.023  1.00  0.00    -0.310 OA 
HETATM    8  O   UNL     1      -9.415   6.206  69.702  1.00  0.00    -0.144 OA 
HETATM    9  O   UNL     1      -9.469   8.601  67.203  1.00  0.00    -0.147 OA 
HETATM   10  S   UNL     1     -10.771   6.582  69.327  1.00  0.00    -0.311 S  
ENDROOT
BRANCH   3  11
HETATM   11  N   UNL     1     -10.441  11.504  68.593  1.00  0.00    -0.197 N  
HETATM   12  O   UNL     1      -8.401  12.174  67.744  1.00  0.00    -0.140 OA 
HETATM   13  C   UNL     1      -9.612  12.320  67.846  1.00  0.00    -0.203 C  
HETATM   14  H   UNL     1     -11.407  11.799  68.736  1.00  0.00     0.000 HD 
BRANCH  13  15
HETATM   15  C   UNL     1     -10.252  13.507  67.131  1.00  0.00    -0.247 C  
BRANCH  15  16
HETATM   16  C   UNL     1     -10.871  13.306  65.811  1.00  0.00    -0.274 A  
HETATM   17  C   UNL     1     -11.314  12.217  63.940  1.00  0.00    -0.429 A  
HETATM   18  N   UNL     1     -11.203  11.142  63.046  1.00  0.00    -0.778 NA 
HETATM   19  H2  UNL     1     -10.989  11.540  62.131  1.00  0.00     0.000 HD 
HETATM   20  C   UNL     1     -11.801  14.164  65.237  1.00  0.00    -0.367 A  
HETATM   21  H1  UNL     1     -10.583  10.342  63.172  1.00  0.00     0.000 HD 
HETATM   22  S   UNL     1     -12.342  13.542  63.729  1.00  0.00    -0.224 SA 
HETATM   23  N   UNL     1     -10.580  12.191  65.016  1.00  0.00    -0.280 NA 
ENDBRANCH  15  16
BRANCH  15  24
HETATM   24  N   UNL     1     -10.310  14.720  67.606  1.00  0.00    -0.237 NA 
HETATM   25  H   UNL     1     -11.108  15.087  68.127  1.00  0.00     0.000 HD 
BRANCH  24  26
HETATM   26  O   UNL     1      -9.161  15.461  67.323  1.00  0.00    -0.194 OA 
HETATM   27  O   UNL     1      -8.132  17.153  65.719  1.00  0.00    -0.497 OA 
HETATM   28  O   UNL     1      -8.318  18.933  67.076  1.00  0.00    -0.265 OA 
HETATM   29  C   UNL     1     -10.655  17.330  68.005  1.00  0.00    -0.394 C  
HETATM   30  C   UNL     1      -8.465  16.820  69.188  1.00  0.00    -0.084 C  
HETATM   31  C   UNL     1      -9.221  16.803  67.865  1.00  0.00    -0.225 C  
HETATM   32  C   UNL     1      -8.493  17.625  66.793  1.00  0.00    -0.251 C  
ENDBRANCH  24  26
ENDBRANCH  15  24
ENDBRANCH  13  15
ENDBRANCH   3  11
TORSDOF 5
ENDMDL
MODEL       79
REMARK 921   NORMALIZED FREE ENERGY PREDICTED BY IDOCK:   -5.86 KCAL/MOL
REMARK 922        TOTAL FREE ENERGY PREDICTED BY IDOCK:   -8.71 KCAL/MOL
REMARK 923 INTER-LIGAND FREE ENERGY PREDICTED BY IDOCK:   -7.61 KCAL/MOL
REMARK 924 INTRA-LIGAND FREE ENERGY PREDICTED BY IDOCK:   -1.11 KCAL/MOL
REMARK 927      BINDING AFFINITY PREDICTED BY RF-SCORE:    0.00 PKD
ROOT
HETATM    1  C   UNL     1     -11.171  15.109  65.242  1.00  0.00    -0.359 C  
HETATM    2  C   UNL     1     -10.754  15.046  66.694  1.00  0.00    -0.312 C  
HETATM    3  C   UNL     1      -9.752  13.896  67.028  1.00  0.00    -0.250 C  
HETATM    4  O   UNL     1     -10.704  18.082  66.319  1.00  0.00    -0.288 OA 
HETATM    5  C   UNL     1      -8.885  15.064  67.658  1.00  0.00    -0.179 C  
HETATM    6  N   UNL     1      -9.732  16.005  67.105  1.00  0.00    -0.226 N  
HETATM    7  O   UNL     1      -9.029  18.127  68.099  1.00  0.00    -0.275 OA 
HETATM    8  O   UNL     1      -8.372  17.529  65.793  1.00  0.00    -0.538 OA 
HETATM    9  O   UNL     1      -7.882  15.208  68.313  1.00  0.00    -0.118 OA 
HETATM   10  S   UNL     1      -9.416  17.586  66.806  1.00  0.00    -0.285 S  
ENDROOT
BRANCH   3  11
HETATM   11  N   UNL     1     -10.188  12.790  67.936  1.00  0.00    -0.223 N  
HETATM   12  O   UNL     1     -11.843  11.902  66.594  1.00  0.00    -0.591 OA 
HETATM   13  C   UNL     1     -11.136  11.845  67.591  1.00  0.00    -0.257 C  
HETATM   14  H   UNL     1      -9.761  12.730  68.862  1.00  0.00     0.000 HD 
BRANCH  13  15
HETATM   15  C   UNL     1     -11.337  10.670  68.544  1.00  0.00    -0.284 C  
BRANCH  15  16
HETATM   16  C   UNL     1     -11.997  10.895  69.839  1.00  0.00    -0.353 A  
HETATM   17  C   UNL     1     -12.881  12.102  71.466  1.00  0.00    -0.289 A  
HETATM   18  N   UNL     1     -13.245  13.301  72.096  1.00  0.00    -0.460 NA 
HETATM   19  H2  UNL     1     -12.893  13.251  73.053  1.00  0.00     0.000 HD 
HETATM   20  C   UNL     1     -12.484   9.887  70.663  1.00  0.00    -0.187 A  
HETATM   21  H1  UNL     1     -13.021  14.233  71.748  1.00  0.00     0.000 HD 
HETATM   22  S   UNL     1     -13.253  10.559  72.044  1.00  0.00    -0.244 SA 
HETATM   23  N   UNL     1     -12.214  12.181  70.349  1.00  0.00    -0.330 NA 
ENDBRANCH  15  16
BRANCH  15  24
HETATM   24  N   UNL     1     -10.972   9.442  68.299  1.00  0.00    -0.471 NA 
HETATM   25  H   UNL     1     -11.502   8.801  67.707  1.00  0.00     0.000 HD 
BRANCH  24  26
HETATM   26  O   UNL     1      -9.777   9.101  68.937  1.00  0.00    -0.157 OA 
HETATM   27  O   UNL     1      -8.732   8.473  71.175  1.00  0.00    -0.142 OA 
HETATM   28  O   UNL     1      -8.527   6.276  70.749  1.00  0.00    -0.131 OA 
HETATM   29  C   UNL     1     -10.928   6.901  69.094  1.00  0.00    -0.240 C  
HETATM   30  C   UNL     1      -8.700   7.205  67.911  1.00  0.00    -0.126 C  
HETATM   31  C   UNL     1      -9.601   7.668  69.050  1.00  0.00    -0.151 C  
HETATM   32  C   UNL     1      -8.901   7.528  70.409  1.00  0.00    -0.145 C  
ENDBRANCH  24  26
ENDBRANCH  15  24
ENDBRANCH  13  15
ENDBRANCH   3  11
TORSDOF 5
ENDMDL
MODEL       80
REMARK 921   NORMALIZED FREE ENERGY PREDICTED BY IDOCK:   -5.85 KCAL/MOL
REMARK 922        TOTAL FREE ENERGY PREDICTED BY IDOCK:   -8.71 KCAL/MOL
REMARK 923 INTER-LIGAND FREE ENERGY PREDICTED BY IDOCK:   -7.83 KCAL/MOL
REMARK 924 INTRA-LIGAND FREE ENERGY PREDICTED BY IDOCK:   -0.88 KCAL/MOL
REMARK 927      BINDING AFFINITY PREDICTED BY RF-SCORE:    0.00 PKD
ROOT
HETATM    1  C   UNL     1     -10.072  16.625  69.734  1.00  0.00     0.042 C  
HETATM    2  C   UNL     1      -9.532  16.406  68.339  1.00  0.00    -0.220 C  
HETATM    3  C   UNL     1     -10.517  15.676  67.372  1.00  0.00    -0.291 C  
HETATM    4  O   UNL     1      -8.480  19.239  68.816  1.00  0.00    -0.361 OA 
HETATM    5  C   UNL     1     -10.238  16.916  66.424  1.00  0.00    -0.321 C  
HETATM    6  N   UNL     1      -9.577  17.564  67.451  1.00  0.00    -0.261 N  
HETATM    7  O   UNL     1      -8.562  19.521  66.389  1.00  0.00    -0.332 OA 
HETATM    8  O   UNL     1     -10.625  19.737  67.733  1.00  0.00    -0.421 OA 
HETATM    9  O   UNL     1     -10.478  17.279  65.300  1.00  0.00    -0.661 OA 
HETATM   10  S   UNL     1      -9.290  19.172  67.599  1.00  0.00    -0.310 S  
ENDROOT
BRANCH   3  11
HETATM   11  N   UNL     1     -10.160  14.317  66.858  1.00  0.00    -0.260 N  
HETATM   12  O   UNL     1     -10.603  13.116  68.780  1.00  0.00    -0.248 OA 
HETATM   13  C   UNL     1     -10.321  13.155  67.590  1.00  0.00    -0.223 C  
HETATM   14  H   UNL     1      -9.777  14.244  65.915  1.00  0.00     0.000 HD 
BRANCH  13  15
HETATM   15  C   UNL     1     -10.094  11.831  66.865  1.00  0.00    -0.207 C  
BRANCH  15  16
HETATM   16  C   UNL     1      -8.752  11.228  66.866  1.00  0.00    -0.157 A  
HETATM   17  C   UNL     1      -6.549  11.217  66.685  1.00  0.00    -0.135 A  
HETATM   18  N   UNL     1      -5.297  11.804  66.455  1.00  0.00    -0.423 NA 
HETATM   19  H2  UNL     1      -4.818  11.220  65.769  1.00  0.00     0.000 HD 
HETATM   20  C   UNL     1      -8.480   9.909  67.209  1.00  0.00    -0.121 A  
HETATM   21  H1  UNL     1      -5.153  12.773  66.168  1.00  0.00     0.000 HD 
HETATM   22  S   UNL     1      -6.788   9.613  67.161  1.00  0.00    -0.084 SA 
HETATM   23  N   UNL     1      -7.608  11.963  66.532  1.00  0.00     0.049 NA 
ENDBRANCH  15  16
BRANCH  15  24
HETATM   24  N   UNL     1     -11.017  11.160  66.234  1.00  0.00    -0.215 NA 
HETATM   25  H   UNL     1     -10.976  10.153  66.072  1.00  0.00     0.000 HD 
BRANCH  24  26
HETATM   26  O   UNL     1     -12.070  11.972  65.804  1.00  0.00    -0.536 OA 
HETATM   27  O   UNL     1     -12.840  14.385  65.523  1.00  0.00    -0.458 OA 
HETATM   28  O   UNL     1     -12.538  14.488  63.299  1.00  0.00    -0.514 OA 
HETATM   29  C   UNL     1     -10.426  12.508  64.015  1.00  0.00    -0.449 C  
HETATM   30  C   UNL     1     -12.712  11.511  63.527  1.00  0.00    -0.043 C  
HETATM   31  C   UNL     1     -11.898  12.423  64.438  1.00  0.00    -0.389 C  
HETATM   32  C   UNL     1     -12.485  13.839  64.482  1.00  0.00    -0.285 C  
ENDBRANCH  24  26
ENDBRANCH  15  24
ENDBRANCH  13  15
ENDBRANCH   3  11
TORSDOF 5
ENDMDL
MODEL       81
REMARK 921   NORMALIZED FREE ENERGY PREDICTED BY IDOCK:   -5.84 KCAL/MOL
REMARK 922        TOTAL FREE ENERGY PREDICTED BY IDOCK:   -8.69 KCAL/MOL
REMARK 923 INTER-LIGAND FREE ENERGY PREDICTED BY IDOCK:   -7.58 KCAL/MOL
REMARK 924 INTRA-LIGAND FREE ENERGY PREDICTED BY IDOCK:   -1.11 KCAL/MOL
REMARK 927      BINDING AFFINITY PREDICTED BY RF-SCORE:    0.00 PKD
ROOT
HETATM    1  C   UNL     1     -10.943  16.336  69.473  1.00  0.00    -0.339 C  
HETATM    2  C   UNL     1     -10.213  15.908  68.220  1.00  0.00    -0.227 C  
HETATM    3  C   UNL     1     -11.092  15.119  67.199  1.00  0.00    -0.335 C  
HETATM    4  O   UNL     1      -9.026  18.711  68.525  1.00  0.00    -0.323 OA 
HETATM    5  C   UNL     1     -10.573  16.207  66.170  1.00  0.00    -0.283 C  
HETATM    6  N   UNL     1     -10.029  16.942  67.206  1.00  0.00    -0.270 N  
HETATM    7  O   UNL     1      -8.710  18.681  66.102  1.00  0.00    -0.451 OA 
HETATM    8  O   UNL     1     -10.932  19.191  67.056  1.00  0.00    -0.426 OA 
HETATM    9  O   UNL     1     -10.607  16.436  64.986  1.00  0.00    -0.651 OA 
HETATM   10  S   UNL     1      -9.641  18.535  67.209  1.00  0.00    -0.302 S  
ENDROOT
BRANCH   3  11
HETATM   11  N   UNL     1     -10.769  13.686  66.913  1.00  0.00    -0.274 N  
HETATM   12  O   UNL     1      -8.492  13.922  66.608  1.00  0.00    -0.056 OA 
HETATM   13  C   UNL     1      -9.482  13.214  66.730  1.00  0.00    -0.252 C  
HETATM   14  H   UNL     1     -11.541  13.022  66.849  1.00  0.00     0.000 HD 
BRANCH  13  15
HETATM   15  C   UNL     1      -9.296  11.702  66.637  1.00  0.00    -0.194 C  
BRANCH  15  16
HETATM   16  C   UNL     1      -9.258  11.059  65.314  1.00  0.00    -0.207 A  
HETATM   17  C   UNL     1      -8.847   9.430  63.878  1.00  0.00    -0.173 A  
HETATM   18  N   UNL     1      -8.384   8.160  63.505  1.00  0.00    -0.377 NA 
HETATM   19  H2  UNL     1      -7.764   8.293  62.706  1.00  0.00     0.000 HD 
HETATM   20  C   UNL     1      -9.795  11.606  64.155  1.00  0.00    -0.242 A  
HETATM   21  H1  UNL     1      -7.919   7.503  64.132  1.00  0.00     0.000 HD 
HETATM   22  S   UNL     1      -9.618  10.517  62.838  1.00  0.00    -0.274 SA 
HETATM   23  N   UNL     1      -8.681   9.799  65.117  1.00  0.00    -0.156 NA 
ENDBRANCH  15  16
BRANCH  15  24
HETATM   24  N   UNL     1      -9.151  10.905  67.659  1.00  0.00    -0.147 NA 
HETATM   25  H   UNL     1      -8.589  10.054  67.640  1.00  0.00     0.000 HD 
BRANCH  24  26
HETATM   26  O   UNL     1      -9.851  11.346  68.784  1.00  0.00    -0.205 OA 
HETATM   27  O   UNL     1     -12.035  12.388  69.586  1.00  0.00    -0.304 OA 
HETATM   28  O   UNL     1     -12.926  10.499  70.413  1.00  0.00    -0.314 OA 
HETATM   29  C   UNL     1     -11.246   9.362  68.228  1.00  0.00     0.129 C  
HETATM   30  C   UNL     1     -10.065   9.629  70.462  1.00  0.00    -0.338 C  
HETATM   31  C   UNL     1     -10.755  10.340  69.303  1.00  0.00    -0.234 C  
HETATM   32  C   UNL     1     -11.942  11.181  69.789  1.00  0.00    -0.357 C  
ENDBRANCH  24  26
ENDBRANCH  15  24
ENDBRANCH  13  15
ENDBRANCH   3  11
TORSDOF 5
ENDMDL
MODEL       82
REMARK 921   NORMALIZED FREE ENERGY PREDICTED BY IDOCK:   -5.83 KCAL/MOL
REMARK 922        TOTAL FREE ENERGY PREDICTED BY IDOCK:   -8.68 KCAL/MOL
REMARK 923 INTER-LIGAND FREE ENERGY PREDICTED BY IDOCK:   -7.63 KCAL/MOL
REMARK 924 INTRA-LIGAND FREE ENERGY PREDICTED BY IDOCK:   -1.06 KCAL/MOL
REMARK 927      BINDING AFFINITY PREDICTED BY RF-SCORE:    0.00 PKD
ROOT
HETATM    1  C   UNL     1     -10.295   6.325  69.133  1.00  0.00    -0.262 C  
HETATM    2  C   UNL     1      -9.975   7.693  69.692  1.00  0.00    -0.185 C  
HETATM    3  C   UNL     1     -11.031   8.792  69.352  1.00  0.00    -0.030 C  
HETATM    4  O   UNL     1      -9.140   5.992  72.094  1.00  0.00    -0.143 OA 
HETATM    5  C   UNL     1     -11.036   9.031  70.920  1.00  0.00    -0.268 C  
HETATM    6  N   UNL     1     -10.280   7.889  71.106  1.00  0.00    -0.195 N  
HETATM    7  O   UNL     1      -9.651   7.947  73.469  1.00  0.00    -0.284 OA 
HETATM    8  O   UNL     1     -11.473   6.476  72.680  1.00  0.00    -0.251 OA 
HETATM    9  O   UNL     1     -11.493   9.803  71.726  1.00  0.00    -0.322 OA 
HETATM   10  S   UNL     1     -10.129   7.000  72.476  1.00  0.00    -0.183 S  
ENDROOT
BRANCH   3  11
HETATM   11  N   UNL     1     -10.634   9.939  68.478  1.00  0.00    -0.208 N  
HETATM   12  O   UNL     1     -12.572  11.180  68.674  1.00  0.00    -0.318 OA 
HETATM   13  C   UNL     1     -11.414  11.066  68.293  1.00  0.00    -0.304 C  
HETATM   14  H   UNL     1      -9.739   9.886  67.991  1.00  0.00     0.000 HD 
BRANCH  13  15
HETATM   15  C   UNL     1     -10.794  12.232  67.528  1.00  0.00    -0.234 C  
BRANCH  15  16
HETATM   16  C   UNL     1     -10.816  12.223  66.057  1.00  0.00    -0.275 A  
HETATM   17  C   UNL     1     -11.481  12.863  64.049  1.00  0.00    -0.422 A  
HETATM   18  N   UNL     1     -12.257  13.614  63.154  1.00  0.00    -1.046 NA 
HETATM   19  H2  UNL     1     -12.660  12.955  62.488  1.00  0.00     0.000 HD 
HETATM   20  C   UNL     1      -9.947  11.487  65.260  1.00  0.00    -0.260 A  
HETATM   21  H1  UNL     1     -13.004  14.252  63.426  1.00  0.00     0.000 HD 
HETATM   22  S   UNL     1     -10.242  11.806  63.598  1.00  0.00    -0.468 SA 
HETATM   23  N   UNL     1     -11.724  12.995  65.323  1.00  0.00    -0.336 NA 
ENDBRANCH  15  16
BRANCH  15  24
HETATM   24  N   UNL     1     -10.239  13.274  68.082  1.00  0.00    -0.237 NA 
HETATM   25  H   UNL     1     -10.731  14.150  68.261  1.00  0.00     0.000 HD 
BRANCH  24  26
HETATM   26  O   UNL     1      -8.897  13.059  68.401  1.00  0.00    -0.183 OA 
HETATM   27  O   UNL     1      -6.629  12.377  67.460  1.00  0.00    -0.116 OA 
HETATM   28  O   UNL     1      -5.747  14.442  67.407  1.00  0.00    -0.342 OA 
HETATM   29  C   UNL     1      -8.627  15.101  67.006  1.00  0.00    -0.265 C  
HETATM   30  C   UNL     1      -7.880  14.986  69.432  1.00  0.00    -0.179 C  
HETATM   31  C   UNL     1      -8.071  14.217  68.130  1.00  0.00    -0.144 C  
HETATM   32  C   UNL     1      -6.757  13.582  67.657  1.00  0.00    -0.167 C  
ENDBRANCH  24  26
ENDBRANCH  15  24
ENDBRANCH  13  15
ENDBRANCH   3  11
TORSDOF 5
ENDMDL
MODEL       83
REMARK 921   NORMALIZED FREE ENERGY PREDICTED BY IDOCK:   -5.83 KCAL/MOL
REMARK 922        TOTAL FREE ENERGY PREDICTED BY IDOCK:   -8.68 KCAL/MOL
REMARK 923 INTER-LIGAND FREE ENERGY PREDICTED BY IDOCK:   -8.17 KCAL/MOL
REMARK 924 INTRA-LIGAND FREE ENERGY PREDICTED BY IDOCK:   -0.51 KCAL/MOL
REMARK 927      BINDING AFFINITY PREDICTED BY RF-SCORE:    0.00 PKD
ROOT
HETATM    1  C   UNL     1     -10.578  15.828  65.116  1.00  0.00    -0.436 C  
HETATM    2  C   UNL     1     -10.509  16.123  66.597  1.00  0.00    -0.300 C  
HETATM    3  C   UNL     1      -9.635  15.119  67.414  1.00  0.00    -0.208 C  
HETATM    4  O   UNL     1     -10.312  18.985  65.536  1.00  0.00    -0.485 OA 
HETATM    5  C   UNL     1      -8.913  16.433  67.931  1.00  0.00    -0.196 C  
HETATM    6  N   UNL     1      -9.591  17.187  66.992  1.00  0.00    -0.252 N  
HETATM    7  O   UNL     1      -9.093  19.506  67.590  1.00  0.00    -0.302 OA 
HETATM    8  O   UNL     1      -7.933  18.408  65.704  1.00  0.00    -0.482 OA 
HETATM    9  O   UNL     1      -8.086  16.762  68.746  1.00  0.00    -0.236 OA 
HETATM   10  S   UNL     1      -9.182  18.664  66.408  1.00  0.00    -0.251 S  
ENDROOT
BRANCH   3  11
HETATM   11  N   UNL     1     -10.291  14.243  68.434  1.00  0.00    -0.241 N  
HETATM   12  O   UNL     1     -11.373  12.810  66.981  1.00  0.00    -0.281 OA 
HETATM   13  C   UNL     1     -11.029  13.118  68.115  1.00  0.00    -0.251 C  
HETATM   14  H   UNL     1     -10.189  14.490  69.419  1.00  0.00     0.000 HD 
BRANCH  13  15
HETATM   15  C   UNL     1     -11.475  12.220  69.266  1.00  0.00    -0.292 C  
BRANCH  15  16
HETATM   16  C   UNL     1     -12.149  12.818  70.429  1.00  0.00    -0.302 A  
HETATM   17  C   UNL     1     -12.687  14.440  71.830  1.00  0.00    -0.349 A  
HETATM   18  N   UNL     1     -12.634  15.750  72.329  1.00  0.00    -0.416 NA 
HETATM   19  H2  UNL     1     -12.447  15.678  73.329  1.00  0.00     0.000 HD 
HETATM   20  C   UNL     1     -13.083  12.163  71.222  1.00  0.00    -0.116 A  
HETATM   21  H1  UNL     1     -12.026  16.485  71.968  1.00  0.00     0.000 HD 
HETATM   22  S   UNL     1     -13.695  13.223  72.428  1.00  0.00    -0.480 SA 
HETATM   23  N   UNL     1     -11.912  14.139  70.826  1.00  0.00    -0.322 NA 
ENDBRANCH  15  16
BRANCH  15  24
HETATM   24  N   UNL     1     -11.315  10.926  69.306  1.00  0.00    -0.252 NA 
HETATM   25  H   UNL     1     -11.393  10.320  68.489  1.00  0.00     0.000 HD 
BRANCH  24  26
HETATM   26  O   UNL     1     -11.025  10.462  70.591  1.00  0.00    -0.289 OA 
HETATM   27  O   UNL     1     -11.871   9.011  72.507  1.00  0.00    -0.233 OA 
HETATM   28  O   UNL     1     -10.498   7.272  72.132  1.00  0.00    -0.198 OA 
HETATM   29  C   UNL     1     -10.778   8.319  69.353  1.00  0.00    -0.160 C  
HETATM   30  C   UNL     1      -8.889   9.351  70.703  1.00  0.00    -0.275 C  
HETATM   31  C   UNL     1     -10.396   9.158  70.579  1.00  0.00    -0.235 C  
HETATM   32  C   UNL     1     -10.981   8.498  71.834  1.00  0.00    -0.324 C  
ENDBRANCH  24  26
ENDBRANCH  15  24
ENDBRANCH  13  15
ENDBRANCH   3  11
TORSDOF 5
ENDMDL
MODEL       84
REMARK 921   NORMALIZED FREE ENERGY PREDICTED BY IDOCK:   -5.82 KCAL/MOL
REMARK 922        TOTAL FREE ENERGY PREDICTED BY IDOCK:   -8.67 KCAL/MOL
REMARK 923 INTER-LIGAND FREE ENERGY PREDICTED BY IDOCK:   -7.71 KCAL/MOL
REMARK 924 INTRA-LIGAND FREE ENERGY PREDICTED BY IDOCK:   -0.96 KCAL/MOL
REMARK 927      BINDING AFFINITY PREDICTED BY RF-SCORE:    0.00 PKD
ROOT
HETATM    1  C   UNL     1     -11.704  10.042  71.115  1.00  0.00    -0.472 C  
HETATM    2  C   UNL     1     -11.215   9.463  69.806  1.00  0.00    -0.114 C  
HETATM    3  C   UNL     1      -9.793   9.947  69.378  1.00  0.00    -0.217 C  
HETATM    4  O   UNL     1     -12.517   6.955  70.978  1.00  0.00    -0.382 OA 
HETATM    5  C   UNL     1      -9.487   8.395  69.261  1.00  0.00    -0.155 C  
HETATM    6  N   UNL     1     -10.692   8.101  69.870  1.00  0.00    -0.246 N  
HETATM    7  O   UNL     1     -10.927   5.678  69.631  1.00  0.00    -0.348 OA 
HETATM    8  O   UNL     1     -10.215   6.675  71.777  1.00  0.00    -0.188 OA 
HETATM    9  O   UNL     1      -8.610   7.663  68.874  1.00  0.00    -0.128 OA 
HETATM   10  S   UNL     1     -11.116   6.714  70.634  1.00  0.00    -0.321 S  
ENDROOT
BRANCH   3  11
HETATM   11  N   UNL     1      -9.647  10.777  68.142  1.00  0.00    -0.156 N  
HETATM   12  O   UNL     1     -10.801  12.641  68.866  1.00  0.00    -0.237 OA 
HETATM   13  C   UNL     1     -10.094  12.081  68.039  1.00  0.00    -0.198 C  
HETATM   14  H   UNL     1      -9.193  10.357  67.331  1.00  0.00     0.000 HD 
BRANCH  13  15
HETATM   15  C   UNL     1      -9.704  12.861  66.786  1.00  0.00    -0.246 C  
BRANCH  15  16
HETATM   16  C   UNL     1     -10.623  12.888  65.638  1.00  0.00    -0.277 A  
HETATM   17  C   UNL     1     -11.916  13.835  64.115  1.00  0.00    -0.432 A  
HETATM   18  N   UNL     1     -12.533  14.923  63.480  1.00  0.00    -0.868 NA 
HETATM   19  H2  UNL     1     -13.525  14.696  63.403  1.00  0.00     0.000 HD 
HETATM   20  C   UNL     1     -10.982  11.775  64.888  1.00  0.00    -0.300 A  
HETATM   21  H1  UNL     1     -12.476  15.890  63.797  1.00  0.00     0.000 HD 
HETATM   22  S   UNL     1     -12.010  12.232  63.589  1.00  0.00    -0.565 SA 
HETATM   23  N   UNL     1     -11.210  14.076  65.184  1.00  0.00    -0.316 NA 
ENDBRANCH  15  16
BRANCH  15  24
HETATM   24  N   UNL     1      -8.597  13.535  66.643  1.00  0.00    -0.443 NA 
HETATM   25  H   UNL     1      -7.855  13.276  65.992  1.00  0.00     0.000 HD 
BRANCH  24  26
HETATM   26  O   UNL     1      -8.539  14.652  67.480  1.00  0.00    -0.165 OA 
HETATM   27  O   UNL     1      -8.370  15.414  69.906  1.00  0.00    -0.134 OA 
HETATM   28  O   UNL     1      -6.203  16.000  69.836  1.00  0.00    -0.178 OA 
HETATM   29  C   UNL     1      -6.215  13.824  67.797  1.00  0.00    -0.159 C  
HETATM   30  C   UNL     1      -6.736  16.142  66.896  1.00  0.00    -0.100 C  
HETATM   31  C   UNL     1      -7.180  15.016  67.823  1.00  0.00    -0.168 C  
HETATM   32  C   UNL     1      -7.324  15.506  69.270  1.00  0.00    -0.202 C  
ENDBRANCH  24  26
ENDBRANCH  15  24
ENDBRANCH  13  15
ENDBRANCH   3  11
TORSDOF 5
ENDMDL
MODEL       85
REMARK 921   NORMALIZED FREE ENERGY PREDICTED BY IDOCK:   -5.82 KCAL/MOL
REMARK 922        TOTAL FREE ENERGY PREDICTED BY IDOCK:   -8.67 KCAL/MOL
REMARK 923 INTER-LIGAND FREE ENERGY PREDICTED BY IDOCK:   -7.15 KCAL/MOL
REMARK 924 INTRA-LIGAND FREE ENERGY PREDICTED BY IDOCK:   -1.52 KCAL/MOL
REMARK 927      BINDING AFFINITY PREDICTED BY RF-SCORE:    0.00 PKD
ROOT
HETATM    1  C   UNL     1      -9.007  10.081  66.376  1.00  0.00    -0.164 C  
HETATM    2  C   UNL     1      -9.010  10.359  67.862  1.00  0.00    -0.128 C  
HETATM    3  C   UNL     1     -10.273  11.122  68.373  1.00  0.00    -0.188 C  
HETATM    4  O   UNL     1      -7.883   7.515  67.915  1.00  0.00    -0.113 OA 
HETATM    5  C   UNL     1     -10.371   9.923  69.406  1.00  0.00    -0.222 C  
HETATM    6  N   UNL     1      -9.387   9.237  68.718  1.00  0.00    -0.138 N  
HETATM    7  O   UNL     1      -8.847   7.332  70.154  1.00  0.00    -0.143 OA 
HETATM    8  O   UNL     1     -10.279   7.049  68.160  1.00  0.00    -0.166 OA 
HETATM    9  O   UNL     1     -11.008   9.604  70.379  1.00  0.00    -0.253 OA 
HETATM   10  S   UNL     1      -9.079   7.627  68.749  1.00  0.00    -0.138 S  
ENDROOT
BRANCH   3  11
HETATM   11  N   UNL     1     -10.117  12.502  68.928  1.00  0.00    -0.428 N  
HETATM   12  O   UNL     1     -10.547  13.680  66.989  1.00  0.00    -0.271 OA 
HETATM   13  C   UNL     1     -10.355  13.652  68.197  1.00  0.00    -0.245 C  
HETATM   14  H   UNL     1      -9.818  12.601  69.898  1.00  0.00     0.000 HD 
BRANCH  13  15
HETATM   15  C   UNL     1     -10.339  14.979  68.950  1.00  0.00    -0.244 C  
BRANCH  15  16
HETATM   16  C   UNL     1      -9.094  15.760  69.010  1.00  0.00    -0.245 A  
HETATM   17  C   UNL     1      -6.927  16.076  69.311  1.00  0.00    -0.205 A  
HETATM   18  N   UNL     1      -5.621  15.669  69.622  1.00  0.00    -0.112 NA 
HETATM   19  H2  UNL     1      -5.267  16.323  70.320  1.00  0.00     0.000 HD 
HETATM   20  C   UNL     1      -8.985  17.099  68.655  1.00  0.00    -0.267 A  
HETATM   21  H1  UNL     1      -5.363  14.734  69.936  1.00  0.00     0.000 HD 
HETATM   22  S   UNL     1      -7.354  17.626  68.789  1.00  0.00    -0.245 SA 
HETATM   23  N   UNL     1      -7.881  15.195  69.421  1.00  0.00    -0.209 NA 
ENDBRANCH  15  16
BRANCH  15  24
HETATM   24  N   UNL     1     -11.368  15.504  69.556  1.00  0.00    -0.288 NA 
HETATM   25  H   UNL     1     -11.459  16.500  69.758  1.00  0.00     0.000 HD 
BRANCH  24  26
HETATM   26  O   UNL     1     -12.331  14.551  69.897  1.00  0.00    -0.320 OA 
HETATM   27  O   UNL     1     -12.687  12.237  70.902  1.00  0.00    -0.289 OA 
HETATM   28  O   UNL     1     -13.425  12.942  72.903  1.00  0.00    -0.409 OA 
HETATM   29  C   UNL     1     -11.624  15.209  72.190  1.00  0.00    -0.490 C  
HETATM   30  C   UNL     1     -14.018  15.441  71.371  1.00  0.00    -0.565 C  
HETATM   31  C   UNL     1     -12.725  14.638  71.288  1.00  0.00    -0.332 C  
HETATM   32  C   UNL     1     -12.956  13.167  71.657  1.00  0.00    -0.335 C  
ENDBRANCH  24  26
ENDBRANCH  15  24
ENDBRANCH  13  15
ENDBRANCH   3  11
TORSDOF 5
ENDMDL
MODEL       86
REMARK 921   NORMALIZED FREE ENERGY PREDICTED BY IDOCK:   -5.81 KCAL/MOL
REMARK 922        TOTAL FREE ENERGY PREDICTED BY IDOCK:   -8.65 KCAL/MOL
REMARK 923 INTER-LIGAND FREE ENERGY PREDICTED BY IDOCK:   -7.79 KCAL/MOL
REMARK 924 INTRA-LIGAND FREE ENERGY PREDICTED BY IDOCK:   -0.86 KCAL/MOL
REMARK 927      BINDING AFFINITY PREDICTED BY RF-SCORE:    0.00 PKD
ROOT
HETATM    1  C   UNL     1     -10.158  10.742  64.652  1.00  0.00    -0.410 C  
HETATM    2  C   UNL     1     -10.889  11.154  65.910  1.00  0.00    -0.157 C  
HETATM    3  C   UNL     1      -9.974  11.762  67.018  1.00  0.00    -0.204 C  
HETATM    4  O   UNL     1     -12.923  12.124  63.840  1.00  0.00    -0.726 OA 
HETATM    5  C   UNL     1     -11.011  12.961  66.979  1.00  0.00    -0.262 C  
HETATM    6  N   UNL     1     -11.596  12.430  65.845  1.00  0.00    -0.379 N  
HETATM    7  O   UNL     1     -13.612  13.774  65.506  1.00  0.00    -0.511 OA 
HETATM    8  O   UNL     1     -11.588  14.161  64.142  1.00  0.00    -0.332 OA 
HETATM    9  O   UNL     1     -11.260  13.975  67.583  1.00  0.00    -0.277 OA 
HETATM   10  S   UNL     1     -12.517  13.209  64.734  1.00  0.00    -0.376 S  
ENDROOT
BRANCH   3  11
HETATM   11  N   UNL     1      -9.811  11.030  68.313  1.00  0.00    -0.172 N  
HETATM   12  O   UNL     1     -12.025  10.462  68.643  1.00  0.00    -0.249 OA 
HETATM   13  C   UNL     1     -10.846  10.375  68.957  1.00  0.00    -0.234 C  
HETATM   14  H   UNL     1      -8.887  11.013  68.745  1.00  0.00     0.000 HD 
BRANCH  13  15
HETATM   15  C   UNL     1     -10.488   9.514  70.165  1.00  0.00    -0.255 C  
BRANCH  15  16
HETATM   16  C   UNL     1     -11.560   8.845  70.917  1.00  0.00    -0.283 A  
HETATM   17  C   UNL     1     -13.297   8.732  72.280  1.00  0.00    -0.419 A  
HETATM   18  N   UNL     1     -14.259   9.267  73.148  1.00  0.00    -0.975 NA 
HETATM   19  H2  UNL     1     -14.238   8.702  73.997  1.00  0.00     0.000 HD 
HETATM   20  C   UNL     1     -11.874   7.495  70.811  1.00  0.00    -0.228 A  
HETATM   21  H1  UNL     1     -14.297  10.242  73.444  1.00  0.00     0.000 HD 
HETATM   22  S   UNL     1     -13.235   7.116  71.789  1.00  0.00    -0.221 SA 
HETATM   23  N   UNL     1     -12.388   9.538  71.808  1.00  0.00    -0.382 NA 
ENDBRANCH  15  16
BRANCH  15  24
HETATM   24  N   UNL     1      -9.276   9.304  70.597  1.00  0.00    -0.253 NA 
HETATM   25  H   UNL     1      -8.910   9.689  71.469  1.00  0.00     0.000 HD 
BRANCH  24  26
HETATM   26  O   UNL     1      -8.533   8.494  69.734  1.00  0.00    -0.124 OA 
HETATM   27  O   UNL     1      -7.143   8.474  67.599  1.00  0.00    -0.077 OA 
HETATM   28  O   UNL     1      -5.138   8.349  68.605  1.00  0.00    -0.028 OA 
HETATM   29  C   UNL     1      -6.668   9.837  70.688  1.00  0.00    -0.111 C  
HETATM   30  C   UNL     1      -6.776   7.306  70.879  1.00  0.00    -0.048 C  
HETATM   31  C   UNL     1      -7.115   8.525  70.030  1.00  0.00    -0.046 C  
HETATM   32  C   UNL     1      -6.485   8.429  68.635  1.00  0.00    -0.054 C  
ENDBRANCH  24  26
ENDBRANCH  15  24
ENDBRANCH  13  15
ENDBRANCH   3  11
TORSDOF 5
ENDMDL
MODEL       87
REMARK 921   NORMALIZED FREE ENERGY PREDICTED BY IDOCK:   -5.79 KCAL/MOL
REMARK 922        TOTAL FREE ENERGY PREDICTED BY IDOCK:   -8.63 KCAL/MOL
REMARK 923 INTER-LIGAND FREE ENERGY PREDICTED BY IDOCK:   -7.01 KCAL/MOL
REMARK 924 INTRA-LIGAND FREE ENERGY PREDICTED BY IDOCK:   -1.63 KCAL/MOL
REMARK 927      BINDING AFFINITY PREDICTED BY RF-SCORE:    0.00 PKD
ROOT
HETATM    1  C   UNL     1      -8.546  13.606  67.180  1.00  0.00    -0.203 C  
HETATM    2  C   UNL     1      -9.370  12.339  67.144  1.00  0.00    -0.196 C  
HETATM    3  C   UNL     1      -9.815  11.818  68.547  1.00  0.00    -0.189 C  
HETATM    4  O   UNL     1     -10.608  13.777  64.744  1.00  0.00    -0.386 OA 
HETATM    5  C   UNL     1     -11.264  11.830  67.904  1.00  0.00    -0.267 C  
HETATM    6  N   UNL     1     -10.780  12.506  66.800  1.00  0.00    -0.233 N  
HETATM    7  O   UNL     1     -12.637  12.495  65.208  1.00  0.00    -0.645 OA 
HETATM    8  O   UNL     1     -12.117  14.516  66.533  1.00  0.00    -0.396 OA 
HETATM    9  O   UNL     1     -12.387  11.479  68.173  1.00  0.00    -0.473 OA 
HETATM   10  S   UNL     1     -11.629  13.407  65.725  1.00  0.00    -0.347 S  
ENDROOT
BRANCH   3  11
HETATM   11  N   UNL     1      -9.287  10.508  69.040  1.00  0.00    -0.192 N  
HETATM   12  O   UNL     1     -10.802  10.170  70.749  1.00  0.00    -0.307 OA 
HETATM   13  C   UNL     1      -9.888   9.768  70.042  1.00  0.00    -0.251 C  
HETATM   14  H   UNL     1      -8.436  10.140  68.613  1.00  0.00     0.000 HD 
BRANCH  13  15
HETATM   15  C   UNL     1      -9.345   8.366  70.303  1.00  0.00    -0.164 C  
BRANCH  15  16
HETATM   16  C   UNL     1      -9.598   7.724  71.602  1.00  0.00    -0.155 A  
HETATM   17  C   UNL     1     -10.533   6.275  72.984  1.00  0.00    -0.228 A  
HETATM   18  N   UNL     1     -11.396   5.221  73.317  1.00  0.00    -0.471 NA 
HETATM   19  H2  UNL     1     -11.936   5.525  74.127  1.00  0.00     0.000 HD 
HETATM   20  C   UNL     1      -8.909   8.016  72.773  1.00  0.00    -0.214 A  
HETATM   21  H1  UNL     1     -12.054   4.783  72.672  1.00  0.00     0.000 HD 
HETATM   22  S   UNL     1      -9.443   7.001  74.053  1.00  0.00    -0.260 SA 
HETATM   23  N   UNL     1     -10.565   6.725  71.761  1.00  0.00    -0.212 NA 
ENDBRANCH  15  16
BRANCH  15  24
HETATM   24  N   UNL     1      -8.663   7.660  69.444  1.00  0.00    -0.136 NA 
HETATM   25  H   UNL     1      -7.778   7.201  69.662  1.00  0.00     0.000 HD 
BRANCH  24  26
HETATM   26  O   UNL     1      -9.279   7.601  68.191  1.00  0.00    -0.138 OA 
HETATM   27  O   UNL     1     -10.091   8.994  66.217  1.00  0.00    -0.295 OA 
HETATM   28  O   UNL     1      -8.398   8.478  64.833  1.00  0.00    -0.157 OA 
HETATM   29  C   UNL     1      -6.999   8.272  67.458  1.00  0.00    -0.075 C  
HETATM   30  C   UNL     1      -8.122   6.134  66.669  1.00  0.00    -0.109 C  
HETATM   31  C   UNL     1      -8.321   7.581  67.105  1.00  0.00    -0.121 C  
HETATM   32  C   UNL     1      -9.035   8.398  66.021  1.00  0.00    -0.184 C  
ENDBRANCH  24  26
ENDBRANCH  15  24
ENDBRANCH  13  15
ENDBRANCH   3  11
TORSDOF 5
ENDMDL
MODEL       88
REMARK 921   NORMALIZED FREE ENERGY PREDICTED BY IDOCK:   -5.76 KCAL/MOL
REMARK 922        TOTAL FREE ENERGY PREDICTED BY IDOCK:   -8.60 KCAL/MOL
REMARK 923 INTER-LIGAND FREE ENERGY PREDICTED BY IDOCK:   -7.32 KCAL/MOL
REMARK 924 INTRA-LIGAND FREE ENERGY PREDICTED BY IDOCK:   -1.28 KCAL/MOL
REMARK 927      BINDING AFFINITY PREDICTED BY RF-SCORE:    0.00 PKD
ROOT
HETATM    1  C   UNL     1     -11.324  15.438  64.484  1.00  0.00    -0.321 C  
HETATM    2  C   UNL     1     -11.037  15.028  65.911  1.00  0.00    -0.334 C  
HETATM    3  C   UNL     1     -10.198  13.719  66.049  1.00  0.00    -0.308 C  
HETATM    4  O   UNL     1     -10.624  18.047  66.193  1.00  0.00    -0.362 OA 
HETATM    5  C   UNL     1      -9.262  14.617  66.962  1.00  0.00    -0.239 C  
HETATM    6  N   UNL     1      -9.954  15.749  66.574  1.00  0.00    -0.256 N  
HETATM    7  O   UNL     1      -9.106  17.518  68.035  1.00  0.00    -0.255 OA 
HETATM    8  O   UNL     1      -8.331  17.328  65.696  1.00  0.00    -0.475 OA 
HETATM    9  O   UNL     1      -8.307  14.498  67.689  1.00  0.00    -0.155 OA 
HETATM   10  S   UNL     1      -9.443  17.306  66.636  1.00  0.00    -0.276 S  
ENDROOT
BRANCH   3  11
HETATM   11  N   UNL     1     -10.825  12.514  66.676  1.00  0.00    -0.240 N  
HETATM   12  O   UNL     1      -9.166  10.988  66.175  1.00  0.00    -0.177 OA 
HETATM   13  C   UNL     1     -10.205  11.280  66.752  1.00  0.00    -0.226 C  
HETATM   14  H   UNL     1     -11.763  12.607  67.068  1.00  0.00     0.000 HD 
BRANCH  13  15
HETATM   15  C   UNL     1     -10.888  10.200  67.587  1.00  0.00    -0.290 C  
BRANCH  15  16
HETATM   16  C   UNL     1     -10.333   8.838  67.598  1.00  0.00    -0.254 A  
HETATM   17  C   UNL     1      -9.939   6.817  66.793  1.00  0.00    -0.178 A  
HETATM   18  N   UNL     1     -10.045   5.793  65.842  1.00  0.00    -0.395 NA 
HETATM   19  H2  UNL     1     -10.329   4.951  66.344  1.00  0.00     0.000 HD 
HETATM   20  C   UNL     1      -9.480   8.341  68.576  1.00  0.00    -0.146 A  
HETATM   21  H1  UNL     1     -10.615   5.840  64.998  1.00  0.00     0.000 HD 
HETATM   22  S   UNL     1      -8.993   6.739  68.191  1.00  0.00    -0.116 SA 
HETATM   23  N   UNL     1     -10.611   7.914  66.583  1.00  0.00    -0.176 NA 
ENDBRANCH  15  16
BRANCH  15  24
HETATM   24  N   UNL     1     -11.948  10.388  68.323  1.00  0.00    -0.726 NA 
HETATM   25  H   UNL     1     -12.859   9.975  68.121  1.00  0.00     0.000 HD 
BRANCH  24  26
HETATM   26  O   UNL     1     -11.698  11.216  69.419  1.00  0.00    -0.273 OA 
HETATM   27  O   UNL     1     -12.608  13.157  70.797  1.00  0.00    -0.324 OA 
HETATM   28  O   UNL     1     -13.298  11.925  72.544  1.00  0.00    -0.249 OA 
HETATM   29  C   UNL     1     -13.614   9.931  70.349  1.00  0.00     0.430 C  
HETATM   30  C   UNL     1     -11.323   9.966  71.446  1.00  0.00    -0.344 C  
HETATM   31  C   UNL     1     -12.345  10.746  70.627  1.00  0.00    -0.372 C  
HETATM   32  C   UNL     1     -12.738  12.055  71.323  1.00  0.00    -0.279 C  
ENDBRANCH  24  26
ENDBRANCH  15  24
ENDBRANCH  13  15
ENDBRANCH   3  11
TORSDOF 5
ENDMDL
MODEL       89
REMARK 921   NORMALIZED FREE ENERGY PREDICTED BY IDOCK:   -5.75 KCAL/MOL
REMARK 922        TOTAL FREE ENERGY PREDICTED BY IDOCK:   -8.58 KCAL/MOL
REMARK 923 INTER-LIGAND FREE ENERGY PREDICTED BY IDOCK:   -7.32 KCAL/MOL
REMARK 924 INTRA-LIGAND FREE ENERGY PREDICTED BY IDOCK:   -1.26 KCAL/MOL
REMARK 927      BINDING AFFINITY PREDICTED BY RF-SCORE:    0.00 PKD
ROOT
HETATM    1  C   UNL     1      -6.980   7.477  69.296  1.00  0.00    -0.068 C  
HETATM    2  C   UNL     1      -8.477   7.278  69.209  1.00  0.00    -0.133 C  
HETATM    3  C   UNL     1      -9.156   8.008  68.007  1.00  0.00    -0.129 C  
HETATM    4  O   UNL     1      -7.666   4.434  69.991  1.00  0.00    -0.052 OA 
HETATM    5  C   UNL     1      -9.750   6.572  67.691  1.00  0.00    -0.123 C  
HETATM    6  N   UNL     1      -8.918   6.008  68.639  1.00  0.00    -0.118 N  
HETATM    7  O   UNL     1      -9.693   3.697  68.841  1.00  0.00    -0.140 OA 
HETATM    8  O   UNL     1      -7.660   4.242  67.545  1.00  0.00    -0.072 OA 
HETATM    9  O   UNL     1     -10.547   6.056  66.948  1.00  0.00    -0.251 OA 
HETATM   10  S   UNL     1      -8.447   4.441  68.754  1.00  0.00    -0.084 S  
ENDROOT
BRANCH   3  11
HETATM   11  N   UNL     1     -10.126   9.114  68.279  1.00  0.00    -0.183 N  
HETATM   12  O   UNL     1      -8.620  10.678  69.066  1.00  0.00    -0.148 OA 
HETATM   13  C   UNL     1      -9.749  10.375  68.703  1.00  0.00    -0.175 C  
HETATM   14  H   UNL     1     -11.120   8.927  68.145  1.00  0.00     0.000 HD 
BRANCH  13  15
HETATM   15  C   UNL     1     -10.830  11.451  68.754  1.00  0.00    -0.208 C  
BRANCH  15  16
HETATM   16  C   UNL     1     -11.741  11.505  69.907  1.00  0.00    -0.343 A  
HETATM   17  C   UNL     1     -12.818  10.702  71.662  1.00  0.00    -0.465 A  
HETATM   18  N   UNL     1     -13.190   9.695  72.566  1.00  0.00    -0.562 NA 
HETATM   19  H2  UNL     1     -14.209   9.711  72.622  1.00  0.00     0.000 HD 
HETATM   20  C   UNL     1     -12.352  12.662  70.377  1.00  0.00    -0.237 A  
HETATM   21  H1  UNL     1     -12.914   8.717  72.492  1.00  0.00     0.000 HD 
HETATM   22  S   UNL     1     -13.276  12.324  71.786  1.00  0.00    -0.190 SA 
HETATM   23  N   UNL     1     -12.057  10.367  70.659  1.00  0.00    -0.319 NA 
ENDBRANCH  15  16
BRANCH  15  24
HETATM   24  N   UNL     1     -11.016  12.364  67.841  1.00  0.00    -0.217 NA 
HETATM   25  H   UNL     1     -10.725  13.337  67.944  1.00  0.00     0.000 HD 
BRANCH  24  26
HETATM   26  O   UNL     1     -11.657  11.862  66.706  1.00  0.00    -0.461 OA 
HETATM   27  O   UNL     1     -13.255  12.439  64.806  1.00  0.00    -0.784 OA 
HETATM   28  O   UNL     1     -11.689  12.619  63.206  1.00  0.00    -0.495 OA 
HETATM   29  C   UNL     1     -10.090  13.436  65.586  1.00  0.00    -0.285 C  
HETATM   30  C   UNL     1     -10.105  10.940  65.109  1.00  0.00    -0.352 C  
HETATM   31  C   UNL     1     -10.937  12.161  65.486  1.00  0.00    -0.301 C  
HETATM   32  C   UNL     1     -12.072  12.397  64.481  1.00  0.00    -0.417 C  
ENDBRANCH  24  26
ENDBRANCH  15  24
ENDBRANCH  13  15
ENDBRANCH   3  11
TORSDOF 5
ENDMDL
MODEL       90
REMARK 921   NORMALIZED FREE ENERGY PREDICTED BY IDOCK:   -5.72 KCAL/MOL
REMARK 922        TOTAL FREE ENERGY PREDICTED BY IDOCK:   -8.53 KCAL/MOL
REMARK 923 INTER-LIGAND FREE ENERGY PREDICTED BY IDOCK:   -7.96 KCAL/MOL
REMARK 924 INTRA-LIGAND FREE ENERGY PREDICTED BY IDOCK:   -0.58 KCAL/MOL
REMARK 927      BINDING AFFINITY PREDICTED BY RF-SCORE:    0.00 PKD
ROOT
HETATM    1  C   UNL     1     -12.466   7.040  70.892  1.00  0.00    -0.319 C  
HETATM    2  C   UNL     1     -11.308   7.878  70.401  1.00  0.00    -0.194 C  
HETATM    3  C   UNL     1     -11.068   9.188  71.216  1.00  0.00    -0.335 C  
HETATM    4  O   UNL     1     -10.044   5.107  70.110  1.00  0.00    -0.228 OA 
HETATM    5  C   UNL     1      -9.585   8.641  71.335  1.00  0.00    -0.243 C  
HETATM    6  N   UNL     1      -9.979   7.427  70.807  1.00  0.00    -0.182 N  
HETATM    7  O   UNL     1      -7.889   6.218  70.415  1.00  0.00    -0.102 OA 
HETATM    8  O   UNL     1      -9.304   5.698  72.373  1.00  0.00    -0.144 OA 
HETATM    9  O   UNL     1      -8.505   9.005  71.732  1.00  0.00    -0.351 OA 
HETATM   10  S   UNL     1      -9.221   5.980  70.947  1.00  0.00    -0.154 S  
ENDROOT
BRANCH   3  11
HETATM   11  N   UNL     1     -11.267  10.511  70.545  1.00  0.00    -0.402 N  
HETATM   12  O   UNL     1      -9.657  10.286  68.905  1.00  0.00    -0.171 OA 
HETATM   13  C   UNL     1     -10.597  10.895  69.398  1.00  0.00    -0.197 C  
HETATM   14  H   UNL     1     -11.933  11.165  70.957  1.00  0.00     0.000 HD 
BRANCH  13  15
HETATM   15  C   UNL     1     -11.043  12.189  68.723  1.00  0.00    -0.250 C  
BRANCH  15  16
HETATM   16  C   UNL     1     -11.204  12.224  67.262  1.00  0.00    -0.300 A  
HETATM   17  C   UNL     1     -10.965  11.487  65.192  1.00  0.00    -0.234 A  
HETATM   18  N   UNL     1     -10.506  10.594  64.212  1.00  0.00    -0.397 NA 
HETATM   19  H2  UNL     1     -10.045  11.153  63.495  1.00  0.00     0.000 HD 
HETATM   20  C   UNL     1     -11.966  13.160  66.574  1.00  0.00    -0.398 A  
HETATM   21  H1  UNL     1      -9.903   9.792  64.394  1.00  0.00     0.000 HD 
HETATM   22  S   UNL     1     -11.965  12.816  64.890  1.00  0.00    -0.428 SA 
HETATM   23  N   UNL     1     -10.603  11.275  66.426  1.00  0.00    -0.258 NA 
ENDBRANCH  15  16
BRANCH  15  24
HETATM   24  N   UNL     1     -11.314  13.300  69.350  1.00  0.00    -0.394 NA 
HETATM   25  H   UNL     1     -10.742  14.143  69.283  1.00  0.00     0.000 HD 
BRANCH  24  26
HETATM   26  O   UNL     1     -12.473  13.209  70.124  1.00  0.00    -0.233 OA 
HETATM   27  O   UNL     1     -13.419  12.399  72.348  1.00  0.00    -0.503 OA 
HETATM   28  O   UNL     1     -13.554  14.422  73.316  1.00  0.00    -0.514 OA 
HETATM   29  C   UNL     1     -11.236  14.875  71.496  1.00  0.00    -0.121 C  
HETATM   30  C   UNL     1     -13.512  15.356  70.475  1.00  0.00    -0.079 C  
HETATM   31  C   UNL     1     -12.592  14.298  71.073  1.00  0.00    -0.358 C  
HETATM   32  C   UNL     1     -13.239  13.612  72.283  1.00  0.00    -0.469 C  
ENDBRANCH  24  26
ENDBRANCH  15  24
ENDBRANCH  13  15
ENDBRANCH   3  11
TORSDOF 5
ENDMDL
MODEL       91
REMARK 921   NORMALIZED FREE ENERGY PREDICTED BY IDOCK:   -5.70 KCAL/MOL
REMARK 922        TOTAL FREE ENERGY PREDICTED BY IDOCK:   -8.51 KCAL/MOL
REMARK 923 INTER-LIGAND FREE ENERGY PREDICTED BY IDOCK:   -7.78 KCAL/MOL
REMARK 924 INTRA-LIGAND FREE ENERGY PREDICTED BY IDOCK:   -0.73 KCAL/MOL
REMARK 927      BINDING AFFINITY PREDICTED BY RF-SCORE:    0.00 PKD
ROOT
HETATM    1  C   UNL     1     -10.344  13.780  65.121  1.00  0.00    -0.391 C  
HETATM    2  C   UNL     1     -10.280  14.083  66.601  1.00  0.00    -0.275 C  
HETATM    3  C   UNL     1      -9.206  13.261  67.382  1.00  0.00    -0.216 C  
HETATM    4  O   UNL     1     -10.658  16.931  65.551  1.00  0.00    -0.523 OA 
HETATM    5  C   UNL     1      -8.725  14.687  67.882  1.00  0.00    -0.169 C  
HETATM    6  N   UNL     1      -9.564  15.301  66.971  1.00  0.00    -0.219 N  
HETATM    7  O   UNL     1      -9.488  17.672  67.565  1.00  0.00    -0.252 OA 
HETATM    8  O   UNL     1      -8.209  16.809  65.634  1.00  0.00    -0.279 OA 
HETATM    9  O   UNL     1      -7.946  15.165  68.669  1.00  0.00    -0.134 OA 
HETATM   10  S   UNL     1      -9.459  16.827  66.382  1.00  0.00    -0.290 S  
ENDROOT
BRANCH   3  11
HETATM   11  N   UNL     1      -9.651  12.278  68.418  1.00  0.00    -0.286 N  
HETATM   12  O   UNL     1     -11.082  11.040  67.095  1.00  0.00    -0.285 OA 
HETATM   13  C   UNL     1     -10.483  11.207  68.149  1.00  0.00    -0.189 C  
HETATM   14  H   UNL     1      -9.322  12.406  69.376  1.00  0.00     0.000 HD 
BRANCH  13  15
HETATM   15  C   UNL     1     -10.694  10.185  69.263  1.00  0.00    -0.231 C  
BRANCH  15  16
HETATM   16  C   UNL     1     -11.728  10.429  70.280  1.00  0.00    -0.321 A  
HETATM   17  C   UNL     1     -13.059   9.904  71.966  1.00  0.00    -0.448 A  
HETATM   18  N   UNL     1     -13.605   9.037  72.922  1.00  0.00    -0.903 NA 
HETATM   19  H2  UNL     1     -14.619   9.117  72.850  1.00  0.00     0.000 HD 
HETATM   20  C   UNL     1     -12.305  11.666  70.538  1.00  0.00    -0.321 A  
HETATM   21  H1  UNL     1     -13.393   8.042  72.993  1.00  0.00     0.000 HD 
HETATM   22  S   UNL     1     -13.411  11.553  71.849  1.00  0.00    -0.119 SA 
HETATM   23  N   UNL     1     -12.211   9.409  71.109  1.00  0.00    -0.316 NA 
ENDBRANCH  15  16
BRANCH  15  24
HETATM   24  N   UNL     1     -10.025   9.073  69.389  1.00  0.00    -0.186 NA 
HETATM   25  H   UNL     1      -9.253   8.947  70.045  1.00  0.00     0.000 HD 
BRANCH  24  26
HETATM   26  O   UNL     1     -10.481   8.073  68.527  1.00  0.00    -0.206 OA 
HETATM   27  O   UNL     1      -9.857   6.620  66.529  1.00  0.00    -0.166 OA 
HETATM   28  O   UNL     1      -9.498   4.732  67.692  1.00  0.00    -0.132 OA 
HETATM   29  C   UNL     1      -8.764   6.756  69.755  1.00  0.00    -0.141 C  
HETATM   30  C   UNL     1     -11.221   6.109  69.713  1.00  0.00    -0.494 C  
HETATM   31  C   UNL     1     -10.068   6.750  68.948  1.00  0.00    -0.164 C  
HETATM   32  C   UNL     1      -9.821   6.040  67.611  1.00  0.00    -0.123 C  
ENDBRANCH  24  26
ENDBRANCH  15  24
ENDBRANCH  13  15
ENDBRANCH   3  11
TORSDOF 5
ENDMDL
MODEL       92
REMARK 921   NORMALIZED FREE ENERGY PREDICTED BY IDOCK:   -5.70 KCAL/MOL
REMARK 922        TOTAL FREE ENERGY PREDICTED BY IDOCK:   -8.51 KCAL/MOL
REMARK 923 INTER-LIGAND FREE ENERGY PREDICTED BY IDOCK:   -7.19 KCAL/MOL
REMARK 924 INTRA-LIGAND FREE ENERGY PREDICTED BY IDOCK:   -1.32 KCAL/MOL
REMARK 927      BINDING AFFINITY PREDICTED BY RF-SCORE:    0.00 PKD
ROOT
HETATM    1  C   UNL     1      -8.657  13.828  67.072  1.00  0.00    -0.182 C  
HETATM    2  C   UNL     1      -9.367  12.497  66.966  1.00  0.00    -0.210 C  
HETATM    3  C   UNL     1      -9.749  11.859  68.339  1.00  0.00    -0.201 C  
HETATM    4  O   UNL     1     -10.752  13.958  64.662  1.00  0.00    -0.397 OA 
HETATM    5  C   UNL     1     -11.201  11.780  67.706  1.00  0.00    -0.266 C  
HETATM    6  N   UNL     1     -10.789  12.559  66.641  1.00  0.00    -0.240 N  
HETATM    7  O   UNL     1     -12.655  12.477  65.061  1.00  0.00    -0.592 OA 
HETATM    8  O   UNL     1     -12.300  14.455  66.499  1.00  0.00    -0.411 OA 
HETATM    9  O   UNL     1     -12.285  11.316  67.959  1.00  0.00    -0.621 OA 
HETATM   10  S   UNL     1     -11.725  13.442  65.625  1.00  0.00    -0.365 S  
ENDROOT
BRANCH   3  11
HETATM   11  N   UNL     1      -9.103  10.573  68.750  1.00  0.00    -0.158 N  
HETATM   12  O   UNL     1     -10.474  10.080  70.541  1.00  0.00    -0.286 OA 
HETATM   13  C   UNL     1      -9.585   9.764  69.763  1.00  0.00    -0.230 C  
HETATM   14  H   UNL     1      -8.260  10.279  68.257  1.00  0.00     0.000 HD 
BRANCH  13  15
HETATM   15  C   UNL     1      -8.932   8.396  69.939  1.00  0.00    -0.142 C  
BRANCH  15  16
HETATM   16  C   UNL     1      -8.339   7.723  68.773  1.00  0.00    -0.128 A  
HETATM   17  C   UNL     1      -8.262   7.013  66.681  1.00  0.00    -0.112 A  
HETATM   18  N   UNL     1      -8.772   6.834  65.387  1.00  0.00    -0.344 NA 
HETATM   19  H2  UNL     1      -8.663   5.845  65.161  1.00  0.00     0.000 HD 
HETATM   20  C   UNL     1      -7.052   7.201  68.734  1.00  0.00    -0.088 A  
HETATM   21  H1  UNL     1      -9.710   7.102  65.090  1.00  0.00     0.000 HD 
HETATM   22  S   UNL     1      -6.708   6.568  67.174  1.00  0.00    -0.062 SA 
HETATM   23  N   UNL     1      -9.037   7.571  67.569  1.00  0.00    -0.125 NA 
ENDBRANCH  15  16
BRANCH  15  24
HETATM   24  N   UNL     1      -8.842   7.754  71.071  1.00  0.00    -0.139 NA 
HETATM   25  H   UNL     1      -8.301   8.088  71.870  1.00  0.00     0.000 HD 
BRANCH  24  26
HETATM   26  O   UNL     1      -9.567   6.560  71.069  1.00  0.00    -0.174 OA 
HETATM   27  O   UNL     1      -9.834   4.299  72.214  1.00  0.00    -0.152 OA 
HETATM   28  O   UNL     1     -11.689   4.819  73.369  1.00  0.00    -0.284 OA 
HETATM   29  C   UNL     1     -10.411   7.509  73.208  1.00  0.00    -0.426 C  
HETATM   30  C   UNL     1     -11.941   6.930  71.264  1.00  0.00    -0.402 C  
HETATM   31  C   UNL     1     -10.663   6.577  72.016  1.00  0.00    -0.223 C  
HETATM   32  C   UNL     1     -10.689   5.127  72.516  1.00  0.00    -0.229 C  
ENDBRANCH  24  26
ENDBRANCH  15  24
ENDBRANCH  13  15
ENDBRANCH   3  11
TORSDOF 5
ENDMDL
MODEL       93
REMARK 921   NORMALIZED FREE ENERGY PREDICTED BY IDOCK:   -5.69 KCAL/MOL
REMARK 922        TOTAL FREE ENERGY PREDICTED BY IDOCK:   -8.50 KCAL/MOL
REMARK 923 INTER-LIGAND FREE ENERGY PREDICTED BY IDOCK:   -7.60 KCAL/MOL
REMARK 924 INTRA-LIGAND FREE ENERGY PREDICTED BY IDOCK:   -0.90 KCAL/MOL
REMARK 927      BINDING AFFINITY PREDICTED BY RF-SCORE:    0.00 PKD
ROOT
HETATM    1  C   UNL     1     -12.099  14.962  63.970  1.00  0.00    -0.153 C  
HETATM    2  C   UNL     1     -11.401  14.213  65.083  1.00  0.00    -0.336 C  
HETATM    3  C   UNL     1     -12.268  14.011  66.366  1.00  0.00    -0.460 C  
HETATM    4  O   UNL     1     -10.418  12.555  62.707  1.00  0.00     0.375 OA 
HETATM    5  C   UNL     1     -11.885  12.484  66.178  1.00  0.00    -0.397 C  
HETATM    6  N   UNL     1     -11.348  12.761  64.935  1.00  0.00    -0.297 N  
HETATM    7  O   UNL     1     -10.223  10.691  64.276  1.00  0.00    -0.351 OA 
HETATM    8  O   UNL     1     -12.427  11.291  63.331  1.00  0.00     0.022 OA 
HETATM    9  O   UNL     1     -11.996  11.435  66.763  1.00  0.00    -0.383 OA 
HETATM   10  S   UNL     1     -11.083  11.714  63.702  1.00  0.00    -0.391 S  
ENDROOT
BRANCH   3  11
HETATM   11  N   UNL     1     -11.851  14.678  67.639  1.00  0.00    -0.472 N  
HETATM   12  O   UNL     1      -9.635  14.029  67.633  1.00  0.00    -0.212 OA 
HETATM   13  C   UNL     1     -10.549  14.692  68.105  1.00  0.00    -0.237 C  
HETATM   14  H   UNL     1     -12.567  15.147  68.194  1.00  0.00     0.000 HD 
BRANCH  13  15
HETATM   15  C   UNL     1     -10.245  15.572  69.314  1.00  0.00    -0.252 C  
BRANCH  15  16
HETATM   16  C   UNL     1      -9.416  16.774  69.142  1.00  0.00    -0.162 A  
HETATM   17  C   UNL     1      -7.532  17.903  68.897  1.00  0.00    -0.230 A  
HETATM   18  N   UNL     1      -6.139  18.032  68.798  1.00  0.00    -0.195 NA 
HETATM   19  H2  UNL     1      -5.862  18.761  69.455  1.00  0.00     0.000 HD 
HETATM   20  C   UNL     1      -9.916  18.056  68.944  1.00  0.00    -0.341 A  
HETATM   21  H1  UNL     1      -5.475  17.266  68.911  1.00  0.00     0.000 HD 
HETATM   22  S   UNL     1      -8.631  19.172  68.709  1.00  0.00    -0.291 SA 
HETATM   23  N   UNL     1      -8.017  16.719  69.142  1.00  0.00    -0.185 NA 
ENDBRANCH  15  16
BRANCH  15  24
HETATM   24  N   UNL     1     -10.679  15.350  70.524  1.00  0.00    -0.441 NA 
HETATM   25  H   UNL     1     -10.300  15.806  71.355  1.00  0.00     0.000 HD 
BRANCH  24  26
HETATM   26  O   UNL     1     -11.719  14.418  70.557  1.00  0.00    -0.286 OA 
HETATM   27  O   UNL     1     -12.685  12.438  71.839  1.00  0.00    -0.217 OA 
HETATM   28  O   UNL     1     -14.359  13.568  72.822  1.00  0.00    -0.640 OA 
HETATM   29  C   UNL     1     -12.348  15.754  72.559  1.00  0.00    -0.550 C  
HETATM   30  C   UNL     1     -13.889  15.467  70.559  1.00  0.00     0.261 C  
HETATM   31  C   UNL     1     -12.805  14.831  71.422  1.00  0.00    -0.336 C  
HETATM   32  C   UNL     1     -13.275  13.500  72.021  1.00  0.00    -0.439 C  
ENDBRANCH  24  26
ENDBRANCH  15  24
ENDBRANCH  13  15
ENDBRANCH   3  11
TORSDOF 5
ENDMDL
MODEL       94
REMARK 921   NORMALIZED FREE ENERGY PREDICTED BY IDOCK:   -5.64 KCAL/MOL
REMARK 922        TOTAL FREE ENERGY PREDICTED BY IDOCK:   -8.44 KCAL/MOL
REMARK 923 INTER-LIGAND FREE ENERGY PREDICTED BY IDOCK:   -7.74 KCAL/MOL
REMARK 924 INTRA-LIGAND FREE ENERGY PREDICTED BY IDOCK:   -0.70 KCAL/MOL
REMARK 927      BINDING AFFINITY PREDICTED BY RF-SCORE:    0.00 PKD
ROOT
HETATM    1  C   UNL     1     -12.238  12.443  65.017  1.00  0.00    -0.465 C  
HETATM    2  C   UNL     1     -11.427  12.074  66.238  1.00  0.00    -0.345 C  
HETATM    3  C   UNL     1     -10.304  11.022  65.974  1.00  0.00    -0.254 C  
HETATM    4  O   UNL     1     -11.665  15.086  66.719  1.00  0.00    -0.288 OA 
HETATM    5  C   UNL     1      -9.366  12.100  66.660  1.00  0.00    -0.226 C  
HETATM    6  N   UNL     1     -10.390  13.028  66.625  1.00  0.00    -0.256 N  
HETATM    7  O   UNL     1      -9.564  14.907  67.954  1.00  0.00    -0.202 OA 
HETATM    8  O   UNL     1      -9.547  14.999  65.485  1.00  0.00    -0.313 OA 
HETATM    9  O   UNL     1      -8.230  12.207  67.052  1.00  0.00    -0.173 OA 
HETATM   10  S   UNL     1     -10.266  14.661  66.705  1.00  0.00    -0.281 S  
ENDROOT
BRANCH   3  11
HETATM   11  N   UNL     1     -10.400   9.676  66.620  1.00  0.00    -0.230 N  
HETATM   12  O   UNL     1     -10.331  10.368  68.822  1.00  0.00    -0.176 OA 
HETATM   13  C   UNL     1     -10.491   9.488  67.987  1.00  0.00    -0.230 C  
HETATM   14  H   UNL     1     -10.398   8.851  66.019  1.00  0.00     0.000 HD 
BRANCH  13  15
HETATM   15  C   UNL     1     -10.775   8.073  68.485  1.00  0.00    -0.018 C  
BRANCH  15  16
HETATM   16  C   UNL     1     -10.384   6.924  67.654  1.00  0.00    -0.205 A  
HETATM   17  C   UNL     1     -10.659   5.374  66.102  1.00  0.00    -0.138 A  
HETATM   18  N   UNL     1     -11.381   4.687  65.116  1.00  0.00    -1.090 NA 
HETATM   19  H2  UNL     1     -11.303   3.693  65.332  1.00  0.00     0.000 HD 
HETATM   20  C   UNL     1      -9.118   6.351  67.646  1.00  0.00    -0.114 A  
HETATM   21  H1  UNL     1     -12.359   4.862  64.883  1.00  0.00     0.000 HD 
HETATM   22  S   UNL     1      -9.039   5.084  66.488  1.00  0.00    -0.130 SA 
HETATM   23  N   UNL     1     -11.276   6.312  66.765  1.00  0.00    -0.205 NA 
ENDBRANCH  15  16
BRANCH  15  24
HETATM   24  N   UNL     1     -11.342   7.784  69.623  1.00  0.00    -0.446 NA 
HETATM   25  H   UNL     1     -12.351   7.695  69.747  1.00  0.00     0.000 HD 
BRANCH  24  26
HETATM   26  O   UNL     1     -10.415   7.612  70.654  1.00  0.00    -0.212 OA 
HETATM   27  O   UNL     1      -9.745   8.388  72.987  1.00  0.00    -0.241 OA 
HETATM   28  O   UNL     1     -10.523   6.588  74.084  1.00  0.00    -0.337 OA 
HETATM   29  C   UNL     1     -12.412   6.641  71.777  1.00  0.00    -0.360 C  
HETATM   30  C   UNL     1     -10.277   5.320  71.387  1.00  0.00    -0.279 C  
HETATM   31  C   UNL     1     -10.882   6.690  71.669  1.00  0.00    -0.234 C  
HETATM   32  C   UNL     1     -10.312   7.299  72.956  1.00  0.00    -0.288 C  
ENDBRANCH  24  26
ENDBRANCH  15  24
ENDBRANCH  13  15
ENDBRANCH   3  11
TORSDOF 5
ENDMDL
MODEL       95
REMARK 921   NORMALIZED FREE ENERGY PREDICTED BY IDOCK:   -5.63 KCAL/MOL
REMARK 922        TOTAL FREE ENERGY PREDICTED BY IDOCK:   -8.43 KCAL/MOL
REMARK 923 INTER-LIGAND FREE ENERGY PREDICTED BY IDOCK:   -7.60 KCAL/MOL
REMARK 924 INTRA-LIGAND FREE ENERGY PREDICTED BY IDOCK:   -0.82 KCAL/MOL
REMARK 927      BINDING AFFINITY PREDICTED BY RF-SCORE:    0.00 PKD
ROOT
HETATM    1  C   UNL     1      -8.205   6.919  69.924  1.00  0.00    -0.127 C  
HETATM    2  C   UNL     1      -9.227   7.853  70.532  1.00  0.00    -0.158 C  
HETATM    3  C   UNL     1     -10.520   8.039  69.677  1.00  0.00    -0.224 C  
HETATM    4  O   UNL     1      -8.361   6.381  73.071  1.00  0.00    -0.116 OA 
HETATM    5  C   UNL     1     -11.262   7.640  71.020  1.00  0.00    -0.267 C  
HETATM    6  N   UNL     1     -10.055   7.285  71.593  1.00  0.00    -0.185 N  
HETATM    7  O   UNL     1     -10.585   6.887  73.947  1.00  0.00    -0.369 OA 
HETATM    8  O   UNL     1     -10.269   4.999  72.384  1.00  0.00    -0.187 OA 
HETATM    9  O   UNL     1     -12.383   7.581  71.464  1.00  0.00    -0.311 OA 
HETATM   10  S   UNL     1      -9.807   6.291  72.873  1.00  0.00    -0.169 S  
ENDROOT
BRANCH   3  11
HETATM   11  N   UNL     1     -10.821   9.383  69.093  1.00  0.00    -0.356 N  
HETATM   12  O   UNL     1     -10.189   8.940  66.917  1.00  0.00    -0.243 OA 
HETATM   13  C   UNL     1     -10.706   9.676  67.747  1.00  0.00    -0.257 C  
HETATM   14  H   UNL     1     -11.128  10.125  69.724  1.00  0.00     0.000 HD 
BRANCH  13  15
HETATM   15  C   UNL     1     -11.229  11.030  67.275  1.00  0.00    -0.258 C  
BRANCH  15  16
HETATM   16  C   UNL     1     -11.122  11.389  65.852  1.00  0.00    -0.162 A  
HETATM   17  C   UNL     1     -11.851  12.132  63.902  1.00  0.00    -0.466 A  
HETATM   18  N   UNL     1     -12.822  12.632  63.022  1.00  0.00    -0.522 NA 
HETATM   19  H2  UNL     1     -12.783  12.057  62.181  1.00  0.00     0.000 HD 
HETATM   20  C   UNL     1      -9.939  11.379  65.123  1.00  0.00    -0.264 A  
HETATM   21  H1  UNL     1     -13.808  12.751  63.252  1.00  0.00     0.000 HD 
HETATM   22  S   UNL     1     -10.216  11.936  63.521  1.00  0.00    -0.454 SA 
HETATM   23  N   UNL     1     -12.231  11.804  65.105  1.00  0.00    -0.164 NA 
ENDBRANCH  15  16
BRANCH  15  24
HETATM   24  N   UNL     1     -11.791  11.920  68.044  1.00  0.00    -0.526 NA 
HETATM   25  H   UNL     1     -12.796  12.098  68.065  1.00  0.00     0.000 HD 
BRANCH  24  26
HETATM   26  O   UNL     1     -10.866  12.604  68.836  1.00  0.00    -0.237 OA 
HETATM   27  O   UNL     1      -8.705  13.954  68.794  1.00  0.00    -0.115 OA 
HETATM   28  O   UNL     1      -9.659  15.967  69.084  1.00  0.00    -0.231 OA 
HETATM   29  C   UNL     1     -11.860  14.553  67.652  1.00  0.00    -0.395 C  
HETATM   30  C   UNL     1     -11.899  14.316  70.181  1.00  0.00    -0.379 C  
HETATM   31  C   UNL     1     -11.134  14.027  68.896  1.00  0.00    -0.268 C  
HETATM   32  C   UNL     1      -9.722  14.627  68.937  1.00  0.00    -0.196 C  
ENDBRANCH  24  26
ENDBRANCH  15  24
ENDBRANCH  13  15
ENDBRANCH   3  11
TORSDOF 5
ENDMDL
MODEL       96
REMARK 921   NORMALIZED FREE ENERGY PREDICTED BY IDOCK:   -5.62 KCAL/MOL
REMARK 922        TOTAL FREE ENERGY PREDICTED BY IDOCK:   -8.41 KCAL/MOL
REMARK 923 INTER-LIGAND FREE ENERGY PREDICTED BY IDOCK:   -7.56 KCAL/MOL
REMARK 924 INTRA-LIGAND FREE ENERGY PREDICTED BY IDOCK:   -0.85 KCAL/MOL
REMARK 927      BINDING AFFINITY PREDICTED BY RF-SCORE:    0.00 PKD
ROOT
HETATM    1  C   UNL     1     -11.960  11.340  70.414  1.00  0.00    -0.471 C  
HETATM    2  C   UNL     1     -11.510  10.137  69.616  1.00  0.00    -0.198 C  
HETATM    3  C   UNL     1      -9.969  10.062  69.377  1.00  0.00    -0.223 C  
HETATM    4  O   UNL     1     -13.618   8.780  71.369  1.00  0.00    -0.327 OA 
HETATM    5  C   UNL     1     -10.117   8.605  69.984  1.00  0.00    -0.189 C  
HETATM    6  N   UNL     1     -11.419   8.881  70.355  1.00  0.00    -0.210 N  
HETATM    7  O   UNL     1     -12.322   6.728  71.084  1.00  0.00    -0.371 OA 
HETATM    8  O   UNL     1     -11.610   8.426  72.733  1.00  0.00    -0.358 OA 
HETATM    9  O   UNL     1      -9.453   7.612  70.151  1.00  0.00    -0.161 OA 
HETATM   10  S   UNL     1     -12.318   8.122  71.497  1.00  0.00    -0.307 S  
ENDROOT
BRANCH   3  11
HETATM   11  N   UNL     1      -9.440  10.181  67.983  1.00  0.00    -0.144 N  
HETATM   12  O   UNL     1     -10.548   8.377  67.062  1.00  0.00    -0.314 OA 
HETATM   13  C   UNL     1      -9.851   9.375  66.937  1.00  0.00    -0.201 C  
HETATM   14  H   UNL     1      -8.738  10.897  67.793  1.00  0.00     0.000 HD 
BRANCH  13  15
HETATM   15  C   UNL     1      -9.367   9.739  65.536  1.00  0.00    -0.240 C  
BRANCH  15  16
HETATM   16  C   UNL     1      -8.259   8.981  64.936  1.00  0.00    -0.153 A  
HETATM   17  C   UNL     1      -6.437   7.729  64.945  1.00  0.00    -0.044 A  
HETATM   18  N   UNL     1      -5.388   7.027  65.557  1.00  0.00    -0.026 NA 
HETATM   19  H2  UNL     1      -4.525   7.334  65.108  1.00  0.00     0.000 HD 
HETATM   20  C   UNL     1      -8.112   8.744  63.574  1.00  0.00    -0.170 A  
HETATM   21  H1  UNL     1      -5.208   7.010  66.561  1.00  0.00     0.000 HD 
HETATM   22  S   UNL     1      -6.736   7.757  63.282  1.00  0.00    -0.072 SA 
HETATM   23  N   UNL     1      -7.247   8.403  65.712  1.00  0.00    -0.071 NA 
ENDBRANCH  15  16
BRANCH  15  24
HETATM   24  N   UNL     1      -9.873  10.686  64.797  1.00  0.00    -0.283 NA 
HETATM   25  H   UNL     1      -9.400  11.086  63.985  1.00  0.00     0.000 HD 
BRANCH  24  26
HETATM   26  O   UNL     1     -11.134  11.094  65.239  1.00  0.00    -0.147 OA 
HETATM   27  O   UNL     1     -12.363  12.640  66.849  1.00  0.00    -0.430 OA 
HETATM   28  O   UNL     1     -12.980  14.162  65.316  1.00  0.00    -0.725 OA 
HETATM   29  C   UNL     1     -10.446  13.187  64.084  1.00  0.00    -0.348 C  
HETATM   30  C   UNL     1     -12.526  11.881  63.435  1.00  0.00    -0.582 C  
HETATM   31  C   UNL     1     -11.594  12.293  64.568  1.00  0.00    -0.353 C  
HETATM   32  C   UNL     1     -12.355  13.022  65.683  1.00  0.00    -0.446 C  
ENDBRANCH  24  26
ENDBRANCH  15  24
ENDBRANCH  13  15
ENDBRANCH   3  11
TORSDOF 5
ENDMDL
MODEL       97
REMARK 921   NORMALIZED FREE ENERGY PREDICTED BY IDOCK:   -5.62 KCAL/MOL
REMARK 922        TOTAL FREE ENERGY PREDICTED BY IDOCK:   -8.40 KCAL/MOL
REMARK 923 INTER-LIGAND FREE ENERGY PREDICTED BY IDOCK:   -7.25 KCAL/MOL
REMARK 924 INTRA-LIGAND FREE ENERGY PREDICTED BY IDOCK:   -1.16 KCAL/MOL
REMARK 927      BINDING AFFINITY PREDICTED BY RF-SCORE:    0.00 PKD
ROOT
HETATM    1  C   UNL     1     -10.878  16.920  69.384  1.00  0.00    -0.186 C  
HETATM    2  C   UNL     1     -10.083  16.247  68.288  1.00  0.00    -0.243 C  
HETATM    3  C   UNL     1     -10.917  15.286  67.383  1.00  0.00    -0.321 C  
HETATM    4  O   UNL     1      -8.849  19.042  68.122  1.00  0.00    -0.295 OA 
HETATM    5  C   UNL     1     -10.308  16.147  66.199  1.00  0.00    -0.339 C  
HETATM    6  N   UNL     1      -9.811  17.063  67.107  1.00  0.00    -0.262 N  
HETATM    7  O   UNL     1      -8.385  18.538  65.776  1.00  0.00    -0.471 OA 
HETATM    8  O   UNL     1     -10.648  19.251  66.467  1.00  0.00    -0.422 OA 
HETATM    9  O   UNL     1     -10.263  16.142  64.993  1.00  0.00    -0.535 OA 
HETATM   10  S   UNL     1      -9.385  18.621  66.828  1.00  0.00    -0.317 S  
ENDROOT
BRANCH   3  11
HETATM   11  N   UNL     1     -10.612  13.821  67.401  1.00  0.00    -0.259 N  
HETATM   12  O   UNL     1     -12.088  13.164  65.751  1.00  0.00    -0.402 OA 
HETATM   13  C   UNL     1     -11.169  12.913  66.519  1.00  0.00    -0.302 C  
HETATM   14  H   UNL     1      -9.958  13.474  68.102  1.00  0.00     0.000 HD 
BRANCH  13  15
HETATM   15  C   UNL     1     -10.618  11.489  66.536  1.00  0.00    -0.258 C  
BRANCH  15  16
HETATM   16  C   UNL     1     -10.347  10.835  67.825  1.00  0.00    -0.193 A  
HETATM   17  C   UNL     1      -9.114  10.233  69.557  1.00  0.00    -0.167 A  
HETATM   18  N   UNL     1      -7.927  10.163  70.301  1.00  0.00    -0.405 NA 
HETATM   19  H2  UNL     1      -7.789   9.182  70.546  1.00  0.00     0.000 HD 
HETATM   20  C   UNL     1     -11.310  10.217  68.614  1.00  0.00    -0.166 A  
HETATM   21  H1  UNL     1      -7.024  10.519  69.989  1.00  0.00     0.000 HD 
HETATM   22  S   UNL     1     -10.610   9.644  70.075  1.00  0.00    -0.281 SA 
HETATM   23  N   UNL     1      -9.065  10.802  68.386  1.00  0.00    -0.156 NA 
ENDBRANCH  15  16
BRANCH  15  24
HETATM   24  N   UNL     1     -10.370  10.775  65.473  1.00  0.00    -0.260 NA 
HETATM   25  H   UNL     1     -11.049  10.149  65.039  1.00  0.00     0.000 HD 
BRANCH  24  26
HETATM   26  O   UNL     1      -9.070  10.961  64.996  1.00  0.00    -0.197 OA 
HETATM   27  O   UNL     1      -6.605  10.937  65.641  1.00  0.00    -0.074 OA 
HETATM   28  O   UNL     1      -6.115   8.960  64.691  1.00  0.00    -0.064 OA 
HETATM   29  C   UNL     1      -8.980   8.505  65.382  1.00  0.00    -0.150 C  
HETATM   30  C   UNL     1      -8.580   9.553  63.102  1.00  0.00    -0.218 C  
HETATM   31  C   UNL     1      -8.439   9.715  64.611  1.00  0.00    -0.174 C  
HETATM   32  C   UNL     1      -6.977   9.948  65.015  1.00  0.00    -0.130 C  
ENDBRANCH  24  26
ENDBRANCH  15  24
ENDBRANCH  13  15
ENDBRANCH   3  11
TORSDOF 5
ENDMDL
MODEL       98
REMARK 921   NORMALIZED FREE ENERGY PREDICTED BY IDOCK:   -5.60 KCAL/MOL
REMARK 922        TOTAL FREE ENERGY PREDICTED BY IDOCK:   -8.39 KCAL/MOL
REMARK 923 INTER-LIGAND FREE ENERGY PREDICTED BY IDOCK:   -7.22 KCAL/MOL
REMARK 924 INTRA-LIGAND FREE ENERGY PREDICTED BY IDOCK:   -1.17 KCAL/MOL
REMARK 927      BINDING AFFINITY PREDICTED BY RF-SCORE:    0.00 PKD
ROOT
HETATM    1  C   UNL     1     -12.679  11.038  71.237  1.00  0.00    -0.537 C  
HETATM    2  C   UNL     1     -12.104  10.032  70.266  1.00  0.00    -0.150 C  
HETATM    3  C   UNL     1     -10.587  10.232  69.953  1.00  0.00    -0.276 C  
HETATM    4  O   UNL     1     -13.867   8.149  71.911  1.00  0.00    -0.358 OA 
HETATM    5  C   UNL     1     -10.475   8.704  70.364  1.00  0.00    -0.208 C  
HETATM    6  N   UNL     1     -11.777   8.723  70.826  1.00  0.00    -0.258 N  
HETATM    7  O   UNL     1     -12.296   6.380  71.299  1.00  0.00    -0.240 OA 
HETATM    8  O   UNL     1     -11.745   7.948  73.127  1.00  0.00    -0.264 OA 
HETATM    9  O   UNL     1      -9.659   7.816  70.368  1.00  0.00    -0.174 OA 
HETATM   10  S   UNL     1     -12.477   7.694  71.894  1.00  0.00    -0.291 S  
ENDROOT
BRANCH   3  11
HETATM   11  N   UNL     1     -10.173  10.607  68.565  1.00  0.00    -0.167 N  
HETATM   12  O   UNL     1     -10.999   8.751  67.468  1.00  0.00    -0.120 OA 
HETATM   13  C   UNL     1     -10.497   9.867  67.443  1.00  0.00    -0.267 C  
HETATM   14  H   UNL     1      -9.620  11.456  68.440  1.00  0.00     0.000 HD 
BRANCH  13  15
HETATM   15  C   UNL     1     -10.170  10.474  66.081  1.00  0.00    -0.236 C  
BRANCH  15  16
HETATM   16  C   UNL     1      -8.956  10.043  65.372  1.00  0.00    -0.180 A  
HETATM   17  C   UNL     1      -7.804   8.971  63.819  1.00  0.00    -0.137 A  
HETATM   18  N   UNL     1      -7.660   8.125  62.710  1.00  0.00    -0.115 NA 
HETATM   19  H2  UNL     1      -6.943   7.440  62.952  1.00  0.00     0.000 HD 
HETATM   20  C   UNL     1      -7.675  10.507  65.645  1.00  0.00    -0.139 A  
HETATM   21  H1  UNL     1      -8.422   7.610  62.269  1.00  0.00     0.000 HD 
HETATM   22  S   UNL     1      -6.541   9.824  64.550  1.00  0.00    -0.119 SA 
HETATM   23  N   UNL     1      -8.998   9.120  64.320  1.00  0.00    -0.112 NA 
ENDBRANCH  15  16
BRANCH  15  24
HETATM   24  N   UNL     1     -10.901  11.362  65.467  1.00  0.00    -0.253 NA 
HETATM   25  H   UNL     1     -10.833  11.560  64.468  1.00  0.00     0.000 HD 
BRANCH  24  26
HETATM   26  O   UNL     1     -11.789  12.012  66.328  1.00  0.00    -0.563 OA 
HETATM   27  O   UNL     1     -12.017  13.130  68.606  1.00  0.00    -0.328 OA 
HETATM   28  O   UNL     1     -12.014  15.246  67.850  1.00  0.00    -0.234 OA 
HETATM   29  C   UNL     1     -10.333  13.947  65.757  1.00  0.00    -0.326 C  
HETATM   30  C   UNL     1     -12.832  13.923  65.295  1.00  0.00    -0.437 C  
HETATM   31  C   UNL     1     -11.711  13.454  66.215  1.00  0.00    -0.366 C  
HETATM   32  C   UNL     1     -11.946  13.911  67.661  1.00  0.00    -0.368 C  
ENDBRANCH  24  26
ENDBRANCH  15  24
ENDBRANCH  13  15
ENDBRANCH   3  11
TORSDOF 5
ENDMDL
MODEL       99
REMARK 921   NORMALIZED FREE ENERGY PREDICTED BY IDOCK:   -5.60 KCAL/MOL
REMARK 922        TOTAL FREE ENERGY PREDICTED BY IDOCK:   -8.38 KCAL/MOL
REMARK 923 INTER-LIGAND FREE ENERGY PREDICTED BY IDOCK:   -7.29 KCAL/MOL
REMARK 924 INTRA-LIGAND FREE ENERGY PREDICTED BY IDOCK:   -1.09 KCAL/MOL
REMARK 927      BINDING AFFINITY PREDICTED BY RF-SCORE:    0.00 PKD
ROOT
HETATM    1  C   UNL     1     -11.365   6.400  69.091  1.00  0.00    -0.366 C  
HETATM    2  C   UNL     1     -10.128   7.189  69.456  1.00  0.00    -0.179 C  
HETATM    3  C   UNL     1     -10.372   8.719  69.650  1.00  0.00    -0.213 C  
HETATM    4  O   UNL     1      -9.642   4.716  71.191  1.00  0.00    -0.149 OA 
HETATM    5  C   UNL     1      -9.662   8.482  71.048  1.00  0.00    -0.193 C  
HETATM    6  N   UNL     1      -9.716   7.115  70.855  1.00  0.00    -0.171 N  
HETATM    7  O   UNL     1      -8.363   6.184  72.668  1.00  0.00    -0.121 OA 
HETATM    8  O   UNL     1     -10.832   6.151  72.785  1.00  0.00    -0.226 OA 
HETATM    9  O   UNL     1      -9.246   9.122  71.982  1.00  0.00    -0.339 OA 
HETATM   10  S   UNL     1      -9.628   5.938  71.994  1.00  0.00    -0.148 S  
ENDROOT
BRANCH   3  11
HETATM   11  N   UNL     1      -9.732   9.685  68.704  1.00  0.00    -0.152 N  
HETATM   12  O   UNL     1     -11.633  10.846  68.094  1.00  0.00    -0.431 OA 
HETATM   13  C   UNL     1     -10.416  10.713  68.082  1.00  0.00    -0.185 C  
HETATM   14  H   UNL     1      -8.737   9.578  68.506  1.00  0.00     0.000 HD 
BRANCH  13  15
HETATM   15  C   UNL     1      -9.593  11.730  67.296  1.00  0.00    -0.176 C  
BRANCH  15  16
HETATM   16  C   UNL     1      -8.235  11.375  66.857  1.00  0.00    -0.157 A  
HETATM   17  C   UNL     1      -6.725  10.330  65.626  1.00  0.00    -0.122 A  
HETATM   18  N   UNL     1      -6.304   9.441  64.626  1.00  0.00    -0.076 NA 
HETATM   19  H2  UNL     1      -5.594   8.840  65.045  1.00  0.00     0.000 HD 
HETATM   20  C   UNL     1      -7.071  11.970  67.329  1.00  0.00    -0.149 A  
HETATM   21  H1  UNL     1      -6.924   8.835  64.089  1.00  0.00     0.000 HD 
HETATM   22  S   UNL     1      -5.698  11.335  66.515  1.00  0.00    -0.139 SA 
HETATM   23  N   UNL     1      -8.001  10.396  65.884  1.00  0.00    -0.145 NA 
ENDBRANCH  15  16
BRANCH  15  24
HETATM   24  N   UNL     1     -10.005  12.921  66.959  1.00  0.00    -0.239 NA 
HETATM   25  H   UNL     1     -10.240  13.651  67.633  1.00  0.00     0.000 HD 
BRANCH  24  26
HETATM   26  O   UNL     1     -10.089  13.087  65.575  1.00  0.00    -0.283 OA 
HETATM   27  O   UNL     1     -11.151  12.181  63.443  1.00  0.00    -0.431 OA 
HETATM   28  O   UNL     1     -12.678  13.812  63.210  1.00  0.00    -0.783 OA 
HETATM   29  C   UNL     1     -12.398  13.789  66.178  1.00  0.00    -0.496 C  
HETATM   30  C   UNL     1     -10.773  15.314  64.959  1.00  0.00    -0.461 C  
HETATM   31  C   UNL     1     -11.236  13.879  65.182  1.00  0.00    -0.326 C  
HETATM   32  C   UNL     1     -11.659  13.216  63.864  1.00  0.00    -0.433 C  
ENDBRANCH  24  26
ENDBRANCH  15  24
ENDBRANCH  13  15
ENDBRANCH   3  11
TORSDOF 5
ENDMDL
MODEL      100
REMARK 921   NORMALIZED FREE ENERGY PREDICTED BY IDOCK:   -5.59 KCAL/MOL
REMARK 922        TOTAL FREE ENERGY PREDICTED BY IDOCK:   -8.38 KCAL/MOL
REMARK 923 INTER-LIGAND FREE ENERGY PREDICTED BY IDOCK:   -7.10 KCAL/MOL
REMARK 924 INTRA-LIGAND FREE ENERGY PREDICTED BY IDOCK:   -1.28 KCAL/MOL
REMARK 927      BINDING AFFINITY PREDICTED BY RF-SCORE:    0.00 PKD
ROOT
HETATM    1  C   UNL     1      -6.894   6.771  66.458  1.00  0.00    -0.061 C  
HETATM    2  C   UNL     1      -8.201   6.365  67.101  1.00  0.00    -0.113 C  
HETATM    3  C   UNL     1      -9.461   7.064  66.498  1.00  0.00    -0.150 C  
HETATM    4  O   UNL     1      -6.846   3.623  67.008  1.00  0.00    -0.049 OA 
HETATM    5  C   UNL     1      -9.998   5.580  66.339  1.00  0.00    -0.172 C  
HETATM    6  N   UNL     1      -8.751   5.083  66.668  1.00  0.00    -0.109 N  
HETATM    7  O   UNL     1      -9.098   2.676  66.932  1.00  0.00    -0.152 OA 
HETATM    8  O   UNL     1      -8.067   3.589  64.880  1.00  0.00    -0.089 OA 
HETATM    9  O   UNL     1     -11.011   5.002  66.030  1.00  0.00    -0.243 OA 
HETATM   10  S   UNL     1      -8.145   3.597  66.334  1.00  0.00    -0.100 S  
ENDROOT
BRANCH   3  11
HETATM   11  N   UNL     1     -10.255   7.999  67.354  1.00  0.00    -0.235 N  
HETATM   12  O   UNL     1      -8.842   9.822  67.237  1.00  0.00    -0.131 OA 
HETATM   13  C   UNL     1      -9.908   9.320  67.569  1.00  0.00    -0.175 C  
HETATM   14  H   UNL     1     -11.099   7.642  67.803  1.00  0.00     0.000 HD 
BRANCH  13  15
HETATM   15  C   UNL     1     -10.914  10.200  68.307  1.00  0.00    -0.248 C  
BRANCH  15  16
HETATM   16  C   UNL     1     -11.292  11.501  67.733  1.00  0.00    -0.296 A  
HETATM   17  C   UNL     1     -11.949  12.885  66.140  1.00  0.00    -0.429 A  
HETATM   18  N   UNL     1     -12.329  13.218  64.832  1.00  0.00    -0.455 NA 
HETATM   19  H2  UNL     1     -11.767  14.024  64.557  1.00  0.00     0.000 HD 
HETATM   20  C   UNL     1     -11.433  12.674  68.464  1.00  0.00    -0.311 A  
HETATM   21  H1  UNL     1     -12.323  12.572  64.043  1.00  0.00     0.000 HD 
HETATM   22  S   UNL     1     -11.960  13.955  67.448  1.00  0.00    -0.365 SA 
HETATM   23  N   UNL     1     -11.569  11.660  66.370  1.00  0.00    -0.446 NA 
ENDBRANCH  15  16
BRANCH  15  24
HETATM   24  N   UNL     1     -11.496   9.885  69.431  1.00  0.00    -0.441 NA 
HETATM   25  H   UNL     1     -12.408  10.241  69.716  1.00  0.00     0.000 HD 
BRANCH  24  26
HETATM   26  O   UNL     1     -10.731   9.005  70.200  1.00  0.00    -0.220 OA 
HETATM   27  O   UNL     1      -9.462   8.742  72.395  1.00  0.00    -0.293 OA 
HETATM   28  O   UNL     1     -11.008   7.483  73.430  1.00  0.00    -0.380 OA 
HETATM   29  C   UNL     1     -12.767   9.081  71.628  1.00  0.00    -0.421 C  
HETATM   30  C   UNL     1     -11.874   6.925  70.622  1.00  0.00    -0.418 C  
HETATM   31  C   UNL     1     -11.524   8.298  71.184  1.00  0.00    -0.273 C  
HETATM   32  C   UNL     1     -10.557   8.188  72.370  1.00  0.00    -0.323 C  
ENDBRANCH  24  26
ENDBRANCH  15  24
ENDBRANCH  13  15
ENDBRANCH   3  11
TORSDOF 5
ENDMDL
MODEL      101
REMARK 921   NORMALIZED FREE ENERGY PREDICTED BY IDOCK:   -5.59 KCAL/MOL
REMARK 922        TOTAL FREE ENERGY PREDICTED BY IDOCK:   -8.38 KCAL/MOL
REMARK 923 INTER-LIGAND FREE ENERGY PREDICTED BY IDOCK:   -7.51 KCAL/MOL
REMARK 924 INTRA-LIGAND FREE ENERGY PREDICTED BY IDOCK:   -0.87 KCAL/MOL
REMARK 927      BINDING AFFINITY PREDICTED BY RF-SCORE:    0.00 PKD
ROOT
HETATM    1  C   UNL     1      -9.910  11.120  63.425  1.00  0.00    -0.397 C  
HETATM    2  C   UNL     1     -10.768  10.934  64.656  1.00  0.00    -0.184 C  
HETATM    3  C   UNL     1      -9.963  10.748  65.981  1.00  0.00    -0.242 C  
HETATM    4  O   UNL     1     -12.404  13.112  63.263  1.00  0.00    -0.712 OA 
HETATM    5  C   UNL     1     -10.875  11.937  66.502  1.00  0.00    -0.278 C  
HETATM    6  N   UNL     1     -11.344  12.152  65.220  1.00  0.00    -0.333 N  
HETATM    7  O   UNL     1     -13.167  13.760  65.493  1.00  0.00    -0.662 OA 
HETATM    8  O   UNL     1     -10.948  14.487  64.681  1.00  0.00    -0.382 OA 
HETATM    9  O   UNL     1     -11.114  12.524  67.528  1.00  0.00    -0.243 OA 
HETATM   10  S   UNL     1     -12.031  13.514  64.619  1.00  0.00    -0.422 S  
ENDROOT
BRANCH   3  11
HETATM   11  N   UNL     1     -10.046   9.443  66.708  1.00  0.00    -0.240 N  
HETATM   12  O   UNL     1      -8.647   8.221  65.336  1.00  0.00    -0.167 OA 
HETATM   13  C   UNL     1      -9.308   8.326  66.361  1.00  0.00    -0.213 C  
HETATM   14  H   UNL     1     -10.681   9.374  67.503  1.00  0.00     0.000 HD 
BRANCH  13  15
HETATM   15  C   UNL     1      -9.355   7.131  67.308  1.00  0.00    -0.134 C  
BRANCH  15  16
HETATM   16  C   UNL     1     -10.072   7.251  68.587  1.00  0.00    -0.176 A  
HETATM   17  C   UNL     1     -10.750   8.269  70.428  1.00  0.00    -0.232 A  
HETATM   18  N   UNL     1     -10.817   9.344  71.327  1.00  0.00    -0.341 NA 
HETATM   19  H2  UNL     1     -10.616   8.967  72.253  1.00  0.00     0.000 HD 
HETATM   20  C   UNL     1     -10.933   6.289  69.102  1.00  0.00    -0.377 A  
HETATM   21  H1  UNL     1     -10.286  10.209  71.239  1.00  0.00     0.000 HD 
HETATM   22  S   UNL     1     -11.632   6.835  70.574  1.00  0.00    -0.370 SA 
HETATM   23  N   UNL     1      -9.959   8.386  69.399  1.00  0.00    -0.186 NA 
ENDBRANCH  15  16
BRANCH  15  24
HETATM   24  N   UNL     1      -8.807   5.971  67.072  1.00  0.00    -0.113 NA 
HETATM   25  H   UNL     1      -7.811   5.780  67.190  1.00  0.00     0.000 HD 
BRANCH  24  26
HETATM   26  O   UNL     1      -9.733   5.020  66.639  1.00  0.00    -0.145 OA 
HETATM   27  O   UNL     1     -11.318   4.385  64.747  1.00  0.00    -0.266 OA 
HETATM   28  O   UNL     1     -10.027   2.770  63.868  1.00  0.00    -0.147 OA 
HETATM   29  C   UNL     1      -7.922   4.555  64.998  1.00  0.00    -0.098 C  
HETATM   30  C   UNL     1      -8.809   2.794  66.600  1.00  0.00    -0.154 C  
HETATM   31  C   UNL     1      -9.139   4.027  65.767  1.00  0.00    -0.142 C  
HETATM   32  C   UNL     1     -10.272   3.744  64.771  1.00  0.00    -0.150 C  
ENDBRANCH  24  26
ENDBRANCH  15  24
ENDBRANCH  13  15
ENDBRANCH   3  11
TORSDOF 5
ENDMDL
MODEL      102
REMARK 921   NORMALIZED FREE ENERGY PREDICTED BY IDOCK:   -5.59 KCAL/MOL
REMARK 922        TOTAL FREE ENERGY PREDICTED BY IDOCK:   -8.37 KCAL/MOL
REMARK 923 INTER-LIGAND FREE ENERGY PREDICTED BY IDOCK:   -7.76 KCAL/MOL
REMARK 924 INTRA-LIGAND FREE ENERGY PREDICTED BY IDOCK:   -0.61 KCAL/MOL
REMARK 927      BINDING AFFINITY PREDICTED BY RF-SCORE:    0.00 PKD
ROOT
HETATM    1  C   UNL     1      -9.916  11.868  63.555  1.00  0.00    -0.422 C  
HETATM    2  C   UNL     1     -10.673  11.871  64.864  1.00  0.00    -0.301 C  
HETATM    3  C   UNL     1      -9.785  12.137  66.122  1.00  0.00    -0.240 C  
HETATM    4  O   UNL     1     -12.701  13.379  63.141  1.00  0.00    -0.663 OA 
HETATM    5  C   UNL     1     -10.850  13.274  66.422  1.00  0.00    -0.288 C  
HETATM    6  N   UNL     1     -11.408  13.095  65.171  1.00  0.00    -0.292 N  
HETATM    7  O   UNL     1     -13.450  14.442  65.210  1.00  0.00    -0.483 OA 
HETATM    8  O   UNL     1     -11.418  15.256  64.062  1.00  0.00    -0.097 OA 
HETATM    9  O   UNL     1     -11.130  14.056  67.296  1.00  0.00    -0.289 OA 
HETATM   10  S   UNL     1     -12.332  14.154  64.325  1.00  0.00    -0.276 S  
ENDROOT
BRANCH   3  11
HETATM   11  N   UNL     1      -9.623  11.054  67.141  1.00  0.00    -0.168 N  
HETATM   12  O   UNL     1     -11.851  10.784  67.684  1.00  0.00    -0.505 OA 
HETATM   13  C   UNL     1     -10.684  10.422  67.762  1.00  0.00    -0.279 C  
HETATM   14  H   UNL     1      -8.676  10.767  67.393  1.00  0.00     0.000 HD 
BRANCH  13  15
HETATM   15  C   UNL     1     -10.368   9.210  68.634  1.00  0.00    -0.209 C  
BRANCH  15  16
HETATM   16  C   UNL     1      -9.948   7.952  67.997  1.00  0.00    -0.177 A  
HETATM   17  C   UNL     1      -8.634   6.208  67.656  1.00  0.00    -0.106 A  
HETATM   18  N   UNL     1      -7.496   5.420  67.880  1.00  0.00    -0.076 NA 
HETATM   19  H2  UNL     1      -7.084   5.230  66.966  1.00  0.00     0.000 HD 
HETATM   20  C   UNL     1     -10.707   7.244  67.073  1.00  0.00    -0.336 A  
HETATM   21  H1  UNL     1      -6.728   5.671  68.503  1.00  0.00     0.000 HD 
HETATM   22  S   UNL     1      -9.906   5.792  66.624  1.00  0.00    -0.172 SA 
HETATM   23  N   UNL     1      -8.725   7.340  68.296  1.00  0.00    -0.126 NA 
ENDBRANCH  15  16
BRANCH  15  24
HETATM   24  N   UNL     1     -10.428   9.194  69.937  1.00  0.00    -0.214 NA 
HETATM   25  H   UNL     1      -9.983   9.892  70.533  1.00  0.00     0.000 HD 
BRANCH  24  26
HETATM   26  O   UNL     1     -11.170   8.116  70.424  1.00  0.00    -0.264 OA 
HETATM   27  O   UNL     1     -11.072   5.642  71.032  1.00  0.00    -0.233 OA 
HETATM   28  O   UNL     1     -11.003   5.933  73.259  1.00  0.00    -0.261 OA 
HETATM   29  C   UNL     1      -9.653   8.439  72.369  1.00  0.00    -0.373 C  
HETATM   30  C   UNL     1     -12.182   8.591  72.560  1.00  0.00    -0.383 C  
HETATM   31  C   UNL     1     -11.004   7.931  71.852  1.00  0.00    -0.256 C  
HETATM   32  C   UNL     1     -11.050   6.404  71.995  1.00  0.00    -0.265 C  
ENDBRANCH  24  26
ENDBRANCH  15  24
ENDBRANCH  13  15
ENDBRANCH   3  11
TORSDOF 5
ENDMDL
MODEL      103
REMARK 921   NORMALIZED FREE ENERGY PREDICTED BY IDOCK:   -5.54 KCAL/MOL
REMARK 922        TOTAL FREE ENERGY PREDICTED BY IDOCK:   -8.31 KCAL/MOL
REMARK 923 INTER-LIGAND FREE ENERGY PREDICTED BY IDOCK:   -7.94 KCAL/MOL
REMARK 924 INTRA-LIGAND FREE ENERGY PREDICTED BY IDOCK:   -0.36 KCAL/MOL
REMARK 927      BINDING AFFINITY PREDICTED BY RF-SCORE:    0.00 PKD
ROOT
HETATM    1  C   UNL     1     -11.446  14.854  64.201  1.00  0.00     0.001 C  
HETATM    2  C   UNL     1     -10.921  14.025  65.351  1.00  0.00    -0.321 C  
HETATM    3  C   UNL     1     -11.897  13.915  66.565  1.00  0.00    -0.414 C  
HETATM    4  O   UNL     1      -9.958  12.279  63.031  1.00  0.00    -0.320 OA 
HETATM    5  C   UNL     1     -11.675  12.355  66.385  1.00  0.00    -0.391 C  
HETATM    6  N   UNL     1     -11.020  12.577  65.188  1.00  0.00    -0.289 N  
HETATM    7  O   UNL     1     -10.089  10.397  64.585  1.00  0.00    -0.345 OA 
HETATM    8  O   UNL     1     -12.135  11.246  63.491  1.00  0.00    -0.029 OA 
HETATM    9  O   UNL     1     -11.945  11.322  66.946  1.00  0.00    -0.327 OA 
HETATM   10  S   UNL     1     -10.784  11.513  63.963  1.00  0.00    -0.411 S  
ENDROOT
BRANCH   3  11
HETATM   11  N   UNL     1     -11.503  14.524  67.874  1.00  0.00    -0.309 N  
HETATM   12  O   UNL     1     -11.013  16.647  67.109  1.00  0.00    -0.183 OA 
HETATM   13  C   UNL     1     -11.181  15.859  68.031  1.00  0.00    -0.319 C  
HETATM   14  H   UNL     1     -11.470  13.920  68.696  1.00  0.00     0.000 HD 
BRANCH  13  15
HETATM   15  C   UNL     1     -10.986  16.373  69.455  1.00  0.00    -0.317 C  
BRANCH  15  16
HETATM   16  C   UNL     1     -11.642  15.673  70.570  1.00  0.00    -0.360 A  
HETATM   17  C   UNL     1     -12.723  14.011  71.548  1.00  0.00    -0.363 A  
HETATM   18  N   UNL     1     -13.356  12.760  71.581  1.00  0.00    -0.332 NA 
HETATM   19  H2  UNL     1     -14.263  12.899  72.026  1.00  0.00     0.000 HD 
HETATM   20  C   UNL     1     -11.662  16.126  71.884  1.00  0.00    -0.491 A  
HETATM   21  H1  UNL     1     -13.515  12.168  70.766  1.00  0.00     0.000 HD 
HETATM   22  S   UNL     1     -12.458  14.991  72.899  1.00  0.00    -0.403 SA 
HETATM   23  N   UNL     1     -12.298  14.448  70.396  1.00  0.00    -0.323 NA 
ENDBRANCH  15  16
BRANCH  15  24
HETATM   24  N   UNL     1     -10.258  17.404  69.782  1.00  0.00     0.044 NA 
HETATM   25  H   UNL     1     -10.531  18.090  70.486  1.00  0.00     0.000 HD 
BRANCH  24  26
HETATM   26  O   UNL     1      -9.063  17.465  69.061  1.00  0.00    -0.203 OA 
HETATM   27  O   UNL     1      -8.050  17.382  66.724  1.00  0.00    -0.218 OA 
HETATM   28  O   UNL     1      -7.674  19.588  66.534  1.00  0.00    -0.252 OA 
HETATM   29  C   UNL     1     -10.057  19.624  68.326  1.00  0.00    -0.560 C  
HETATM   30  C   UNL     1      -7.818  19.477  69.519  1.00  0.00     0.078 C  
HETATM   31  C   UNL     1      -8.787  18.796  68.560  1.00  0.00    -0.345 C  
HETATM   32  C   UNL     1      -8.125  18.508  67.206  1.00  0.00    -0.241 C  
ENDBRANCH  24  26
ENDBRANCH  15  24
ENDBRANCH  13  15
ENDBRANCH   3  11
TORSDOF 5
ENDMDL
MODEL      104
REMARK 921   NORMALIZED FREE ENERGY PREDICTED BY IDOCK:   -5.51 KCAL/MOL
REMARK 922        TOTAL FREE ENERGY PREDICTED BY IDOCK:   -8.27 KCAL/MOL
REMARK 923 INTER-LIGAND FREE ENERGY PREDICTED BY IDOCK:   -7.11 KCAL/MOL
REMARK 924 INTRA-LIGAND FREE ENERGY PREDICTED BY IDOCK:   -1.16 KCAL/MOL
REMARK 927      BINDING AFFINITY PREDICTED BY RF-SCORE:    0.00 PKD
ROOT
HETATM    1  C   UNL     1      -7.048   6.014  68.699  1.00  0.00    -0.082 C  
HETATM    2  C   UNL     1      -8.259   6.478  67.921  1.00  0.00    -0.116 C  
HETATM    3  C   UNL     1      -8.415   8.030  67.836  1.00  0.00    -0.125 C  
HETATM    4  O   UNL     1      -7.394   4.166  66.114  1.00  0.00    -0.077 OA 
HETATM    5  C   UNL     1      -8.507   7.764  66.275  1.00  0.00    -0.141 C  
HETATM    6  N   UNL     1      -8.131   6.448  66.467  1.00  0.00    -0.109 N  
HETATM    7  O   UNL     1      -8.459   5.390  64.286  1.00  0.00    -0.135 OA 
HETATM    8  O   UNL     1      -6.199   6.030  65.056  1.00  0.00    -0.031 OA 
HETATM    9  O   UNL     1      -8.746   8.366  65.257  1.00  0.00    -0.170 OA 
HETATM   10  S   UNL     1      -7.485   5.420  65.365  1.00  0.00    -0.079 S  
ENDROOT
BRANCH   3  11
HETATM   11  N   UNL     1      -9.587   8.683  68.497  1.00  0.00    -0.152 N  
HETATM   12  O   UNL     1      -8.447   9.739  70.205  1.00  0.00    -0.190 OA 
HETATM   13  C   UNL     1      -9.476   9.547  69.571  1.00  0.00    -0.185 C  
HETATM   14  H   UNL     1     -10.519   8.479  68.136  1.00  0.00     0.000 HD 
BRANCH  13  15
HETATM   15  C   UNL     1     -10.738  10.281  70.015  1.00  0.00    -0.292 C  
BRANCH  15  16
HETATM   16  C   UNL     1     -11.762   9.558  70.785  1.00  0.00    -0.298 A  
HETATM   17  C   UNL     1     -12.713   7.787  71.703  1.00  0.00    -0.335 A  
HETATM   18  N   UNL     1     -12.820   6.420  72.001  1.00  0.00    -0.413 NA 
HETATM   19  H2  UNL     1     -13.771   6.139  71.763  1.00  0.00     0.000 HD 
HETATM   20  C   UNL     1     -12.811  10.163  71.465  1.00  0.00    -0.443 A  
HETATM   21  H1  UNL     1     -12.199   5.697  71.639  1.00  0.00     0.000 HD 
HETATM   22  S   UNL     1     -13.742   8.986  72.303  1.00  0.00    -0.480 SA 
HETATM   23  N   UNL     1     -11.747   8.164  70.914  1.00  0.00    -0.273 NA 
ENDBRANCH  15  16
BRANCH  15  24
HETATM   24  N   UNL     1     -10.992  11.538  69.774  1.00  0.00    -0.461 NA 
HETATM   25  H   UNL     1     -11.230  12.217  70.498  1.00  0.00     0.000 HD 
BRANCH  24  26
HETATM   26  O   UNL     1     -10.901  11.851  68.416  1.00  0.00    -0.206 OA 
HETATM   27  O   UNL     1     -12.245  12.220  66.283  1.00  0.00    -0.628 OA 
HETATM   28  O   UNL     1     -12.099  14.462  66.278  1.00  0.00    -0.409 OA 
HETATM   29  C   UNL     1     -11.985  13.944  69.212  1.00  0.00    -0.402 C  
HETATM   30  C   UNL     1      -9.735  13.925  68.030  1.00  0.00    -0.226 C  
HETATM   31  C   UNL     1     -11.102  13.262  68.159  1.00  0.00    -0.259 C  
HETATM   32  C   UNL     1     -11.847  13.251  66.819  1.00  0.00    -0.394 C  
ENDBRANCH  24  26
ENDBRANCH  15  24
ENDBRANCH  13  15
ENDBRANCH   3  11
TORSDOF 5
ENDMDL
MODEL      105
REMARK 921   NORMALIZED FREE ENERGY PREDICTED BY IDOCK:   -5.51 KCAL/MOL
REMARK 922        TOTAL FREE ENERGY PREDICTED BY IDOCK:   -8.26 KCAL/MOL
REMARK 923 INTER-LIGAND FREE ENERGY PREDICTED BY IDOCK:   -7.29 KCAL/MOL
REMARK 924 INTRA-LIGAND FREE ENERGY PREDICTED BY IDOCK:   -0.98 KCAL/MOL
REMARK 927      BINDING AFFINITY PREDICTED BY RF-SCORE:    0.00 PKD
ROOT
HETATM    1  C   UNL     1      -9.892  11.334  63.788  1.00  0.00    -0.361 C  
HETATM    2  C   UNL     1     -10.937  11.140  64.864  1.00  0.00    -0.121 C  
HETATM    3  C   UNL     1     -10.357  10.999  66.307  1.00  0.00    -0.251 C  
HETATM    4  O   UNL     1     -12.379  13.247  63.179  1.00  0.00    -0.682 OA 
HETATM    5  C   UNL     1     -11.375  12.166  66.647  1.00  0.00    -0.350 C  
HETATM    6  N   UNL     1     -11.631  12.348  65.301  1.00  0.00    -0.359 N  
HETATM    7  O   UNL     1     -13.518  13.903  65.239  1.00  0.00    -0.612 OA 
HETATM    8  O   UNL     1     -11.217  14.686  64.791  1.00  0.00    -0.379 OA 
HETATM    9  O   UNL     1     -11.797  12.760  67.608  1.00  0.00    -0.356 OA 
HETATM   10  S   UNL     1     -12.247  13.680  64.570  1.00  0.00    -0.385 S  
ENDROOT
BRANCH   3  11
HETATM   11  N   UNL     1     -10.523   9.702  67.035  1.00  0.00    -0.246 N  
HETATM   12  O   UNL     1      -9.499  10.310  69.014  1.00  0.00    -0.179 OA 
HETATM   13  C   UNL     1     -10.152   9.512  68.354  1.00  0.00    -0.175 C  
HETATM   14  H   UNL     1     -10.931   8.915  66.531  1.00  0.00     0.000 HD 
BRANCH  13  15
HETATM   15  C   UNL     1     -10.557   8.198  69.016  1.00  0.00    -0.151 C  
BRANCH  15  16
HETATM   16  C   UNL     1     -11.142   8.219  70.365  1.00  0.00    -0.235 A  
HETATM   17  C   UNL     1     -11.341   7.621  72.484  1.00  0.00    -0.355 A  
HETATM   18  N   UNL     1     -11.001   6.882  73.626  1.00  0.00    -0.528 NA 
HETATM   19  H2  UNL     1     -11.868   6.490  73.993  1.00  0.00     0.000 HD 
HETATM   20  C   UNL     1     -12.132   9.101  70.782  1.00  0.00    -0.149 A  
HETATM   21  H1  UNL     1     -10.307   6.136  73.650  1.00  0.00     0.000 HD 
HETATM   22  S   UNL     1     -12.491   8.859  72.445  1.00  0.00    -0.278 SA 
HETATM   23  N   UNL     1     -10.720   7.343  71.372  1.00  0.00    -0.220 NA 
ENDBRANCH  15  16
BRANCH  15  24
HETATM   24  N   UNL     1     -10.436   7.021  68.468  1.00  0.00    -0.193 NA 
HETATM   25  H   UNL     1     -11.189   6.549  67.966  1.00  0.00     0.000 HD 
BRANCH  24  26
HETATM   26  O   UNL     1      -9.162   6.476  68.645  1.00  0.00    -0.128 OA 
HETATM   27  O   UNL     1      -7.871   4.313  69.029  1.00  0.00    -0.061 OA 
HETATM   28  O   UNL     1      -7.103   4.102  66.928  1.00  0.00    -0.064 OA 
HETATM   29  C   UNL     1      -9.666   5.532  66.399  1.00  0.00    -0.182 C  
HETATM   30  C   UNL     1      -7.667   7.038  66.840  1.00  0.00    -0.103 C  
HETATM   31  C   UNL     1      -8.599   5.974  67.409  1.00  0.00    -0.102 C  
HETATM   32  C   UNL     1      -7.818   4.740  67.879  1.00  0.00    -0.082 C  
ENDBRANCH  24  26
ENDBRANCH  15  24
ENDBRANCH  13  15
ENDBRANCH   3  11
TORSDOF 5
ENDMDL
MODEL      106
REMARK 921   NORMALIZED FREE ENERGY PREDICTED BY IDOCK:   -5.49 KCAL/MOL
REMARK 922        TOTAL FREE ENERGY PREDICTED BY IDOCK:   -8.24 KCAL/MOL
REMARK 923 INTER-LIGAND FREE ENERGY PREDICTED BY IDOCK:   -7.23 KCAL/MOL
REMARK 924 INTRA-LIGAND FREE ENERGY PREDICTED BY IDOCK:   -1.01 KCAL/MOL
REMARK 927      BINDING AFFINITY PREDICTED BY RF-SCORE:    0.00 PKD
ROOT
HETATM    1  C   UNL     1     -12.006  13.547  68.858  1.00  0.00    -0.378 C  
HETATM    2  C   UNL     1     -10.953  12.867  68.012  1.00  0.00    -0.247 C  
HETATM    3  C   UNL     1     -11.189  11.338  67.795  1.00  0.00    -0.291 C  
HETATM    4  O   UNL     1     -11.226  15.468  66.426  1.00  0.00    -0.240 OA 
HETATM    5  C   UNL     1     -11.041  11.707  66.259  1.00  0.00    -0.290 C  
HETATM    6  N   UNL     1     -11.077  13.054  66.569  1.00  0.00    -0.282 N  
HETATM    7  O   UNL     1     -10.509  14.182  64.475  1.00  0.00    -0.408 OA 
HETATM    8  O   UNL     1     -12.852  14.057  65.250  1.00  0.00    -0.686 OA 
HETATM    9  O   UNL     1     -10.966  11.155  65.190  1.00  0.00    -0.201 OA 
HETATM   10  S   UNL     1     -11.454  14.301  65.574  1.00  0.00    -0.338 S  
ENDROOT
BRANCH   3  11
HETATM   11  N   UNL     1     -10.212  10.361  68.369  1.00  0.00    -0.159 N  
HETATM   12  O   UNL     1     -11.054  10.286  70.517  1.00  0.00    -0.302 OA 
HETATM   13  C   UNL     1     -10.294   9.864  69.656  1.00  0.00    -0.241 C  
HETATM   14  H   UNL     1      -9.443  10.044  67.777  1.00  0.00     0.000 HD 
BRANCH  13  15
HETATM   15  C   UNL     1      -9.341   8.733  70.035  1.00  0.00    -0.168 C  
BRANCH  15  16
HETATM   16  C   UNL     1      -9.240   8.315  71.442  1.00  0.00    -0.169 A  
HETATM   17  C   UNL     1      -8.387   8.298  73.481  1.00  0.00    -0.192 A  
HETATM   18  N   UNL     1      -7.473   8.682  74.472  1.00  0.00    -0.395 NA 
HETATM   19  H2  UNL     1      -7.122   7.824  74.899  1.00  0.00     0.000 HD 
HETATM   20  C   UNL     1     -10.151   7.487  72.086  1.00  0.00    -0.194 A  
HETATM   21  H1  UNL     1      -6.665   9.285  74.316  1.00  0.00     0.000 HD 
HETATM   22  S   UNL     1      -9.726   7.299  73.741  1.00  0.00    -0.284 SA 
HETATM   23  N   UNL     1      -8.200   8.750  72.273  1.00  0.00    -0.383 NA 
ENDBRANCH  15  16
BRANCH  15  24
HETATM   24  N   UNL     1      -8.594   8.076  69.193  1.00  0.00    -0.136 NA 
HETATM   25  H   UNL     1      -7.581   7.988  69.283  1.00  0.00     0.000 HD 
BRANCH  24  26
HETATM   26  O   UNL     1      -9.332   7.507  68.153  1.00  0.00    -0.137 OA 
HETATM   27  O   UNL     1      -9.172   6.149  66.002  1.00  0.00    -0.157 OA 
HETATM   28  O   UNL     1      -9.883   4.206  66.877  1.00  0.00    -0.216 OA 
HETATM   29  C   UNL     1      -8.598   5.415  69.282  1.00  0.00    -0.102 C  
HETATM   30  C   UNL     1     -11.046   6.014  68.957  1.00  0.00    -0.377 C  
HETATM   31  C   UNL     1      -9.634   6.110  68.390  1.00  0.00    -0.118 C  
HETATM   32  C   UNL     1      -9.556   5.512  66.979  1.00  0.00    -0.137 C  
ENDBRANCH  24  26
ENDBRANCH  15  24
ENDBRANCH  13  15
ENDBRANCH   3  11
TORSDOF 5
ENDMDL
MODEL      107
REMARK 921   NORMALIZED FREE ENERGY PREDICTED BY IDOCK:   -5.48 KCAL/MOL
REMARK 922        TOTAL FREE ENERGY PREDICTED BY IDOCK:   -8.23 KCAL/MOL
REMARK 923 INTER-LIGAND FREE ENERGY PREDICTED BY IDOCK:   -6.69 KCAL/MOL
REMARK 924 INTRA-LIGAND FREE ENERGY PREDICTED BY IDOCK:   -1.54 KCAL/MOL
REMARK 927      BINDING AFFINITY PREDICTED BY RF-SCORE:    0.00 PKD
ROOT
HETATM    1  C   UNL     1      -6.058  17.353  66.781  1.00  0.00    -0.225 C  
HETATM    2  C   UNL     1      -7.498  16.908  66.655  1.00  0.00    -0.268 C  
HETATM    3  C   UNL     1      -7.861  15.651  67.508  1.00  0.00    -0.161 C  
HETATM    4  O   UNL     1      -7.944  19.933  66.743  1.00  0.00    -0.286 OA 
HETATM    5  C   UNL     1      -9.029  16.572  68.058  1.00  0.00    -0.204 C  
HETATM    6  N   UNL     1      -8.470  17.671  67.434  1.00  0.00    -0.219 N  
HETATM    7  O   UNL     1     -10.148  19.434  67.673  1.00  0.00    -0.350 OA 
HETATM    8  O   UNL     1      -8.150  19.383  69.126  1.00  0.00    -0.320 OA 
HETATM    9  O   UNL     1     -10.008  16.486  68.757  1.00  0.00    -0.232 OA 
HETATM   10  S   UNL     1      -8.710  19.254  67.788  1.00  0.00    -0.313 S  
ENDROOT
BRANCH   3  11
HETATM   11  N   UNL     1      -8.248  14.385  66.811  1.00  0.00    -0.388 N  
HETATM   12  O   UNL     1      -8.161  12.972  68.636  1.00  0.00    -0.112 OA 
HETATM   13  C   UNL     1      -8.444  13.181  67.464  1.00  0.00    -0.198 C  
HETATM   14  H   UNL     1      -8.373  14.410  65.799  1.00  0.00     0.000 HD 
BRANCH  13  15
HETATM   15  C   UNL     1      -9.020  12.026  66.650  1.00  0.00    -0.204 C  
BRANCH  15  16
HETATM   16  C   UNL     1      -8.410  10.692  66.757  1.00  0.00    -0.132 A  
HETATM   17  C   UNL     1      -6.784   9.203  66.604  1.00  0.00    -0.076 A  
HETATM   18  N   UNL     1      -5.482   8.780  66.299  1.00  0.00    -0.034 NA 
HETATM   19  H2  UNL     1      -5.571   7.947  65.717  1.00  0.00     0.000 HD 
HETATM   20  C   UNL     1      -9.039   9.579  67.302  1.00  0.00    -0.130 A  
HETATM   21  H1  UNL     1      -4.766   9.365  65.869  1.00  0.00     0.000 HD 
HETATM   22  S   UNL     1      -7.970   8.233  67.318  1.00  0.00    -0.106 SA 
HETATM   23  N   UNL     1      -7.103  10.436  66.327  1.00  0.00    -0.116 NA 
ENDBRANCH  15  16
BRANCH  15  24
HETATM   24  N   UNL     1     -10.046  12.118  65.850  1.00  0.00    -0.239 NA 
HETATM   25  H   UNL     1     -10.337  11.376  65.213  1.00  0.00     0.000 HD 
BRANCH  24  26
HETATM   26  O   UNL     1     -10.703  13.346  65.961  1.00  0.00    -0.274 OA 
HETATM   27  O   UNL     1     -10.712  15.768  65.169  1.00  0.00    -0.400 OA 
HETATM   28  O   UNL     1     -12.438  15.561  63.746  1.00  0.00    -0.592 OA 
HETATM   29  C   UNL     1     -11.330  12.796  63.617  1.00  0.00    -0.514 C  
HETATM   30  C   UNL     1     -13.052  13.178  65.446  1.00  0.00     0.140 C  
HETATM   31  C   UNL     1     -11.675  13.550  64.907  1.00  0.00    -0.357 C  
HETATM   32  C   UNL     1     -11.566  15.058  64.645  1.00  0.00    -0.386 C  
ENDBRANCH  24  26
ENDBRANCH  15  24
ENDBRANCH  13  15
ENDBRANCH   3  11
TORSDOF 5
ENDMDL
MODEL      108
REMARK 921   NORMALIZED FREE ENERGY PREDICTED BY IDOCK:   -5.47 KCAL/MOL
REMARK 922        TOTAL FREE ENERGY PREDICTED BY IDOCK:   -8.22 KCAL/MOL
REMARK 923 INTER-LIGAND FREE ENERGY PREDICTED BY IDOCK:   -7.63 KCAL/MOL
REMARK 924 INTRA-LIGAND FREE ENERGY PREDICTED BY IDOCK:   -0.59 KCAL/MOL
REMARK 927      BINDING AFFINITY PREDICTED BY RF-SCORE:    0.00 PKD
ROOT
HETATM    1  C   UNL     1      -7.050  16.571  68.663  1.00  0.00    -0.175 C  
HETATM    2  C   UNL     1      -8.275  16.271  67.829  1.00  0.00    -0.149 C  
HETATM    3  C   UNL     1      -9.260  15.247  68.476  1.00  0.00    -0.200 C  
HETATM    4  O   UNL     1      -8.104  19.288  67.352  1.00  0.00    -0.269 OA 
HETATM    5  C   UNL     1     -10.340  16.378  68.213  1.00  0.00    -0.279 C  
HETATM    6  N   UNL     1      -9.338  17.270  67.879  1.00  0.00    -0.253 N  
HETATM    7  O   UNL     1     -10.521  19.220  66.994  1.00  0.00    -0.397 OA 
HETATM    8  O   UNL     1      -9.607  19.228  69.290  1.00  0.00    -0.317 OA 
HETATM    9  O   UNL     1     -11.534  16.535  68.279  1.00  0.00    -0.283 OA 
HETATM   10  S   UNL     1      -9.413  18.908  67.883  1.00  0.00    -0.316 S  
ENDROOT
BRANCH   3  11
HETATM   11  N   UNL     1      -9.472  13.921  67.815  1.00  0.00    -0.208 N  
HETATM   12  O   UNL     1     -11.189  13.161  69.158  1.00  0.00    -0.262 OA 
HETATM   13  C   UNL     1     -10.478  13.041  68.169  1.00  0.00    -0.245 C  
HETATM   14  H   UNL     1      -8.838  13.652  67.062  1.00  0.00     0.000 HD 
BRANCH  13  15
HETATM   15  C   UNL     1     -10.687  11.818  67.281  1.00  0.00    -0.237 C  
BRANCH  15  16
HETATM   16  C   UNL     1     -10.836  11.997  65.829  1.00  0.00    -0.287 A  
HETATM   17  C   UNL     1     -10.207  11.900  63.712  1.00  0.00    -0.413 A  
HETATM   18  N   UNL     1      -9.308  11.623  62.672  1.00  0.00    -0.581 NA 
HETATM   19  H2  UNL     1      -9.267  12.457  62.086  1.00  0.00     0.000 HD 
HETATM   20  C   UNL     1     -12.005  12.412  65.201  1.00  0.00    -0.400 A  
HETATM   21  H1  UNL     1      -8.347  11.307  62.802  1.00  0.00     0.000 HD 
HETATM   22  S   UNL     1     -11.799  12.423  63.495  1.00  0.00    -0.521 SA 
HETATM   23  N   UNL     1      -9.790  11.735  64.936  1.00  0.00    -0.245 NA 
ENDBRANCH  15  16
BRANCH  15  24
HETATM   24  N   UNL     1     -10.734  10.587  67.709  1.00  0.00    -0.250 NA 
HETATM   25  H   UNL     1     -10.929  10.330  68.677  1.00  0.00     0.000 HD 
BRANCH  24  26
HETATM   26  O   UNL     1     -10.489   9.658  66.695  1.00  0.00    -0.221 OA 
HETATM   27  O   UNL     1      -8.743   8.812  65.042  1.00  0.00    -0.187 OA 
HETATM   28  O   UNL     1      -8.213   6.942  66.170  1.00  0.00    -0.109 OA 
HETATM   29  C   UNL     1      -8.990   8.713  68.441  1.00  0.00    -0.142 C  
HETATM   30  C   UNL     1     -10.899   7.392  67.408  1.00  0.00    -0.299 C  
HETATM   31  C   UNL     1      -9.836   8.462  67.187  1.00  0.00    -0.215 C  
HETATM   32  C   UNL     1      -8.904   8.093  66.025  1.00  0.00    -0.172 C  
ENDBRANCH  24  26
ENDBRANCH  15  24
ENDBRANCH  13  15
ENDBRANCH   3  11
TORSDOF 5
ENDMDL
MODEL      109
REMARK 921   NORMALIZED FREE ENERGY PREDICTED BY IDOCK:   -5.45 KCAL/MOL
REMARK 922        TOTAL FREE ENERGY PREDICTED BY IDOCK:   -8.20 KCAL/MOL
REMARK 923 INTER-LIGAND FREE ENERGY PREDICTED BY IDOCK:   -7.54 KCAL/MOL
REMARK 924 INTRA-LIGAND FREE ENERGY PREDICTED BY IDOCK:   -0.66 KCAL/MOL
REMARK 927      BINDING AFFINITY PREDICTED BY RF-SCORE:    0.00 PKD
ROOT
HETATM    1  C   UNL     1      -8.277   8.309  72.739  1.00  0.00    -0.221 C  
HETATM    2  C   UNL     1      -9.503   8.689  71.940  1.00  0.00    -0.299 C  
HETATM    3  C   UNL     1      -9.235   8.918  70.418  1.00  0.00    -0.194 C  
HETATM    4  O   UNL     1     -10.756   6.560  73.744  1.00  0.00    -0.283 OA 
HETATM    5  C   UNL     1     -10.416   7.876  70.228  1.00  0.00    -0.225 C  
HETATM    6  N   UNL     1     -10.394   7.590  71.580  1.00  0.00    -0.193 N  
HETATM    7  O   UNL     1     -12.371   6.197  71.946  1.00  0.00    -0.251 OA 
HETATM    8  O   UNL     1     -10.119   5.188  71.812  1.00  0.00    -0.186 OA 
HETATM    9  O   UNL     1     -11.093   7.412  69.344  1.00  0.00    -0.158 OA 
HETATM   10  S   UNL     1     -10.970   6.250  72.330  1.00  0.00    -0.269 S  
ENDROOT
BRANCH   3  11
HETATM   11  N   UNL     1      -9.421  10.286  69.843  1.00  0.00    -0.409 N  
HETATM   12  O   UNL     1      -8.872   9.794  67.655  1.00  0.00    -0.125 OA 
HETATM   13  C   UNL     1      -9.303  10.572  68.495  1.00  0.00    -0.168 C  
HETATM   14  H   UNL     1      -9.646  11.051  70.481  1.00  0.00     0.000 HD 
BRANCH  13  15
HETATM   15  C   UNL     1      -9.708  11.970  68.036  1.00  0.00    -0.198 C  
BRANCH  15  16
HETATM   16  C   UNL     1     -10.488  12.126  66.798  1.00  0.00    -0.218 A  
HETATM   17  C   UNL     1     -11.022  11.727  64.691  1.00  0.00    -0.310 A  
HETATM   18  N   UNL     1     -10.860  11.115  63.440  1.00  0.00    -0.732 NA 
HETATM   19  H2  UNL     1     -10.880  11.859  62.742  1.00  0.00     0.000 HD 
HETATM   20  C   UNL     1     -11.646  12.886  66.686  1.00  0.00    -0.372 A  
HETATM   21  H1  UNL     1     -10.088  10.497  63.190  1.00  0.00     0.000 HD 
HETATM   22  S   UNL     1     -12.302  12.751  65.104  1.00  0.00    -0.479 SA 
HETATM   23  N   UNL     1     -10.128  11.484  65.607  1.00  0.00    -0.226 NA 
ENDBRANCH  15  16
BRANCH  15  24
HETATM   24  N   UNL     1      -9.423  13.074  68.669  1.00  0.00    -0.406 NA 
HETATM   25  H   UNL     1      -9.558  13.203  69.673  1.00  0.00     0.000 HD 
BRANCH  24  26
HETATM   26  O   UNL     1      -8.912  14.060  67.823  1.00  0.00    -0.170 OA 
HETATM   27  O   UNL     1      -9.479  15.636  65.902  1.00  0.00    -0.330 OA 
HETATM   28  O   UNL     1      -9.619  17.504  67.141  1.00  0.00    -0.251 OA 
HETATM   29  C   UNL     1     -10.453  15.479  69.165  1.00  0.00    -0.232 C  
HETATM   30  C   UNL     1      -7.951  15.905  69.041  1.00  0.00    -0.222 C  
HETATM   31  C   UNL     1      -9.186  15.399  68.304  1.00  0.00    -0.188 C  
HETATM   32  C   UNL     1      -9.420  16.176  67.003  1.00  0.00    -0.222 C  
ENDBRANCH  24  26
ENDBRANCH  15  24
ENDBRANCH  13  15
ENDBRANCH   3  11
TORSDOF 5
ENDMDL
MODEL      110
REMARK 921   NORMALIZED FREE ENERGY PREDICTED BY IDOCK:   -5.44 KCAL/MOL
REMARK 922        TOTAL FREE ENERGY PREDICTED BY IDOCK:   -8.18 KCAL/MOL
REMARK 923 INTER-LIGAND FREE ENERGY PREDICTED BY IDOCK:   -7.55 KCAL/MOL
REMARK 924 INTRA-LIGAND FREE ENERGY PREDICTED BY IDOCK:   -0.63 KCAL/MOL
REMARK 927      BINDING AFFINITY PREDICTED BY RF-SCORE:    0.00 PKD
ROOT
HETATM    1  C   UNL     1     -10.341   5.535  69.745  1.00  0.00    -0.366 C  
HETATM    2  C   UNL     1     -10.311   6.860  70.473  1.00  0.00    -0.204 C  
HETATM    3  C   UNL     1     -11.513   7.803  70.146  1.00  0.00    -0.043 C  
HETATM    4  O   UNL     1      -9.389   5.045  72.756  1.00  0.00    -0.135 OA 
HETATM    5  C   UNL     1     -11.685   7.849  71.721  1.00  0.00    -0.287 C  
HETATM    6  N   UNL     1     -10.759   6.833  71.862  1.00  0.00    -0.221 N  
HETATM    7  O   UNL     1     -10.343   6.709  74.270  1.00  0.00    -0.361 OA 
HETATM    8  O   UNL     1     -11.810   5.064  73.153  1.00  0.00    -0.279 OA 
HETATM    9  O   UNL     1     -12.335   8.433  72.553  1.00  0.00    -0.376 OA 
HETATM   10  S   UNL     1     -10.567   5.822  73.139  1.00  0.00    -0.261 S  
ENDROOT
BRANCH   3  11
HETATM   11  N   UNL     1     -11.253   9.097  69.440  1.00  0.00    -0.441 N  
HETATM   12  O   UNL     1      -9.114   9.470  70.226  1.00  0.00    -0.225 OA 
HETATM   13  C   UNL     1     -10.041   9.762  69.482  1.00  0.00    -0.217 C  
HETATM   14  H   UNL     1     -12.012   9.511  68.898  1.00  0.00     0.000 HD 
BRANCH  13  15
HETATM   15  C   UNL     1      -9.868  10.966  68.561  1.00  0.00    -0.184 C  
BRANCH  15  16
HETATM   16  C   UNL     1      -9.644  10.748  67.123  1.00  0.00    -0.161 A  
HETATM   17  C   UNL     1      -9.943  11.104  64.962  1.00  0.00    -0.273 A  
HETATM   18  N   UNL     1     -10.531  11.728  63.853  1.00  0.00    -0.347 NA 
HETATM   19  H2  UNL     1     -10.841  10.986  63.226  1.00  0.00     0.000 HD 
HETATM   20  C   UNL     1      -8.682   9.896  66.595  1.00  0.00    -0.128 A  
HETATM   21  H1  UNL     1     -11.290  12.408  63.904  1.00  0.00     0.000 HD 
HETATM   22  S   UNL     1      -8.685   9.978  64.878  1.00  0.00    -0.198 SA 
HETATM   23  N   UNL     1     -10.389  11.418  66.146  1.00  0.00    -0.241 NA 
ENDBRANCH  15  16
BRANCH  15  24
HETATM   24  N   UNL     1      -9.913  12.211  68.946  1.00  0.00    -0.422 NA 
HETATM   25  H   UNL     1      -9.089  12.807  69.035  1.00  0.00     0.000 HD 
BRANCH  24  26
HETATM   26  O   UNL     1     -11.214  12.638  69.223  1.00  0.00    -0.243 OA 
HETATM   27  O   UNL     1     -12.738  13.590  71.029  1.00  0.00    -0.343 OA 
HETATM   28  O   UNL     1     -12.767  15.697  70.250  1.00  0.00    -0.385 OA 
HETATM   29  C   UNL     1     -10.064  14.842  69.326  1.00  0.00    -0.201 C  
HETATM   30  C   UNL     1     -11.957  14.355  67.703  1.00  0.00    -0.378 C  
HETATM   31  C   UNL     1     -11.367  14.072  69.080  1.00  0.00    -0.281 C  
HETATM   32  C   UNL     1     -12.363  14.410  70.196  1.00  0.00    -0.348 C  
ENDBRANCH  24  26
ENDBRANCH  15  24
ENDBRANCH  13  15
ENDBRANCH   3  11
TORSDOF 5
ENDMDL
MODEL      111
REMARK 921   NORMALIZED FREE ENERGY PREDICTED BY IDOCK:   -5.44 KCAL/MOL
REMARK 922        TOTAL FREE ENERGY PREDICTED BY IDOCK:   -8.18 KCAL/MOL
REMARK 923 INTER-LIGAND FREE ENERGY PREDICTED BY IDOCK:   -7.11 KCAL/MOL
REMARK 924 INTRA-LIGAND FREE ENERGY PREDICTED BY IDOCK:   -1.07 KCAL/MOL
REMARK 927      BINDING AFFINITY PREDICTED BY RF-SCORE:    0.00 PKD
ROOT
HETATM    1  C   UNL     1      -7.035  15.135  67.713  1.00  0.00    -0.190 C  
HETATM    2  C   UNL     1      -8.495  14.922  67.383  1.00  0.00    -0.195 C  
HETATM    3  C   UNL     1      -9.352  14.382  68.572  1.00  0.00    -0.204 C  
HETATM    4  O   UNL     1      -8.054  17.560  65.898  1.00  0.00    -0.536 OA 
HETATM    5  C   UNL     1     -10.282  15.624  68.242  1.00  0.00    -0.223 C  
HETATM    6  N   UNL     1      -9.327  16.122  67.376  1.00  0.00    -0.216 N  
HETATM    7  O   UNL     1     -10.438  17.980  66.238  1.00  0.00    -0.375 OA 
HETATM    8  O   UNL     1      -8.832  18.396  68.069  1.00  0.00    -0.274 OA 
HETATM    9  O   UNL     1     -11.353  16.076  68.566  1.00  0.00    -0.360 OA 
HETATM   10  S   UNL     1      -9.158  17.666  66.852  1.00  0.00    -0.260 S  
ENDROOT
BRANCH   3  11
HETATM   11  N   UNL     1      -9.958  13.018  68.474  1.00  0.00    -0.344 N  
HETATM   12  O   UNL     1      -8.033  11.785  68.797  1.00  0.00    -0.133 OA 
HETATM   13  C   UNL     1      -9.250  11.849  68.682  1.00  0.00    -0.061 C  
HETATM   14  H   UNL     1     -10.949  12.947  68.239  1.00  0.00     0.000 HD 
BRANCH  13  15
HETATM   15  C   UNL     1     -10.043  10.546  68.736  1.00  0.00    -0.191 C  
BRANCH  15  16
HETATM   16  C   UNL     1     -10.892  10.267  69.904  1.00  0.00    -0.302 A  
HETATM   17  C   UNL     1     -12.422  10.714  71.436  1.00  0.00    -0.390 A  
HETATM   18  N   UNL     1     -13.362  11.529  72.083  1.00  0.00    -0.562 NA 
HETATM   19  H2  UNL     1     -13.150  11.491  73.080  1.00  0.00     0.000 HD 
HETATM   20  C   UNL     1     -10.974   9.035  70.544  1.00  0.00    -0.252 A  
HETATM   21  H1  UNL     1     -13.538  12.507  71.856  1.00  0.00     0.000 HD 
HETATM   22  S   UNL     1     -12.131   9.093  71.812  1.00  0.00    -0.387 SA 
HETATM   23  N   UNL     1     -11.726  11.240  70.467  1.00  0.00    -0.310 NA 
ENDBRANCH  15  16
BRANCH  15  24
HETATM   24  N   UNL     1     -10.043   9.635  67.803  1.00  0.00    -0.175 NA 
HETATM   25  H   UNL     1     -10.699   9.625  67.021  1.00  0.00     0.000 HD 
BRANCH  24  26
HETATM   26  O   UNL     1      -9.046   8.676  67.993  1.00  0.00    -0.140 OA 
HETATM   27  O   UNL     1      -8.301   6.727  69.456  1.00  0.00    -0.129 OA 
HETATM   28  O   UNL     1      -8.871   5.099  68.017  1.00  0.00    -0.103 OA 
HETATM   29  C   UNL     1     -10.892   7.165  67.284  1.00  0.00    -0.382 C  
HETATM   30  C   UNL     1      -8.689   7.326  66.028  1.00  0.00    -0.168 C  
HETATM   31  C   UNL     1      -9.380   7.404  67.384  1.00  0.00    -0.132 C  
HETATM   32  C   UNL     1      -8.783   6.397  68.376  1.00  0.00    -0.113 C  
ENDBRANCH  24  26
ENDBRANCH  15  24
ENDBRANCH  13  15
ENDBRANCH   3  11
TORSDOF 5
ENDMDL
MODEL      112
REMARK 921   NORMALIZED FREE ENERGY PREDICTED BY IDOCK:   -5.44 KCAL/MOL
REMARK 922        TOTAL FREE ENERGY PREDICTED BY IDOCK:   -8.18 KCAL/MOL
REMARK 923 INTER-LIGAND FREE ENERGY PREDICTED BY IDOCK:   -7.16 KCAL/MOL
REMARK 924 INTRA-LIGAND FREE ENERGY PREDICTED BY IDOCK:   -1.01 KCAL/MOL
REMARK 927      BINDING AFFINITY PREDICTED BY RF-SCORE:    0.00 PKD
ROOT
HETATM    1  C   UNL     1      -6.551  17.297  66.359  1.00  0.00    -0.281 C  
HETATM    2  C   UNL     1      -7.998  16.867  66.289  1.00  0.00    -0.315 C  
HETATM    3  C   UNL     1      -8.351  15.644  67.193  1.00  0.00    -0.208 C  
HETATM    4  O   UNL     1      -8.405  19.899  66.289  1.00  0.00    -0.344 OA 
HETATM    5  C   UNL     1      -9.492  16.597  67.746  1.00  0.00    -0.227 C  
HETATM    6  N   UNL     1      -8.938  17.668  67.070  1.00  0.00    -0.244 N  
HETATM    7  O   UNL     1     -10.588  19.459  67.298  1.00  0.00    -0.432 OA 
HETATM    8  O   UNL     1      -8.548  19.431  68.693  1.00  0.00    -0.356 OA 
HETATM    9  O   UNL     1     -10.451  16.548  68.475  1.00  0.00    -0.266 OA 
HETATM   10  S   UNL     1      -9.149  19.264  67.377  1.00  0.00    -0.301 S  
ENDROOT
BRANCH   3  11
HETATM   11  N   UNL     1      -8.773  14.360  66.551  1.00  0.00    -0.460 N  
HETATM   12  O   UNL     1      -7.917  12.910  68.131  1.00  0.00    -0.135 OA 
HETATM   13  C   UNL     1      -8.589  13.118  67.129  1.00  0.00    -0.192 C  
HETATM   14  H   UNL     1      -9.222  14.404  65.635  1.00  0.00     0.000 HD 
BRANCH  13  15
HETATM   15  C   UNL     1      -9.241  11.920  66.445  1.00  0.00    -0.215 C  
BRANCH  15  16
HETATM   16  C   UNL     1     -10.469  12.118  65.659  1.00  0.00    -0.255 A  
HETATM   17  C   UNL     1     -12.415  13.041  65.162  1.00  0.00    -0.496 A  
HETATM   18  N   UNL     1     -13.488  13.919  65.372  1.00  0.00    -0.512 NA 
HETATM   19  H2  UNL     1     -14.342  13.365  65.302  1.00  0.00     0.000 HD 
HETATM   20  C   UNL     1     -10.742  11.490  64.450  1.00  0.00    -0.344 A  
HETATM   21  H1  UNL     1     -13.595  14.522  66.188  1.00  0.00     0.000 HD 
HETATM   22  S   UNL     1     -12.238  12.043  63.811  1.00  0.00    -0.482 SA 
HETATM   23  N   UNL     1     -11.480  12.996  66.069  1.00  0.00    -0.321 NA 
ENDBRANCH  15  16
BRANCH  15  24
HETATM   24  N   UNL     1      -8.785  10.699  66.487  1.00  0.00    -0.142 NA 
HETATM   25  H   UNL     1      -9.086  10.004  67.172  1.00  0.00     0.000 HD 
BRANCH  24  26
HETATM   26  O   UNL     1      -7.839  10.446  65.490  1.00  0.00    -0.148 OA 
HETATM   27  O   UNL     1      -5.343  10.307  64.994  1.00  0.00    -0.080 OA 
HETATM   28  O   UNL     1      -5.219   8.065  64.956  1.00  0.00    -0.032 OA 
HETATM   29  C   UNL     1      -7.461   8.424  66.889  1.00  0.00    -0.087 C  
HETATM   30  C   UNL     1      -8.157   8.296  64.449  1.00  0.00    -0.145 C  
HETATM   31  C   UNL     1      -7.377   9.074  65.502  1.00  0.00    -0.085 C  
HETATM   32  C   UNL     1      -5.901   9.219  65.111  1.00  0.00    -0.059 C  
ENDBRANCH  24  26
ENDBRANCH  15  24
ENDBRANCH  13  15
ENDBRANCH   3  11
TORSDOF 5
ENDMDL
MODEL      113
REMARK 921   NORMALIZED FREE ENERGY PREDICTED BY IDOCK:   -5.43 KCAL/MOL
REMARK 922        TOTAL FREE ENERGY PREDICTED BY IDOCK:   -8.16 KCAL/MOL
REMARK 923 INTER-LIGAND FREE ENERGY PREDICTED BY IDOCK:   -7.93 KCAL/MOL
REMARK 924 INTRA-LIGAND FREE ENERGY PREDICTED BY IDOCK:   -0.24 KCAL/MOL
REMARK 927      BINDING AFFINITY PREDICTED BY RF-SCORE:    0.00 PKD
ROOT
HETATM    1  C   UNL     1     -10.817  16.504  69.897  1.00  0.00    -0.285 C  
HETATM    2  C   UNL     1     -10.060  16.146  68.637  1.00  0.00    -0.231 C  
HETATM    3  C   UNL     1     -10.817  15.167  67.686  1.00  0.00    -0.295 C  
HETATM    4  O   UNL     1      -9.372  19.124  68.773  1.00  0.00    -0.361 OA 
HETATM    5  C   UNL     1     -10.526  16.276  66.591  1.00  0.00    -0.290 C  
HETATM    6  N   UNL     1     -10.089  17.145  67.572  1.00  0.00    -0.291 N  
HETATM    7  O   UNL     1      -9.128  19.028  66.343  1.00  0.00    -0.325 OA 
HETATM    8  O   UNL     1     -11.375  19.194  67.357  1.00  0.00    -0.136 OA 
HETATM    9  O   UNL     1     -10.635  16.436  65.400  1.00  0.00    -0.480 OA 
HETATM   10  S   UNL     1      -9.985  18.779  67.490  1.00  0.00    -0.357 S  
ENDROOT
BRANCH   3  11
HETATM   11  N   UNL     1     -10.258  13.799  67.452  1.00  0.00    -0.250 N  
HETATM   12  O   UNL     1     -12.138  12.580  68.011  1.00  0.00    -0.351 OA 
HETATM   13  C   UNL     1     -11.003  12.639  67.555  1.00  0.00    -0.246 C  
HETATM   14  H   UNL     1      -9.272  13.718  67.202  1.00  0.00     0.000 HD 
BRANCH  13  15
HETATM   15  C   UNL     1     -10.346  11.339  67.102  1.00  0.00    -0.209 C  
BRANCH  15  16
HETATM   16  C   UNL     1     -10.140  10.256  68.076  1.00  0.00    -0.162 A  
HETATM   17  C   UNL     1     -10.277   8.190  68.850  1.00  0.00    -0.210 A  
HETATM   18  N   UNL     1     -10.661   6.842  68.795  1.00  0.00    -0.280 NA 
HETATM   19  H2  UNL     1     -11.125   6.631  69.679  1.00  0.00     0.000 HD 
HETATM   20  C   UNL     1      -9.401  10.378  69.246  1.00  0.00    -0.187 A  
HETATM   21  H1  UNL     1     -11.232   6.430  68.057  1.00  0.00     0.000 HD 
HETATM   22  S   UNL     1      -9.332   8.873  70.073  1.00  0.00    -0.185 SA 
HETATM   23  N   UNL     1     -10.668   8.974  67.884  1.00  0.00    -0.186 NA 
ENDBRANCH  15  16
BRANCH  15  24
HETATM   24  N   UNL     1      -9.949  11.090  65.884  1.00  0.00    -0.230 NA 
HETATM   25  H   UNL     1      -8.972  10.951  65.624  1.00  0.00     0.000 HD 
BRANCH  24  26
HETATM   26  O   UNL     1     -11.009  11.036  64.976  1.00  0.00    -0.184 OA 
HETATM   27  O   UNL     1     -13.317  11.969  64.431  1.00  0.00    -0.657 OA 
HETATM   28  O   UNL     1     -12.652  13.338  62.779  1.00  0.00    -0.335 OA 
HETATM   29  C   UNL     1     -10.191  13.330  64.464  1.00  0.00    -0.332 C  
HETATM   30  C   UNL     1     -10.302  11.488  62.716  1.00  0.00     0.036 C  
HETATM   31  C   UNL     1     -10.931  12.079  63.973  1.00  0.00    -0.381 C  
HETATM   32  C   UNL     1     -12.407  12.431  63.748  1.00  0.00    -0.528 C  
ENDBRANCH  24  26
ENDBRANCH  15  24
ENDBRANCH  13  15
ENDBRANCH   3  11
TORSDOF 5
ENDMDL
MODEL      114
REMARK 921   NORMALIZED FREE ENERGY PREDICTED BY IDOCK:   -5.43 KCAL/MOL
REMARK 922        TOTAL FREE ENERGY PREDICTED BY IDOCK:   -8.16 KCAL/MOL
REMARK 923 INTER-LIGAND FREE ENERGY PREDICTED BY IDOCK:   -7.07 KCAL/MOL
REMARK 924 INTRA-LIGAND FREE ENERGY PREDICTED BY IDOCK:   -1.09 KCAL/MOL
REMARK 927      BINDING AFFINITY PREDICTED BY RF-SCORE:    0.00 PKD
ROOT
HETATM    1  C   UNL     1     -11.956  12.945  68.748  1.00  0.00    -0.290 C  
HETATM    2  C   UNL     1     -10.939  12.421  67.759  1.00  0.00    -0.228 C  
HETATM    3  C   UNL     1     -11.215  10.967  67.259  1.00  0.00    -0.258 C  
HETATM    4  O   UNL     1     -11.188  15.284  66.710  1.00  0.00    -0.317 OA 
HETATM    5  C   UNL     1     -11.094  11.622  65.820  1.00  0.00    -0.256 C  
HETATM    6  N   UNL     1     -11.092  12.884  66.383  1.00  0.00    -0.278 N  
HETATM    7  O   UNL     1     -10.546  14.384  64.530  1.00  0.00    -0.371 OA 
HETATM    8  O   UNL     1     -12.873  14.155  65.329  1.00  0.00    -0.670 OA 
HETATM    9  O   UNL     1     -11.056  11.285  64.662  1.00  0.00    -0.264 OA 
HETATM   10  S   UNL     1     -11.462  14.307  65.656  1.00  0.00    -0.336 S  
ENDROOT
BRANCH   3  11
HETATM   11  N   UNL     1     -10.249   9.880  67.608  1.00  0.00    -0.194 N  
HETATM   12  O   UNL     1     -10.995   9.460  69.753  1.00  0.00    -0.237 OA 
HETATM   13  C   UNL     1     -10.290   9.172  68.795  1.00  0.00    -0.214 C  
HETATM   14  H   UNL     1      -9.519   9.649  66.933  1.00  0.00     0.000 HD 
BRANCH  13  15
HETATM   15  C   UNL     1      -9.362   7.967  68.927  1.00  0.00    -0.150 C  
BRANCH  15  16
HETATM   16  C   UNL     1      -9.322   6.965  67.851  1.00  0.00    -0.118 A  
HETATM   17  C   UNL     1     -10.179   5.580  66.357  1.00  0.00    -0.201 A  
HETATM   18  N   UNL     1     -11.228   4.937  65.684  1.00  0.00    -0.929 NA 
HETATM   19  H2  UNL     1     -11.021   3.939  65.698  1.00  0.00     0.000 HD 
HETATM   20  C   UNL     1      -8.163   6.530  67.220  1.00  0.00    -0.113 A  
HETATM   21  H1  UNL     1     -12.216   5.036  65.918  1.00  0.00     0.000 HD 
HETATM   22  S   UNL     1      -8.542   5.416  65.968  1.00  0.00    -0.131 SA 
HETATM   23  N   UNL     1     -10.485   6.369  67.348  1.00  0.00    -0.214 NA 
ENDBRANCH  15  16
BRANCH  15  24
HETATM   24  N   UNL     1      -8.567   7.747  69.937  1.00  0.00    -0.136 NA 
HETATM   25  H   UNL     1      -7.668   8.214  70.064  1.00  0.00     0.000 HD 
BRANCH  24  26
HETATM   26  O   UNL     1      -9.082   6.801  70.827  1.00  0.00    -0.150 OA 
HETATM   27  O   UNL     1      -8.478   4.850  72.351  1.00  0.00    -0.117 OA 
HETATM   28  O   UNL     1      -8.627   5.986  74.284  1.00  0.00    -0.118 OA 
HETATM   29  C   UNL     1      -7.811   8.192  72.451  1.00  0.00    -0.169 C  
HETATM   30  C   UNL     1     -10.317   7.816  72.630  1.00  0.00    -0.352 C  
HETATM   31  C   UNL     1      -8.977   7.226  72.208  1.00  0.00    -0.131 C  
HETATM   32  C   UNL     1      -8.691   5.908  72.938  1.00  0.00    -0.124 C  
ENDBRANCH  24  26
ENDBRANCH  15  24
ENDBRANCH  13  15
ENDBRANCH   3  11
TORSDOF 5
ENDMDL
MODEL      115
REMARK 921   NORMALIZED FREE ENERGY PREDICTED BY IDOCK:   -5.42 KCAL/MOL
REMARK 922        TOTAL FREE ENERGY PREDICTED BY IDOCK:   -8.15 KCAL/MOL
REMARK 923 INTER-LIGAND FREE ENERGY PREDICTED BY IDOCK:   -6.98 KCAL/MOL
REMARK 924 INTRA-LIGAND FREE ENERGY PREDICTED BY IDOCK:   -1.17 KCAL/MOL
REMARK 927      BINDING AFFINITY PREDICTED BY RF-SCORE:    0.00 PKD
ROOT
HETATM    1  C   UNL     1      -8.444   5.837  68.920  1.00  0.00    -0.104 C  
HETATM    2  C   UNL     1      -9.225   6.405  67.757  1.00  0.00    -0.112 C  
HETATM    3  C   UNL     1      -9.026   7.938  67.533  1.00  0.00    -0.127 C  
HETATM    4  O   UNL     1      -8.322   3.775  66.482  1.00  0.00    -0.102 OA 
HETATM    5  C   UNL     1      -8.672   7.503  66.050  1.00  0.00    -0.158 C  
HETATM    6  N   UNL     1      -8.652   6.175  66.433  1.00  0.00    -0.126 N  
HETATM    7  O   UNL     1      -8.481   4.931  64.334  1.00  0.00    -0.127 OA 
HETATM    8  O   UNL     1      -6.501   5.260  65.776  1.00  0.00    -0.035 OA 
HETATM    9  O   UNL     1      -8.449   8.008  64.978  1.00  0.00    -0.143 OA 
HETATM   10  S   UNL     1      -7.915   4.924  65.673  1.00  0.00    -0.105 S  
ENDROOT
BRANCH   3  11
HETATM   11  N   UNL     1     -10.188   8.860  67.726  1.00  0.00    -0.214 N  
HETATM   12  O   UNL     1      -9.406   9.983  69.586  1.00  0.00    -0.213 OA 
HETATM   13  C   UNL     1     -10.225   9.854  68.686  1.00  0.00    -0.178 C  
HETATM   14  H   UNL     1     -10.998   8.748  67.116  1.00  0.00     0.000 HD 
BRANCH  13  15
HETATM   15  C   UNL     1     -11.393  10.836  68.637  1.00  0.00    -0.291 C  
BRANCH  15  16
HETATM   16  C   UNL     1     -12.138  11.134  69.869  1.00  0.00    -0.344 A  
HETATM   17  C   UNL     1     -13.281  10.651  71.698  1.00  0.00    -0.392 A  
HETATM   18  N   UNL     1     -13.898   9.784  72.612  1.00  0.00    -0.620 NA 
HETATM   19  H2  UNL     1     -14.844  10.136  72.761  1.00  0.00     0.000 HD 
HETATM   20  C   UNL     1     -12.283  12.403  70.416  1.00  0.00    -0.287 A  
HETATM   21  H1  UNL     1     -13.976   8.774  72.493  1.00  0.00     0.000 HD 
HETATM   22  S   UNL     1     -13.153  12.324  71.896  1.00  0.00    -0.251 SA 
HETATM   23  N   UNL     1     -12.760  10.131  70.623  1.00  0.00    -0.289 NA 
ENDBRANCH  15  16
BRANCH  15  24
HETATM   24  N   UNL     1     -11.795  11.462  67.565  1.00  0.00    -0.627 NA 
HETATM   25  H   UNL     1     -12.677  11.971  67.503  1.00  0.00     0.000 HD 
BRANCH  24  26
HETATM   26  O   UNL     1     -10.883  11.358  66.512  1.00  0.00    -0.271 OA 
HETATM   27  O   UNL     1     -10.640  10.832  64.030  1.00  0.00    -0.332 OA 
HETATM   28  O   UNL     1     -10.398  12.958  63.345  1.00  0.00    -0.227 OA 
HETATM   29  C   UNL     1     -12.111  13.383  65.749  1.00  0.00    -0.481 C  
HETATM   30  C   UNL     1      -9.610  13.381  66.199  1.00  0.00    -0.216 C  
HETATM   31  C   UNL     1     -10.810  12.571  65.723  1.00  0.00    -0.276 C  
HETATM   32  C   UNL     1     -10.592  12.028  64.304  1.00  0.00    -0.334 C  
ENDBRANCH  24  26
ENDBRANCH  15  24
ENDBRANCH  13  15
ENDBRANCH   3  11
TORSDOF 5
ENDMDL
MODEL      116
REMARK 921   NORMALIZED FREE ENERGY PREDICTED BY IDOCK:   -5.41 KCAL/MOL
REMARK 922        TOTAL FREE ENERGY PREDICTED BY IDOCK:   -8.14 KCAL/MOL
REMARK 923 INTER-LIGAND FREE ENERGY PREDICTED BY IDOCK:   -7.79 KCAL/MOL
REMARK 924 INTRA-LIGAND FREE ENERGY PREDICTED BY IDOCK:   -0.36 KCAL/MOL
REMARK 927      BINDING AFFINITY PREDICTED BY RF-SCORE:    0.00 PKD
ROOT
HETATM    1  C   UNL     1     -11.576  15.658  69.733  1.00  0.00    -0.360 C  
HETATM    2  C   UNL     1     -10.529  14.752  69.124  1.00  0.00    -0.239 C  
HETATM    3  C   UNL     1     -11.086  13.399  68.579  1.00  0.00    -0.270 C  
HETATM    4  O   UNL     1      -9.542  17.428  68.017  1.00  0.00    -0.262 OA 
HETATM    5  C   UNL     1     -10.343  13.827  67.244  1.00  0.00    -0.253 C  
HETATM    6  N   UNL     1     -10.112  15.086  67.765  1.00  0.00    -0.233 N  
HETATM    7  O   UNL     1      -8.597  16.145  66.163  1.00  0.00    -0.326 OA 
HETATM    8  O   UNL     1     -11.005  16.701  66.186  1.00  0.00    -0.084 OA 
HETATM    9  O   UNL     1     -10.070  13.368  66.163  1.00  0.00    -0.289 OA 
HETATM   10  S   UNL     1      -9.783  16.465  66.942  1.00  0.00    -0.262 S  
ENDROOT
BRANCH   3  11
HETATM   11  N   UNL     1     -10.660  12.121  69.229  1.00  0.00    -0.439 N  
HETATM   12  O   UNL     1     -11.740  10.658  67.805  1.00  0.00    -0.503 OA 
HETATM   13  C   UNL     1     -10.960  10.869  68.724  1.00  0.00    -0.237 C  
HETATM   14  H   UNL     1     -10.118  12.176  70.092  1.00  0.00     0.000 HD 
BRANCH  13  15
HETATM   15  C   UNL     1     -10.297   9.665  69.389  1.00  0.00    -0.213 C  
BRANCH  15  16
HETATM   16  C   UNL     1     -10.821   9.169  70.671  1.00  0.00    -0.264 A  
HETATM   17  C   UNL     1     -12.349   8.863  72.239  1.00  0.00    -0.360 A  
HETATM   18  N   UNL     1     -13.620   9.014  72.813  1.00  0.00    -0.845 NA 
HETATM   19  H2  UNL     1     -13.475   9.333  73.771  1.00  0.00     0.000 HD 
HETATM   20  C   UNL     1     -10.125   8.336  71.539  1.00  0.00    -0.208 A  
HETATM   21  H1  UNL     1     -14.370   9.584  72.422  1.00  0.00     0.000 HD 
HETATM   22  S   UNL     1     -11.106   7.918  72.886  1.00  0.00    -0.298 SA 
HETATM   23  N   UNL     1     -12.108   9.488  71.121  1.00  0.00    -0.327 NA 
ENDBRANCH  15  16
BRANCH  15  24
HETATM   24  N   UNL     1      -9.281   9.011  68.900  1.00  0.00    -0.139 NA 
HETATM   25  H   UNL     1      -8.458   9.460  68.497  1.00  0.00     0.000 HD 
BRANCH  24  26
HETATM   26  O   UNL     1      -9.444   7.626  68.988  1.00  0.00    -0.150 OA 
HETATM   27  O   UNL     1     -11.124   5.722  68.768  1.00  0.00    -0.243 OA 
HETATM   28  O   UNL     1     -10.414   4.990  66.766  1.00  0.00    -0.251 OA 
HETATM   29  C   UNL     1      -9.730   7.883  66.530  1.00  0.00    -0.279 C  
HETATM   30  C   UNL     1      -7.915   6.431  67.558  1.00  0.00    -0.116 C  
HETATM   31  C   UNL     1      -9.333   6.974  67.699  1.00  0.00    -0.122 C  
HETATM   32  C   UNL     1     -10.358   5.838  67.815  1.00  0.00    -0.213 C  
ENDBRANCH  24  26
ENDBRANCH  15  24
ENDBRANCH  13  15
ENDBRANCH   3  11
TORSDOF 5
ENDMDL
MODEL      117
REMARK 921   NORMALIZED FREE ENERGY PREDICTED BY IDOCK:   -5.38 KCAL/MOL
REMARK 922        TOTAL FREE ENERGY PREDICTED BY IDOCK:   -8.10 KCAL/MOL
REMARK 923 INTER-LIGAND FREE ENERGY PREDICTED BY IDOCK:   -6.92 KCAL/MOL
REMARK 924 INTRA-LIGAND FREE ENERGY PREDICTED BY IDOCK:   -1.18 KCAL/MOL
REMARK 927      BINDING AFFINITY PREDICTED BY RF-SCORE:    0.00 PKD
ROOT
HETATM    1  C   UNL     1      -6.611   8.868  71.275  1.00  0.00    -0.080 C  
HETATM    2  C   UNL     1      -8.122   8.821  71.308  1.00  0.00    -0.154 C  
HETATM    3  C   UNL     1      -8.808   9.202  69.957  1.00  0.00    -0.182 C  
HETATM    4  O   UNL     1      -7.536   6.302  72.941  1.00  0.00    -0.094 OA 
HETATM    5  C   UNL     1      -9.557   7.817  70.144  1.00  0.00    -0.168 C  
HETATM    6  N   UNL     1      -8.720   7.494  71.195  1.00  0.00    -0.135 N  
HETATM    7  O   UNL     1      -9.697   5.470  72.161  1.00  0.00    -0.155 OA 
HETATM    8  O   UNL     1      -7.715   5.342  70.691  1.00  0.00    -0.080 OA 
HETATM    9  O   UNL     1     -10.449   7.184  69.635  1.00  0.00    -0.215 OA 
HETATM   10  S   UNL     1      -8.394   6.003  71.795  1.00  0.00    -0.119 S  
ENDROOT
BRANCH   3  11
HETATM   11  N   UNL     1      -9.647  10.439  69.889  1.00  0.00    -0.411 N  
HETATM   12  O   UNL     1      -9.904  10.528  67.596  1.00  0.00    -0.162 OA 
HETATM   13  C   UNL     1     -10.186  10.934  68.716  1.00  0.00    -0.196 C  
HETATM   14  H   UNL     1      -9.830  10.945  70.756  1.00  0.00     0.000 HD 
BRANCH  13  15
HETATM   15  C   UNL     1     -11.175  12.091  68.830  1.00  0.00    -0.261 C  
BRANCH  15  16
HETATM   16  C   UNL     1     -12.028  12.196  70.023  1.00  0.00    -0.315 A  
HETATM   17  C   UNL     1     -13.211  11.431  71.727  1.00  0.00    -0.367 A  
HETATM   18  N   UNL     1     -13.765  10.424  72.530  1.00  0.00    -0.409 NA 
HETATM   19  H2  UNL     1     -14.757  10.642  72.636  1.00  0.00     0.000 HD 
HETATM   20  C   UNL     1     -12.372  13.390  70.645  1.00  0.00    -0.348 A  
HETATM   21  H1  UNL     1     -13.702   9.425  72.337  1.00  0.00     0.000 HD 
HETATM   22  S   UNL     1     -13.316  13.087  72.049  1.00  0.00    -0.439 SA 
HETATM   23  N   UNL     1     -12.559  11.067  70.659  1.00  0.00    -0.344 NA 
ENDBRANCH  15  16
BRANCH  15  24
HETATM   24  N   UNL     1     -11.326  13.031  67.939  1.00  0.00    -0.270 NA 
HETATM   25  H   UNL     1     -12.103  13.067  67.279  1.00  0.00     0.000 HD 
BRANCH  24  26
HETATM   26  O   UNL     1     -10.306  13.984  67.989  1.00  0.00    -0.231 OA 
HETATM   27  O   UNL     1      -8.245  14.874  66.784  1.00  0.00    -0.191 OA 
HETATM   28  O   UNL     1      -9.219  16.717  65.946  1.00  0.00    -0.486 OA 
HETATM   29  C   UNL     1     -11.574  14.891  66.050  1.00  0.00    -0.226 C  
HETATM   30  C   UNL     1     -11.160  16.231  68.169  1.00  0.00    -0.329 C  
HETATM   31  C   UNL     1     -10.619  15.170  67.218  1.00  0.00    -0.286 C  
HETATM   32  C   UNL     1      -9.249  15.569  66.655  1.00  0.00    -0.271 C  
ENDBRANCH  24  26
ENDBRANCH  15  24
ENDBRANCH  13  15
ENDBRANCH   3  11
TORSDOF 5
ENDMDL
MODEL      118
REMARK 921   NORMALIZED FREE ENERGY PREDICTED BY IDOCK:   -5.36 KCAL/MOL
REMARK 922        TOTAL FREE ENERGY PREDICTED BY IDOCK:   -8.08 KCAL/MOL
REMARK 923 INTER-LIGAND FREE ENERGY PREDICTED BY IDOCK:   -7.26 KCAL/MOL
REMARK 924 INTRA-LIGAND FREE ENERGY PREDICTED BY IDOCK:   -0.81 KCAL/MOL
REMARK 927      BINDING AFFINITY PREDICTED BY RF-SCORE:    0.00 PKD
ROOT
HETATM    1  C   UNL     1      -8.904   9.355  65.150  1.00  0.00    -0.233 C  
HETATM    2  C   UNL     1      -8.832   8.803  66.556  1.00  0.00    -0.131 C  
HETATM    3  C   UNL     1     -10.218   8.630  67.253  1.00  0.00    -0.268 C  
HETATM    4  O   UNL     1      -6.697   7.045  65.247  1.00  0.00    -0.049 OA 
HETATM    5  C   UNL     1      -9.717   7.145  67.500  1.00  0.00    -0.142 C  
HETATM    6  N   UNL     1      -8.638   7.360  66.664  1.00  0.00    -0.122 N  
HETATM    7  O   UNL     1      -7.232   5.379  66.953  1.00  0.00    -0.075 OA 
HETATM    8  O   UNL     1      -8.678   5.625  64.964  1.00  0.00    -0.141 OA 
HETATM    9  O   UNL     1     -10.057   6.153  68.095  1.00  0.00    -0.137 OA 
HETATM   10  S   UNL     1      -7.732   6.235  65.889  1.00  0.00    -0.097 S  
ENDROOT
BRANCH   3  11
HETATM   11  N   UNL     1     -10.540   9.461  68.454  1.00  0.00    -0.290 N  
HETATM   12  O   UNL     1     -11.842  11.054  67.407  1.00  0.00    -0.523 OA 
HETATM   13  C   UNL     1     -11.394  10.547  68.427  1.00  0.00    -0.262 C  
HETATM   14  H   UNL     1     -10.104   9.212  69.343  1.00  0.00     0.000 HD 
BRANCH  13  15
HETATM   15  C   UNL     1     -11.773  11.178  69.764  1.00  0.00    -0.345 C  
BRANCH  15  16
HETATM   16  C   UNL     1     -11.859  12.642  69.874  1.00  0.00    -0.294 A  
HETATM   17  C   UNL     1     -12.380  14.563  70.836  1.00  0.00    -0.345 A  
HETATM   18  N   UNL     1     -12.924  15.361  71.853  1.00  0.00    -0.382 NA 
HETATM   19  H2  UNL     1     -13.539  16.037  71.401  1.00  0.00     0.000 HD 
HETATM   20  C   UNL     1     -11.295  13.535  68.971  1.00  0.00    -0.288 A  
HETATM   21  H1  UNL     1     -13.425  15.004  72.666  1.00  0.00     0.000 HD 
HETATM   22  S   UNL     1     -11.548  15.154  69.489  1.00  0.00    -0.343 SA 
HETATM   23  N   UNL     1     -12.515  13.270  70.939  1.00  0.00    -0.366 NA 
ENDBRANCH  15  16
BRANCH  15  24
HETATM   24  N   UNL     1     -12.047  10.510  70.851  1.00  0.00    -0.351 NA 
HETATM   25  H   UNL     1     -12.842  10.715  71.457  1.00  0.00     0.000 HD 
BRANCH  24  26
HETATM   26  O   UNL     1     -11.130   9.485  71.094  1.00  0.00    -0.322 OA 
HETATM   27  O   UNL     1      -9.473   8.549  72.789  1.00  0.00    -0.257 OA 
HETATM   28  O   UNL     1     -10.768   6.856  73.499  1.00  0.00    -0.325 OA 
HETATM   29  C   UNL     1     -12.870   8.834  72.749  1.00  0.00    -0.160 C  
HETATM   30  C   UNL     1     -12.119   7.299  70.868  1.00  0.00    -0.326 C  
HETATM   31  C   UNL     1     -11.710   8.392  71.848  1.00  0.00    -0.334 C  
HETATM   32  C   UNL     1     -10.539   7.942  72.731  1.00  0.00    -0.353 C  
ENDBRANCH  24  26
ENDBRANCH  15  24
ENDBRANCH  13  15
ENDBRANCH   3  11
TORSDOF 5
ENDMDL
MODEL      119
REMARK 921   NORMALIZED FREE ENERGY PREDICTED BY IDOCK:   -5.35 KCAL/MOL
REMARK 922        TOTAL FREE ENERGY PREDICTED BY IDOCK:   -8.06 KCAL/MOL
REMARK 923 INTER-LIGAND FREE ENERGY PREDICTED BY IDOCK:   -7.33 KCAL/MOL
REMARK 924 INTRA-LIGAND FREE ENERGY PREDICTED BY IDOCK:   -0.73 KCAL/MOL
REMARK 927      BINDING AFFINITY PREDICTED BY RF-SCORE:    0.00 PKD
ROOT
HETATM    1  C   UNL     1     -11.063  16.267  69.331  1.00  0.00    -0.328 C  
HETATM    2  C   UNL     1     -10.196  15.586  68.297  1.00  0.00    -0.222 C  
HETATM    3  C   UNL     1     -10.950  14.552  67.402  1.00  0.00    -0.303 C  
HETATM    4  O   UNL     1      -9.076  18.423  68.060  1.00  0.00    -0.280 OA 
HETATM    5  C   UNL     1     -10.331  15.391  66.207  1.00  0.00    -0.294 C  
HETATM    6  N   UNL     1      -9.911  16.364  67.094  1.00  0.00    -0.244 N  
HETATM    7  O   UNL     1      -8.495  17.845  65.758  1.00  0.00    -0.513 OA 
HETATM    8  O   UNL     1     -10.813  18.485  66.329  1.00  0.00    -0.251 OA 
HETATM    9  O   UNL     1     -10.237  15.338  65.005  1.00  0.00    -0.365 OA 
HETATM   10  S   UNL     1      -9.541  17.927  66.765  1.00  0.00    -0.318 S  
ENDROOT
BRANCH   3  11
HETATM   11  N   UNL     1     -10.584  13.104  67.494  1.00  0.00    -0.233 N  
HETATM   12  O   UNL     1     -12.352  12.246  66.282  1.00  0.00    -0.556 OA 
HETATM   13  C   UNL     1     -11.278  12.097  66.849  1.00  0.00    -0.320 C  
HETATM   14  H   UNL     1      -9.778  12.846  68.064  1.00  0.00     0.000 HD 
BRANCH  13  15
HETATM   15  C   UNL     1     -10.675  10.696  66.881  1.00  0.00    -0.237 C  
BRANCH  15  16
HETATM   16  C   UNL     1      -9.571  10.364  65.968  1.00  0.00    -0.201 A  
HETATM   17  C   UNL     1      -8.651   9.829  64.030  1.00  0.00    -0.197 A  
HETATM   18  N   UNL     1      -8.675   9.514  62.663  1.00  0.00    -0.215 NA 
HETATM   19  H2  UNL     1      -8.127   8.662  62.547  1.00  0.00     0.000 HD 
HETATM   20  C   UNL     1      -8.224  10.401  66.311  1.00  0.00    -0.144 A  
HETATM   21  H1  UNL     1      -9.522   9.398  62.108  1.00  0.00     0.000 HD 
HETATM   22  S   UNL     1      -7.247  10.023  64.949  1.00  0.00    -0.138 SA 
HETATM   23  N   UNL     1      -9.794   9.995  64.636  1.00  0.00    -0.288 NA 
ENDBRANCH  15  16
BRANCH  15  24
HETATM   24  N   UNL     1     -11.057   9.739  67.681  1.00  0.00    -0.455 NA 
HETATM   25  H   UNL     1     -11.554   9.898  68.558  1.00  0.00     0.000 HD 
BRANCH  24  26
HETATM   26  O   UNL     1     -10.710   8.473  67.204  1.00  0.00    -0.280 OA 
HETATM   27  O   UNL     1      -8.834   7.094  66.167  1.00  0.00    -0.150 OA 
HETATM   28  O   UNL     1      -8.285   5.971  68.034  1.00  0.00    -0.111 OA 
HETATM   29  C   UNL     1      -9.272   8.516  69.234  1.00  0.00    -0.153 C  
HETATM   30  C   UNL     1     -11.056   6.747  68.851  1.00  0.00    -0.243 C  
HETATM   31  C   UNL     1     -10.032   7.672  68.203  1.00  0.00    -0.175 C  
HETATM   32  C   UNL     1      -9.019   6.884  67.362  1.00  0.00    -0.116 C  
ENDBRANCH  24  26
ENDBRANCH  15  24
ENDBRANCH  13  15
ENDBRANCH   3  11
TORSDOF 5
ENDMDL
MODEL      120
REMARK 921   NORMALIZED FREE ENERGY PREDICTED BY IDOCK:   -5.34 KCAL/MOL
REMARK 922        TOTAL FREE ENERGY PREDICTED BY IDOCK:   -8.05 KCAL/MOL
REMARK 923 INTER-LIGAND FREE ENERGY PREDICTED BY IDOCK:   -7.16 KCAL/MOL
REMARK 924 INTRA-LIGAND FREE ENERGY PREDICTED BY IDOCK:   -0.88 KCAL/MOL
REMARK 927      BINDING AFFINITY PREDICTED BY RF-SCORE:    0.00 PKD
ROOT
HETATM    1  C   UNL     1     -11.710  11.351  63.868  1.00  0.00    -0.077 C  
HETATM    2  C   UNL     1     -10.574  12.022  64.607  1.00  0.00    -0.307 C  
HETATM    3  C   UNL     1     -10.736  12.041  66.160  1.00  0.00    -0.275 C  
HETATM    4  O   UNL     1      -8.945  10.519  62.498  1.00  0.00    -0.216 OA 
HETATM    5  C   UNL     1      -9.288  11.394  66.148  1.00  0.00    -0.215 C  
HETATM    6  N   UNL     1      -9.366  11.220  64.779  1.00  0.00    -0.186 N  
HETATM    7  O   UNL     1      -7.116  10.525  64.119  1.00  0.00    -0.026 OA 
HETATM    8  O   UNL     1      -8.943   8.874  64.319  1.00  0.00    -0.071 OA 
HETATM    9  O   UNL     1      -8.416  11.091  66.924  1.00  0.00    -0.131 OA 
HETATM   10  S   UNL     1      -8.503  10.180  63.851  1.00  0.00    -0.192 S  
ENDROOT
BRANCH   3  11
HETATM   11  N   UNL     1     -10.903  13.352  66.860  1.00  0.00    -0.276 N  
HETATM   12  O   UNL     1     -10.464  12.630  69.009  1.00  0.00    -0.135 OA 
HETATM   13  C   UNL     1     -10.665  13.535  68.210  1.00  0.00    -0.258 C  
HETATM   14  H   UNL     1     -11.210  14.156  66.311  1.00  0.00     0.000 HD 
BRANCH  13  15
HETATM   15  C   UNL     1     -10.693  14.966  68.741  1.00  0.00    -0.252 C  
BRANCH  15  16
HETATM   16  C   UNL     1      -9.779  15.966  68.168  1.00  0.00    -0.212 A  
HETATM   17  C   UNL     1      -9.183  17.605  66.810  1.00  0.00    -0.271 A  
HETATM   18  N   UNL     1      -9.389  18.525  65.771  1.00  0.00    -0.352 NA 
HETATM   19  H2  UNL     1      -8.599  18.431  65.132  1.00  0.00     0.000 HD 
HETATM   20  C   UNL     1      -8.508  16.245  68.656  1.00  0.00    -0.221 A  
HETATM   21  H1  UNL     1     -10.229  18.572  65.195  1.00  0.00     0.000 HD 
HETATM   22  S   UNL     1      -7.791  17.527  67.764  1.00  0.00    -0.211 SA 
HETATM   23  N   UNL     1     -10.136  16.754  67.067  1.00  0.00    -0.270 NA 
ENDBRANCH  15  16
BRANCH  15  24
HETATM   24  N   UNL     1     -11.488  15.396  69.680  1.00  0.00    -0.295 NA 
HETATM   25  H   UNL     1     -11.380  16.298  70.146  1.00  0.00     0.000 HD 
BRANCH  24  26
HETATM   26  O   UNL     1     -12.503  14.485  69.980  1.00  0.00    -0.334 OA 
HETATM   27  O   UNL     1     -12.997  12.182  70.955  1.00  0.00    -0.217 OA 
HETATM   28  O   UNL     1     -13.774  12.908  72.934  1.00  0.00    -0.416 OA 
HETATM   29  C   UNL     1     -11.850  15.097  72.302  1.00  0.00    -0.493 C  
HETATM   30  C   UNL     1     -14.201  15.440  71.400  1.00  0.00    -0.519 C  
HETATM   31  C   UNL     1     -12.943  14.580  71.357  1.00  0.00    -0.333 C  
HETATM   32  C   UNL     1     -13.251  13.119  71.707  1.00  0.00    -0.403 C  
ENDBRANCH  24  26
ENDBRANCH  15  24
ENDBRANCH  13  15
ENDBRANCH   3  11
TORSDOF 5
ENDMDL
MODEL      121
REMARK 921   NORMALIZED FREE ENERGY PREDICTED BY IDOCK:   -5.33 KCAL/MOL
REMARK 922        TOTAL FREE ENERGY PREDICTED BY IDOCK:   -8.04 KCAL/MOL
REMARK 923 INTER-LIGAND FREE ENERGY PREDICTED BY IDOCK:   -6.44 KCAL/MOL
REMARK 924 INTRA-LIGAND FREE ENERGY PREDICTED BY IDOCK:   -1.59 KCAL/MOL
REMARK 927      BINDING AFFINITY PREDICTED BY RF-SCORE:    0.00 PKD
ROOT
HETATM    1  C   UNL     1      -9.725   4.154  67.848  1.00  0.00    -0.161 C  
HETATM    2  C   UNL     1      -9.997   5.340  66.950  1.00  0.00    -0.194 C  
HETATM    3  C   UNL     1      -9.365   6.680  67.443  1.00  0.00    -0.129 C  
HETATM    4  O   UNL     1      -9.479   3.226  64.800  1.00  0.00    -0.143 OA 
HETATM    5  C   UNL     1      -8.749   6.729  65.983  1.00  0.00    -0.146 C  
HETATM    6  N   UNL     1      -9.168   5.433  65.752  1.00  0.00    -0.156 N  
HETATM    7  O   UNL     1      -8.761   5.071  63.367  1.00  0.00    -0.136 OA 
HETATM    8  O   UNL     1      -7.222   4.150  65.068  1.00  0.00    -0.068 OA 
HETATM    9  O   UNL     1      -8.127   7.485  65.278  1.00  0.00    -0.120 OA 
HETATM   10  S   UNL     1      -8.594   4.378  64.635  1.00  0.00    -0.140 S  
ENDROOT
BRANCH   3  11
HETATM   11  N   UNL     1     -10.265   7.803  67.853  1.00  0.00    -0.195 N  
HETATM   12  O   UNL     1      -8.635   9.370  68.319  1.00  0.00    -0.120 OA 
HETATM   13  C   UNL     1      -9.812   9.070  68.170  1.00  0.00    -0.166 C  
HETATM   14  H   UNL     1     -11.268   7.623  67.902  1.00  0.00     0.000 HD 
BRANCH  13  15
HETATM   15  C   UNL     1     -10.860  10.159  68.382  1.00  0.00    -0.242 C  
BRANCH  15  16
HETATM   16  C   UNL     1     -11.116  11.133  67.311  1.00  0.00    -0.302 A  
HETATM   17  C   UNL     1     -11.896  13.008  66.438  1.00  0.00    -0.405 A  
HETATM   18  N   UNL     1     -12.575  14.235  66.477  1.00  0.00    -0.500 NA 
HETATM   19  H2  UNL     1     -13.240  14.230  65.703  1.00  0.00     0.000 HD 
HETATM   20  C   UNL     1     -10.613  11.036  66.019  1.00  0.00    -0.213 A  
HETATM   21  H1  UNL     1     -13.072  14.598  67.290  1.00  0.00     0.000 HD 
HETATM   22  S   UNL     1     -11.072  12.407  65.090  1.00  0.00    -0.319 SA 
HETATM   23  N   UNL     1     -11.890  12.281  67.519  1.00  0.00    -0.519 NA 
ENDBRANCH  15  16
BRANCH  15  24
HETATM   24  N   UNL     1     -11.580  10.299  69.460  1.00  0.00    -0.405 NA 
HETATM   25  H   UNL     1     -11.663  11.175  69.977  1.00  0.00     0.000 HD 
BRANCH  24  26
HETATM   26  O   UNL     1     -12.225   9.116  69.830  1.00  0.00     0.438 OA 
HETATM   27  O   UNL     1     -11.929   6.602  70.122  1.00  0.00    -0.367 OA 
HETATM   28  O   UNL     1     -11.798   6.622  72.365  1.00  0.00    -0.266 OA 
HETATM   29  C   UNL     1     -10.664   9.312  71.758  1.00  0.00    -0.324 C  
HETATM   30  C   UNL     1     -13.189   9.249  72.035  1.00  0.00    -0.519 C  
HETATM   31  C   UNL     1     -11.994   8.772  71.218  1.00  0.00    -0.301 C  
HETATM   32  C   UNL     1     -11.925   7.240  71.171  1.00  0.00    -0.328 C  
ENDBRANCH  24  26
ENDBRANCH  15  24
ENDBRANCH  13  15
ENDBRANCH   3  11
TORSDOF 5
ENDMDL
MODEL      122
REMARK 921   NORMALIZED FREE ENERGY PREDICTED BY IDOCK:   -5.33 KCAL/MOL
REMARK 922        TOTAL FREE ENERGY PREDICTED BY IDOCK:   -8.04 KCAL/MOL
REMARK 923 INTER-LIGAND FREE ENERGY PREDICTED BY IDOCK:   -6.82 KCAL/MOL
REMARK 924 INTRA-LIGAND FREE ENERGY PREDICTED BY IDOCK:   -1.22 KCAL/MOL
REMARK 927      BINDING AFFINITY PREDICTED BY RF-SCORE:    0.00 PKD
ROOT
HETATM    1  C   UNL     1     -10.914  14.840  68.873  1.00  0.00    -0.262 C  
HETATM    2  C   UNL     1     -10.381  13.593  68.205  1.00  0.00    -0.245 C  
HETATM    3  C   UNL     1     -11.004  12.261  68.731  1.00  0.00    -0.236 C  
HETATM    4  O   UNL     1     -10.592  15.396  65.743  1.00  0.00    -0.310 OA 
HETATM    5  C   UNL     1     -11.301  11.992  67.197  1.00  0.00    -0.333 C  
HETATM    6  N   UNL     1     -10.936  13.289  66.889  1.00  0.00    -0.280 N  
HETATM    7  O   UNL     1     -10.868  13.344  64.444  1.00  0.00    -0.384 OA 
HETATM    8  O   UNL     1     -12.785  14.298  65.679  1.00  0.00    -0.471 OA 
HETATM    9  O   UNL     1     -11.710  11.108  66.486  1.00  0.00    -0.234 OA 
HETATM   10  S   UNL     1     -11.341  14.154  65.556  1.00  0.00    -0.330 S  
ENDROOT
BRANCH   3  11
HETATM   11  N   UNL     1     -10.131  11.281  69.449  1.00  0.00    -0.434 N  
HETATM   12  O   UNL     1     -11.797   9.940  70.319  1.00  0.00    -0.249 OA 
HETATM   13  C   UNL     1     -10.613  10.163  70.104  1.00  0.00    -0.281 C  
HETATM   14  H   UNL     1      -9.124  11.448  69.457  1.00  0.00     0.000 HD 
BRANCH  13  15
HETATM   15  C   UNL     1      -9.590   9.158  70.625  1.00  0.00    -0.255 C  
BRANCH  15  16
HETATM   16  C   UNL     1      -9.969   8.238  71.708  1.00  0.00    -0.217 A  
HETATM   17  C   UNL     1     -11.166   6.653  72.679  1.00  0.00    -0.249 A  
HETATM   18  N   UNL     1     -12.209   5.718  72.745  1.00  0.00    -0.517 NA 
HETATM   19  H2  UNL     1     -12.693   5.877  73.628  1.00  0.00     0.000 HD 
HETATM   20  C   UNL     1      -9.251   8.068  72.886  1.00  0.00    -0.265 A  
HETATM   21  H1  UNL     1     -12.928   5.598  72.032  1.00  0.00     0.000 HD 
HETATM   22  S   UNL     1      -9.974   6.851  73.860  1.00  0.00    -0.344 SA 
HETATM   23  N   UNL     1     -11.102   7.420  71.627  1.00  0.00    -0.234 NA 
ENDBRANCH  15  16
BRANCH  15  24
HETATM   24  N   UNL     1      -8.374   9.031  70.172  1.00  0.00    -0.134 NA 
HETATM   25  H   UNL     1      -7.570   8.808  70.760  1.00  0.00     0.000 HD 
BRANCH  24  26
HETATM   26  O   UNL     1      -8.293   9.233  68.792  1.00  0.00    -0.114 OA 
HETATM   27  O   UNL     1      -8.078  11.001  66.969  1.00  0.00    -0.125 OA 
HETATM   28  O   UNL     1      -5.907  10.637  66.519  1.00  0.00    -0.062 OA 
HETATM   29  C   UNL     1      -5.970   9.882  69.404  1.00  0.00    -0.037 C  
HETATM   30  C   UNL     1      -6.489   7.991  67.787  1.00  0.00    -0.053 C  
HETATM   31  C   UNL     1      -6.925   9.347  68.329  1.00  0.00    -0.071 C  
HETATM   32  C   UNL     1      -7.042  10.386  67.207  1.00  0.00    -0.088 C  
ENDBRANCH  24  26
ENDBRANCH  15  24
ENDBRANCH  13  15
ENDBRANCH   3  11
TORSDOF 5
ENDMDL
MODEL      123
REMARK 921   NORMALIZED FREE ENERGY PREDICTED BY IDOCK:   -5.30 KCAL/MOL
REMARK 922        TOTAL FREE ENERGY PREDICTED BY IDOCK:   -8.00 KCAL/MOL
REMARK 923 INTER-LIGAND FREE ENERGY PREDICTED BY IDOCK:   -7.08 KCAL/MOL
REMARK 924 INTRA-LIGAND FREE ENERGY PREDICTED BY IDOCK:   -0.91 KCAL/MOL
REMARK 927      BINDING AFFINITY PREDICTED BY RF-SCORE:    0.00 PKD
ROOT
HETATM    1  C   UNL     1      -6.421  17.090  68.412  1.00  0.00    -0.155 C  
HETATM    2  C   UNL     1      -7.720  17.265  67.658  1.00  0.00    -0.184 C  
HETATM    3  C   UNL     1      -8.978  17.424  68.569  1.00  0.00    -0.276 C  
HETATM    4  O   UNL     1      -5.921  19.026  65.919  1.00  0.00    -0.161 OA 
HETATM    5  C   UNL     1      -9.227  18.732  67.706  1.00  0.00    -0.289 C  
HETATM    6  N   UNL     1      -7.975  18.604  67.134  1.00  0.00    -0.239 N  
HETATM    7  O   UNL     1      -7.944  20.271  65.344  1.00  0.00    -0.084 OA 
HETATM    8  O   UNL     1      -6.795  20.696  67.490  1.00  0.00    -0.291 OA 
HETATM    9  O   UNL     1     -10.071  19.580  67.553  1.00  0.00    -0.356 OA 
HETATM   10  S   UNL     1      -7.083  19.770  66.403  1.00  0.00    -0.250 S  
ENDROOT
BRANCH   3  11
HETATM   11  N   UNL     1     -10.036  16.367  68.543  1.00  0.00    -0.230 N  
HETATM   12  O   UNL     1      -8.913  14.757  69.761  1.00  0.00     0.116 OA 
HETATM   13  C   UNL     1      -9.932  15.164  69.218  1.00  0.00    -0.242 C  
HETATM   14  H   UNL     1     -10.879  16.542  67.996  1.00  0.00     0.000 HD 
BRANCH  13  15
HETATM   15  C   UNL     1     -11.168  14.269  69.253  1.00  0.00    -0.273 C  
BRANCH  15  16
HETATM   16  C   UNL     1     -12.134  14.416  70.352  1.00  0.00    -0.331 A  
HETATM   17  C   UNL     1     -13.454  13.714  71.980  1.00  0.00    -0.484 A  
HETATM   18  N   UNL     1     -14.057  12.738  72.788  1.00  0.00    -0.518 NA 
HETATM   19  H2  UNL     1     -15.059  12.931  72.786  1.00  0.00     0.000 HD 
HETATM   20  C   UNL     1     -12.566  15.633  70.866  1.00  0.00    -0.449 A  
HETATM   21  H1  UNL     1     -13.950  11.732  72.661  1.00  0.00     0.000 HD 
HETATM   22  S   UNL     1     -13.631  15.381  72.191  1.00  0.00    -0.536 SA 
HETATM   23  N   UNL     1     -12.694  13.309  71.002  1.00  0.00    -0.325 NA 
ENDBRANCH  15  16
BRANCH  15  24
HETATM   24  N   UNL     1     -11.458  13.364  68.360  1.00  0.00    -0.293 NA 
HETATM   25  H   UNL     1     -12.289  13.397  67.768  1.00  0.00     0.000 HD 
BRANCH  24  26
HETATM   26  O   UNL     1     -10.504  12.345  68.302  1.00  0.00    -0.212 OA 
HETATM   27  O   UNL     1     -10.147   9.831  68.518  1.00  0.00    -0.156 OA 
HETATM   28  O   UNL     1      -9.972   9.411  66.318  1.00  0.00    -0.261 OA 
HETATM   29  C   UNL     1     -11.789  11.775  66.249  1.00  0.00     0.027 C  
HETATM   30  C   UNL     1      -9.309  12.326  66.209  1.00  0.00    -0.206 C  
HETATM   31  C   UNL     1     -10.455  11.708  67.002  1.00  0.00    -0.224 C  
HETATM   32  C   UNL     1     -10.161  10.246  67.363  1.00  0.00    -0.202 C  
ENDBRANCH  24  26
ENDBRANCH  15  24
ENDBRANCH  13  15
ENDBRANCH   3  11
TORSDOF 5
ENDMDL
MODEL      124
REMARK 921   NORMALIZED FREE ENERGY PREDICTED BY IDOCK:   -5.29 KCAL/MOL
REMARK 922        TOTAL FREE ENERGY PREDICTED BY IDOCK:   -7.99 KCAL/MOL
REMARK 923 INTER-LIGAND FREE ENERGY PREDICTED BY IDOCK:   -7.00 KCAL/MOL
REMARK 924 INTRA-LIGAND FREE ENERGY PREDICTED BY IDOCK:   -0.99 KCAL/MOL
REMARK 927      BINDING AFFINITY PREDICTED BY RF-SCORE:    0.00 PKD
ROOT
HETATM    1  C   UNL     1      -8.548  13.634  67.096  1.00  0.00    -0.203 C  
HETATM    2  C   UNL     1      -9.435  12.411  67.152  1.00  0.00    -0.198 C  
HETATM    3  C   UNL     1      -9.913  12.027  68.588  1.00  0.00    -0.142 C  
HETATM    4  O   UNL     1     -10.585  13.713  64.634  1.00  0.00    -0.398 OA 
HETATM    5  C   UNL     1     -11.357  12.060  67.932  1.00  0.00    -0.305 C  
HETATM    6  N   UNL     1     -10.832  12.620  66.783  1.00  0.00    -0.246 N  
HETATM    7  O   UNL     1     -12.678  12.575  65.179  1.00  0.00    -0.659 OA 
HETATM    8  O   UNL     1     -12.064  14.667  66.344  1.00  0.00    -0.333 OA 
HETATM    9  O   UNL     1     -12.497  11.788  68.217  1.00  0.00    -0.201 OA 
HETATM   10  S   UNL     1     -11.628  13.474  65.631  1.00  0.00    -0.337 S  
ENDROOT
BRANCH   3  11
HETATM   11  N   UNL     1      -9.455  10.735  69.188  1.00  0.00    -0.342 N  
HETATM   12  O   UNL     1     -10.614   9.303  67.796  1.00  0.00    -0.254 OA 
HETATM   13  C   UNL     1      -9.785   9.494  68.676  1.00  0.00    -0.155 C  
HETATM   14  H   UNL     1      -8.868  10.772  70.022  1.00  0.00     0.000 HD 
BRANCH  13  15
HETATM   15  C   UNL     1      -9.089   8.277  69.279  1.00  0.00    -0.151 C  
BRANCH  15  16
HETATM   16  C   UNL     1      -8.173   7.482  68.447  1.00  0.00    -0.125 A  
HETATM   17  C   UNL     1      -7.318   5.629  67.598  1.00  0.00    -0.077 A  
HETATM   18  N   UNL     1      -7.215   4.239  67.444  1.00  0.00    -0.067 NA 
HETATM   19  H2  UNL     1      -6.230   4.001  67.561  1.00  0.00     0.000 HD 
HETATM   20  C   UNL     1      -7.260   8.018  67.546  1.00  0.00    -0.088 A  
HETATM   21  H1  UNL     1      -7.750   3.554  67.979  1.00  0.00     0.000 HD 
HETATM   22  S   UNL     1      -6.433   6.764  66.712  1.00  0.00    -0.044 SA 
HETATM   23  N   UNL     1      -8.163   6.083  68.480  1.00  0.00    -0.110 NA 
ENDBRANCH  15  16
BRANCH  15  24
HETATM   24  N   UNL     1      -9.231   7.873  70.511  1.00  0.00    -0.157 NA 
HETATM   25  H   UNL     1      -8.802   7.025  70.883  1.00  0.00     0.000 HD 
BRANCH  24  26
HETATM   26  O   UNL     1     -10.036   8.730  71.266  1.00  0.00    -0.213 OA 
HETATM   27  O   UNL     1     -12.023  10.322  71.169  1.00  0.00    -0.342 OA 
HETATM   28  O   UNL     1     -13.507   8.931  72.122  1.00  0.00    -0.385 OA 
HETATM   29  C   UNL     1     -11.710   6.947  70.809  1.00  0.00    -0.417 C  
HETATM   30  C   UNL     1     -11.028   7.621  73.162  1.00  0.00    -0.411 C  
HETATM   31  C   UNL     1     -11.248   8.086  71.727  1.00  0.00    -0.266 C  
HETATM   32  C   UNL     1     -12.273   9.225  71.659  1.00  0.00    -0.370 C  
ENDBRANCH  24  26
ENDBRANCH  15  24
ENDBRANCH  13  15
ENDBRANCH   3  11
TORSDOF 5
ENDMDL
MODEL      125
REMARK 921   NORMALIZED FREE ENERGY PREDICTED BY IDOCK:   -5.29 KCAL/MOL
REMARK 922        TOTAL FREE ENERGY PREDICTED BY IDOCK:   -7.98 KCAL/MOL
REMARK 923 INTER-LIGAND FREE ENERGY PREDICTED BY IDOCK:   -6.93 KCAL/MOL
REMARK 924 INTRA-LIGAND FREE ENERGY PREDICTED BY IDOCK:   -1.05 KCAL/MOL
REMARK 927      BINDING AFFINITY PREDICTED BY RF-SCORE:    0.00 PKD
ROOT
HETATM    1  C   UNL     1     -12.193  14.624  69.347  1.00  0.00    -0.270 C  
HETATM    2  C   UNL     1     -10.861  14.287  68.717  1.00  0.00    -0.253 C  
HETATM    3  C   UNL     1     -10.961  13.434  67.413  1.00  0.00    -0.272 C  
HETATM    4  O   UNL     1     -10.290  17.186  69.511  1.00  0.00    -0.250 OA 
HETATM    5  C   UNL     1     -10.061  14.583  66.794  1.00  0.00    -0.264 C  
HETATM    6  N   UNL     1     -10.243  15.350  67.929  1.00  0.00    -0.237 N  
HETATM    7  O   UNL     1      -8.694  17.225  67.659  1.00  0.00    -0.215 OA 
HETATM    8  O   UNL     1     -11.110  17.505  67.220  1.00  0.00    -0.099 OA 
HETATM    9  O   UNL     1      -9.459  14.826  65.777  1.00  0.00    -0.290 OA 
HETATM   10  S   UNL     1     -10.063  16.973  68.081  1.00  0.00    -0.327 S  
ENDROOT
BRANCH   3  11
HETATM   11  N   UNL     1     -10.409  12.043  67.408  1.00  0.00    -0.206 N  
HETATM   12  O   UNL     1     -12.123  11.010  68.559  1.00  0.00    -0.573 OA 
HETATM   13  C   UNL     1     -11.088  10.948  67.909  1.00  0.00    -0.302 C  
HETATM   14  H   UNL     1      -9.479  11.895  67.014  1.00  0.00     0.000 HD 
BRANCH  13  15
HETATM   15  C   UNL     1     -10.481   9.570  67.661  1.00  0.00    -0.263 C  
BRANCH  15  16
HETATM   16  C   UNL     1      -9.251   9.457  66.861  1.00  0.00    -0.140 A  
HETATM   17  C   UNL     1      -7.915   9.879  65.152  1.00  0.00    -0.139 A  
HETATM   18  N   UNL     1      -7.576  10.476  63.929  1.00  0.00    -0.345 NA 
HETATM   19  H2  UNL     1      -7.231   9.733  63.322  1.00  0.00     0.000 HD 
HETATM   20  C   UNL     1      -8.113   8.766  67.257  1.00  0.00    -0.101 A  
HETATM   21  H1  UNL     1      -8.208  11.046  63.366  1.00  0.00     0.000 HD 
HETATM   22  S   UNL     1      -6.869   8.935  66.084  1.00  0.00    -0.074 SA 
HETATM   23  N   UNL     1      -9.120  10.072  65.610  1.00  0.00    -0.171 NA 
ENDBRANCH  15  16
BRANCH  15  24
HETATM   24  N   UNL     1     -10.964   8.449  68.120  1.00  0.00    -0.449 NA 
HETATM   25  H   UNL     1     -11.458   7.767  67.543  1.00  0.00     0.000 HD 
BRANCH  24  26
HETATM   26  O   UNL     1     -10.733   8.287  69.487  1.00  0.00    -0.227 OA 
HETATM   27  O   UNL     1     -11.792   7.587  71.697  1.00  0.00    -0.270 OA 
HETATM   28  O   UNL     1     -10.810   5.569  71.819  1.00  0.00    -0.242 OA 
HETATM   29  C   UNL     1     -10.963   5.891  68.858  1.00  0.00    -0.337 C  
HETATM   30  C   UNL     1      -8.862   6.833  69.933  1.00  0.00    -0.141 C  
HETATM   31  C   UNL     1     -10.381   6.924  69.830  1.00  0.00    -0.205 C  
HETATM   32  C   UNL     1     -11.046   6.747  71.201  1.00  0.00    -0.270 C  
ENDBRANCH  24  26
ENDBRANCH  15  24
ENDBRANCH  13  15
ENDBRANCH   3  11
TORSDOF 5
ENDMDL
MODEL      126
REMARK 921   NORMALIZED FREE ENERGY PREDICTED BY IDOCK:   -5.29 KCAL/MOL
REMARK 922        TOTAL FREE ENERGY PREDICTED BY IDOCK:   -7.98 KCAL/MOL
REMARK 923 INTER-LIGAND FREE ENERGY PREDICTED BY IDOCK:   -7.31 KCAL/MOL
REMARK 924 INTRA-LIGAND FREE ENERGY PREDICTED BY IDOCK:   -0.67 KCAL/MOL
REMARK 927      BINDING AFFINITY PREDICTED BY RF-SCORE:    0.00 PKD
ROOT
HETATM    1  C   UNL     1     -12.453  10.794  71.402  1.00  0.00    -0.478 C  
HETATM    2  C   UNL     1     -11.792   9.918  70.361  1.00  0.00    -0.234 C  
HETATM    3  C   UNL     1     -10.304  10.283  70.061  1.00  0.00    -0.202 C  
HETATM    4  O   UNL     1     -13.356   7.765  71.870  1.00  0.00    -0.318 OA 
HETATM    5  C   UNL     1     -10.045   8.748  70.363  1.00  0.00    -0.192 C  
HETATM    6  N   UNL     1     -11.339   8.610  70.826  1.00  0.00    -0.263 N  
HETATM    7  O   UNL     1     -11.630   6.201  71.132  1.00  0.00    -0.300 OA 
HETATM    8  O   UNL     1     -11.216   7.681  73.067  1.00  0.00    -0.384 OA 
HETATM    9  O   UNL     1      -9.148   7.943  70.302  1.00  0.00    -0.150 OA 
HETATM   10  S   UNL     1     -11.929   7.446  71.819  1.00  0.00    -0.319 S  
ENDROOT
BRANCH   3  11
HETATM   11  N   UNL     1      -9.938  10.793  68.703  1.00  0.00    -0.174 N  
HETATM   12  O   UNL     1     -12.073  11.217  67.931  1.00  0.00    -0.634 OA 
HETATM   13  C   UNL     1     -10.858  11.293  67.800  1.00  0.00    -0.235 C  
HETATM   14  H   UNL     1      -8.956  10.771  68.428  1.00  0.00     0.000 HD 
BRANCH  13  15
HETATM   15  C   UNL     1     -10.315  11.951  66.534  1.00  0.00    -0.216 C  
BRANCH  15  16
HETATM   16  C   UNL     1      -9.814  11.106  65.439  1.00  0.00    -0.242 A  
HETATM   17  C   UNL     1      -9.030   9.255  64.521  1.00  0.00    -0.136 A  
HETATM   18  N   UNL     1      -8.590   7.924  64.538  1.00  0.00    -0.378 NA 
HETATM   19  H2  UNL     1      -7.690   7.903  64.057  1.00  0.00     0.000 HD 
HETATM   20  C   UNL     1      -9.779  11.486  64.103  1.00  0.00    -0.211 A  
HETATM   21  H1  UNL     1      -8.487   7.356  65.379  1.00  0.00     0.000 HD 
HETATM   22  S   UNL     1      -9.200  10.195  63.127  1.00  0.00    -0.294 SA 
HETATM   23  N   UNL     1      -9.339   9.808  65.660  1.00  0.00    -0.208 NA 
ENDBRANCH  15  16
BRANCH  15  24
HETATM   24  N   UNL     1     -10.264  13.238  66.328  1.00  0.00    -0.289 NA 
HETATM   25  H   UNL     1     -10.697  13.701  65.528  1.00  0.00     0.000 HD 
BRANCH  24  26
HETATM   26  O   UNL     1      -9.551  13.911  67.322  1.00  0.00    -0.230 OA 
HETATM   27  O   UNL     1      -8.223  16.022  67.847  1.00  0.00    -0.146 OA 
HETATM   28  O   UNL     1      -9.833  17.044  69.035  1.00  0.00    -0.265 OA 
HETATM   29  C   UNL     1     -11.512  15.435  67.168  1.00  0.00    -0.133 C  
HETATM   30  C   UNL     1     -10.859  14.249  69.318  1.00  0.00    -0.241 C  
HETATM   31  C   UNL     1     -10.364  14.883  68.023  1.00  0.00    -0.244 C  
HETATM   32  C   UNL     1      -9.364  16.013  68.300  1.00  0.00    -0.199 C  
ENDBRANCH  24  26
ENDBRANCH  15  24
ENDBRANCH  13  15
ENDBRANCH   3  11
TORSDOF 5
ENDMDL
MODEL      127
REMARK 921   NORMALIZED FREE ENERGY PREDICTED BY IDOCK:   -5.28 KCAL/MOL
REMARK 922        TOTAL FREE ENERGY PREDICTED BY IDOCK:   -7.97 KCAL/MOL
REMARK 923 INTER-LIGAND FREE ENERGY PREDICTED BY IDOCK:   -7.05 KCAL/MOL
REMARK 924 INTRA-LIGAND FREE ENERGY PREDICTED BY IDOCK:   -0.92 KCAL/MOL
REMARK 927      BINDING AFFINITY PREDICTED BY RF-SCORE:    0.00 PKD
ROOT
HETATM    1  C   UNL     1      -9.621   9.345  65.781  1.00  0.00    -0.340 C  
HETATM    2  C   UNL     1      -8.879  10.269  66.721  1.00  0.00    -0.133 C  
HETATM    3  C   UNL     1      -9.648  10.604  68.038  1.00  0.00    -0.157 C  
HETATM    4  O   UNL     1      -6.534   8.517  65.828  1.00  0.00    -0.052 OA 
HETATM    5  C   UNL     1      -8.313  10.117  68.741  1.00  0.00    -0.122 C  
HETATM    6  N   UNL     1      -7.836   9.647  67.532  1.00  0.00    -0.095 N  
HETATM    7  O   UNL     1      -5.506   9.053  67.979  1.00  0.00    -0.034 OA 
HETATM    8  O   UNL     1      -7.252   7.310  67.840  1.00  0.00    -0.085 OA 
HETATM    9  O   UNL     1      -7.822  10.075  69.842  1.00  0.00    -0.158 OA 
HETATM   10  S   UNL     1      -6.668   8.523  67.285  1.00  0.00    -0.063 S  
ENDROOT
BRANCH   3  11
HETATM   11  N   UNL     1     -10.088  12.012  68.287  1.00  0.00    -0.198 N  
HETATM   12  O   UNL     1     -12.367  11.638  68.318  1.00  0.00    -0.420 OA 
HETATM   13  C   UNL     1     -11.406  12.377  68.489  1.00  0.00    -0.293 C  
HETATM   14  H   UNL     1      -9.376  12.742  68.308  1.00  0.00     0.000 HD 
BRANCH  13  15
HETATM   15  C   UNL     1     -11.679  13.816  68.920  1.00  0.00    -0.336 C  
BRANCH  15  16
HETATM   16  C   UNL     1     -12.120  14.085  70.297  1.00  0.00    -0.355 A  
HETATM   17  C   UNL     1     -12.429  15.313  72.109  1.00  0.00    -0.357 A  
HETATM   18  N   UNL     1     -12.335  16.484  72.874  1.00  0.00    -0.348 NA 
HETATM   19  H2  UNL     1     -11.938  16.219  73.775  1.00  0.00     0.000 HD 
HETATM   20  C   UNL     1     -12.834  13.191  71.086  1.00  0.00    -0.264 A  
HETATM   21  H1  UNL     1     -11.853  17.334  72.579  1.00  0.00     0.000 HD 
HETATM   22  S   UNL     1     -13.228  13.906  72.598  1.00  0.00    -0.424 SA 
HETATM   23  N   UNL     1     -11.869  15.307  70.932  1.00  0.00    -0.309 NA 
ENDBRANCH  15  16
BRANCH  15  24
HETATM   24  N   UNL     1     -11.539  14.862  68.154  1.00  0.00    -0.328 NA 
HETATM   25  H   UNL     1     -11.388  15.807  68.507  1.00  0.00     0.000 HD 
BRANCH  24  26
HETATM   26  O   UNL     1     -11.619  14.545  66.796  1.00  0.00    -0.357 OA 
HETATM   27  O   UNL     1     -12.937  14.945  64.652  1.00  0.00    -0.325 OA 
HETATM   28  O   UNL     1     -11.458  16.347  63.706  1.00  0.00    -1.002 OA 
HETATM   29  C   UNL     1     -10.954  16.933  66.586  1.00  0.00     0.151 C  
HETATM   30  C   UNL     1      -9.573  15.032  65.619  1.00  0.00    -0.279 C  
HETATM   31  C   UNL     1     -10.972  15.533  65.959  1.00  0.00    -0.251 C  
HETATM   32  C   UNL     1     -11.874  15.557  64.718  1.00  0.00    -0.112 C  
ENDBRANCH  24  26
ENDBRANCH  15  24
ENDBRANCH  13  15
ENDBRANCH   3  11
TORSDOF 5
ENDMDL
MODEL      128
REMARK 921   NORMALIZED FREE ENERGY PREDICTED BY IDOCK:   -5.25 KCAL/MOL
REMARK 922        TOTAL FREE ENERGY PREDICTED BY IDOCK:   -7.93 KCAL/MOL
REMARK 923 INTER-LIGAND FREE ENERGY PREDICTED BY IDOCK:   -7.18 KCAL/MOL
REMARK 924 INTRA-LIGAND FREE ENERGY PREDICTED BY IDOCK:   -0.74 KCAL/MOL
REMARK 927      BINDING AFFINITY PREDICTED BY RF-SCORE:    0.00 PKD
ROOT
HETATM    1  C   UNL     1     -12.687  11.307  71.269  1.00  0.00    -0.510 C  
HETATM    2  C   UNL     1     -11.945  10.528  70.207  1.00  0.00    -0.325 C  
HETATM    3  C   UNL     1     -10.413  10.824  70.141  1.00  0.00     0.222 C  
HETATM    4  O   UNL     1     -13.802   8.312  71.209  1.00  0.00    -0.264 OA 
HETATM    5  C   UNL     1     -10.276   9.249  70.261  1.00  0.00    -0.227 C  
HETATM    6  N   UNL     1     -11.625   9.143  70.541  1.00  0.00    -0.238 N  
HETATM    7  O   UNL     1     -12.078   6.740  70.479  1.00  0.00    -0.386 OA 
HETATM    8  O   UNL     1     -11.841   7.928  72.633  1.00  0.00    -0.353 OA 
HETATM    9  O   UNL     1      -9.423   8.399  70.201  1.00  0.00    -0.162 OA 
HETATM   10  S   UNL     1     -12.399   7.905  71.288  1.00  0.00    -0.244 S  
ENDROOT
BRANCH   3  11
HETATM   11  N   UNL     1      -9.849  11.478  68.920  1.00  0.00    -0.384 N  
HETATM   12  O   UNL     1     -10.812  10.096  67.340  1.00  0.00    -0.278 OA 
HETATM   13  C   UNL     1     -10.175  11.100  67.630  1.00  0.00    -0.181 C  
HETATM   14  H   UNL     1      -9.187  12.244  69.045  1.00  0.00     0.000 HD 
BRANCH  13  15
HETATM   15  C   UNL     1      -9.669  11.981  66.491  1.00  0.00    -0.216 C  
BRANCH  15  16
HETATM   16  C   UNL     1     -10.566  12.990  65.907  1.00  0.00    -0.275 A  
HETATM   17  C   UNL     1     -11.086  14.936  64.997  1.00  0.00    -0.414 A  
HETATM   18  N   UNL     1     -10.805  16.226  64.524  1.00  0.00    -0.936 NA 
HETATM   19  H2  UNL     1     -11.486  16.853  64.952  1.00  0.00     0.000 HD 
HETATM   20  C   UNL     1     -11.911  12.783  65.625  1.00  0.00    -0.425 A  
HETATM   21  H1  UNL     1      -9.897  16.686  64.594  1.00  0.00     0.000 HD 
HETATM   22  S   UNL     1     -12.590  14.175  64.880  1.00  0.00    -0.263 SA 
HETATM   23  N   UNL     1     -10.117  14.270  65.559  1.00  0.00    -0.344 NA 
ENDBRANCH  15  16
BRANCH  15  24
HETATM   24  N   UNL     1      -8.471  11.923  65.980  1.00  0.00    -0.388 NA 
HETATM   25  H   UNL     1      -8.281  11.684  65.006  1.00  0.00     0.000 HD 
BRANCH  24  26
HETATM   26  O   UNL     1      -7.476  12.222  66.914  1.00  0.00    -0.100 OA 
HETATM   27  O   UNL     1      -6.855  12.111  69.383  1.00  0.00    -0.090 OA 
HETATM   28  O   UNL     1      -5.442  10.373  69.209  1.00  0.00    -0.038 OA 
HETATM   29  C   UNL     1      -7.316   9.740  66.977  1.00  0.00    -0.091 C  
HETATM   30  C   UNL     1      -5.356  11.229  66.344  1.00  0.00    -0.136 C  
HETATM   31  C   UNL     1      -6.617  11.089  67.189  1.00  0.00    -0.089 C  
HETATM   32  C   UNL     1      -6.312  11.261  68.682  1.00  0.00    -0.045 C  
ENDBRANCH  24  26
ENDBRANCH  15  24
ENDBRANCH  13  15
ENDBRANCH   3  11
TORSDOF 5
ENDMDL
MODEL      129
REMARK 921   NORMALIZED FREE ENERGY PREDICTED BY IDOCK:   -5.20 KCAL/MOL
REMARK 922        TOTAL FREE ENERGY PREDICTED BY IDOCK:   -7.86 KCAL/MOL
REMARK 923 INTER-LIGAND FREE ENERGY PREDICTED BY IDOCK:   -6.85 KCAL/MOL
REMARK 924 INTRA-LIGAND FREE ENERGY PREDICTED BY IDOCK:   -1.01 KCAL/MOL
REMARK 927      BINDING AFFINITY PREDICTED BY RF-SCORE:    0.00 PKD
ROOT
HETATM    1  C   UNL     1      -9.900  19.330  68.684  1.00  0.00    -0.500 C  
HETATM    2  C   UNL     1      -9.033  18.092  68.645  1.00  0.00    -0.275 C  
HETATM    3  C   UNL     1      -9.610  16.927  67.782  1.00  0.00    -0.249 C  
HETATM    4  O   UNL     1      -6.839  20.215  68.442  1.00  0.00    -0.293 OA 
HETATM    5  C   UNL     1      -8.191  16.972  67.077  1.00  0.00    -0.204 C  
HETATM    6  N   UNL     1      -7.888  18.146  67.740  1.00  0.00    -0.232 N  
HETATM    7  O   UNL     1      -5.519  18.528  67.266  1.00  0.00    -0.135 OA 
HETATM    8  O   UNL     1      -7.270  19.791  66.064  1.00  0.00    -0.260 OA 
HETATM    9  O   UNL     1      -7.551  16.347  66.268  1.00  0.00    -0.234 OA 
HETATM   10  S   UNL     1      -6.767  19.270  67.328  1.00  0.00    -0.192 S  
ENDROOT
BRANCH   3  11
HETATM   11  N   UNL     1     -10.009  15.650  68.453  1.00  0.00    -0.208 N  
HETATM   12  O   UNL     1     -11.634  14.989  66.952  1.00  0.00    -0.323 OA 
HETATM   13  C   UNL     1     -10.926  14.761  67.923  1.00  0.00    -0.278 C  
HETATM   14  H   UNL     1      -9.581  15.424  69.351  1.00  0.00     0.000 HD 
BRANCH  13  15
HETATM   15  C   UNL     1     -11.087  13.416  68.626  1.00  0.00    -0.263 C  
BRANCH  15  16
HETATM   16  C   UNL     1     -11.962  13.318  69.805  1.00  0.00    -0.324 A  
HETATM   17  C   UNL     1     -12.989  12.289  71.470  1.00  0.00    -0.289 A  
HETATM   18  N   UNL     1     -13.338  11.173  72.244  1.00  0.00    -0.552 NA 
HETATM   19  H2  UNL     1     -14.354  11.182  72.334  1.00  0.00     0.000 HD 
HETATM   20  C   UNL     1     -12.551  14.402  70.442  1.00  0.00    -0.345 A  
HETATM   21  H1  UNL     1     -13.069  10.212  72.032  1.00  0.00     0.000 HD 
HETATM   22  S   UNL     1     -13.433  13.881  71.822  1.00  0.00    -0.388 SA 
HETATM   23  N   UNL     1     -12.261  12.090  70.408  1.00  0.00    -0.325 NA 
ENDBRANCH  15  16
BRANCH  15  24
HETATM   24  N   UNL     1     -10.508  12.308  68.255  1.00  0.00    -0.220 NA 
HETATM   25  H   UNL     1     -10.896  11.671  67.559  1.00  0.00     0.000 HD 
BRANCH  24  26
HETATM   26  O   UNL     1      -9.297  12.090  68.917  1.00  0.00    -0.009 OA 
HETATM   27  O   UNL     1      -7.652  10.303  69.687  1.00  0.00    -0.136 OA 
HETATM   28  O   UNL     1      -6.117  10.667  68.088  1.00  0.00    -0.050 OA 
HETATM   29  C   UNL     1      -8.589  11.454  66.618  1.00  0.00    -0.170 C  
HETATM   30  C   UNL     1      -7.478  13.326  67.929  1.00  0.00    -0.143 C  
HETATM   31  C   UNL     1      -8.180  11.975  68.001  1.00  0.00    -0.156 C  
HETATM   32  C   UNL     1      -7.299  10.922  68.687  1.00  0.00    -0.101 C  
ENDBRANCH  24  26
ENDBRANCH  15  24
ENDBRANCH  13  15
ENDBRANCH   3  11
TORSDOF 5
ENDMDL
MODEL      130
REMARK 921   NORMALIZED FREE ENERGY PREDICTED BY IDOCK:   -5.19 KCAL/MOL
REMARK 922        TOTAL FREE ENERGY PREDICTED BY IDOCK:   -7.86 KCAL/MOL
REMARK 923 INTER-LIGAND FREE ENERGY PREDICTED BY IDOCK:   -6.25 KCAL/MOL
REMARK 924 INTRA-LIGAND FREE ENERGY PREDICTED BY IDOCK:   -1.61 KCAL/MOL
REMARK 927      BINDING AFFINITY PREDICTED BY RF-SCORE:    0.00 PKD
ROOT
HETATM    1  C   UNL     1      -7.659  13.993  68.595  1.00  0.00    -0.130 C  
HETATM    2  C   UNL     1      -8.453  13.319  67.499  1.00  0.00    -0.202 C  
HETATM    3  C   UNL     1      -9.547  12.328  68.010  1.00  0.00    -0.206 C  
HETATM    4  O   UNL     1      -8.297  16.133  66.308  1.00  0.00    -0.310 OA 
HETATM    5  C   UNL     1     -10.511  13.183  67.086  1.00  0.00    -0.247 C  
HETATM    6  N   UNL     1      -9.514  14.121  66.896  1.00  0.00    -0.257 N  
HETATM    7  O   UNL     1     -10.386  15.602  65.156  1.00  0.00    -0.383 OA 
HETATM    8  O   UNL     1     -10.419  16.283  67.531  1.00  0.00    -0.290 OA 
HETATM    9  O   UNL     1     -11.647  13.160  66.682  1.00  0.00    -0.321 OA 
HETATM   10  S   UNL     1      -9.684  15.683  66.427  1.00  0.00    -0.304 S  
ENDROOT
BRANCH   3  11
HETATM   11  N   UNL     1      -9.409  10.870  67.705  1.00  0.00    -0.155 N  
HETATM   12  O   UNL     1      -8.213  10.259  69.583  1.00  0.00    -0.167 OA 
HETATM   13  C   UNL     1      -8.827   9.960  68.568  1.00  0.00    -0.122 C  
HETATM   14  H   UNL     1      -9.764  10.529  66.811  1.00  0.00     0.000 HD 
BRANCH  13  15
HETATM   15  C   UNL     1      -8.931   8.481  68.204  1.00  0.00    -0.142 C  
BRANCH  15  16
HETATM   16  C   UNL     1      -9.676   7.571  69.087  1.00  0.00    -0.166 A  
HETATM   17  C   UNL     1     -11.409   6.894  70.281  1.00  0.00    -0.324 A  
HETATM   18  N   UNL     1     -12.698   7.014  70.819  1.00  0.00    -0.570 NA 
HETATM   19  H2  UNL     1     -12.620   6.828  71.819  1.00  0.00     0.000 HD 
HETATM   20  C   UNL     1      -9.231   6.316  69.485  1.00  0.00    -0.139 A  
HETATM   21  H1  UNL     1     -13.296   7.834  70.718  1.00  0.00     0.000 HD 
HETATM   22  S   UNL     1     -10.419   5.534  70.449  1.00  0.00    -0.277 SA 
HETATM   23  N   UNL     1     -10.940   7.897  69.594  1.00  0.00    -0.171 NA 
ENDBRANCH  15  16
BRANCH  15  24
HETATM   24  N   UNL     1      -8.409   7.938  67.140  1.00  0.00    -0.116 NA 
HETATM   25  H   UNL     1      -7.618   7.294  67.161  1.00  0.00     0.000 HD 
BRANCH  24  26
HETATM   26  O   UNL     1      -9.054   8.336  65.966  1.00  0.00    -0.179 OA 
HETATM   27  O   UNL     1      -9.966  10.340  64.683  1.00  0.00    -0.336 OA 
HETATM   28  O   UNL     1      -8.290  10.469  63.192  1.00  0.00    -0.163 OA 
HETATM   29  C   UNL     1      -6.818   9.336  65.525  1.00  0.00    -0.074 C  
HETATM   30  C   UNL     1      -7.881   7.614  63.988  1.00  0.00    -0.127 C  
HETATM   31  C   UNL     1      -8.123   8.774  64.946  1.00  0.00    -0.147 C  
HETATM   32  C   UNL     1      -8.894   9.912  64.264  1.00  0.00    -0.225 C  
ENDBRANCH  24  26
ENDBRANCH  15  24
ENDBRANCH  13  15
ENDBRANCH   3  11
TORSDOF 5
ENDMDL
MODEL      131
REMARK 921   NORMALIZED FREE ENERGY PREDICTED BY IDOCK:   -5.19 KCAL/MOL
REMARK 922        TOTAL FREE ENERGY PREDICTED BY IDOCK:   -7.85 KCAL/MOL
REMARK 923 INTER-LIGAND FREE ENERGY PREDICTED BY IDOCK:   -6.82 KCAL/MOL
REMARK 924 INTRA-LIGAND FREE ENERGY PREDICTED BY IDOCK:   -1.03 KCAL/MOL
REMARK 927      BINDING AFFINITY PREDICTED BY RF-SCORE:    0.00 PKD
ROOT
HETATM    1  C   UNL     1     -10.257   5.175  69.746  1.00  0.00    -0.357 C  
HETATM    2  C   UNL     1     -10.047   6.511  70.421  1.00  0.00    -0.184 C  
HETATM    3  C   UNL     1     -10.971   7.654  69.891  1.00  0.00    -0.200 C  
HETATM    4  O   UNL     1      -9.835   4.701  72.879  1.00  0.00    -0.137 OA 
HETATM    5  C   UNL     1     -11.337   7.837  71.423  1.00  0.00    -0.251 C  
HETATM    6  N   UNL     1     -10.671   6.666  71.733  1.00  0.00    -0.223 N  
HETATM    7  O   UNL     1     -10.612   6.620  74.178  1.00  0.00    -0.310 OA 
HETATM    8  O   UNL     1     -12.230   5.235  72.924  1.00  0.00    -0.118 OA 
HETATM    9  O   UNL     1     -11.955   8.593  72.131  1.00  0.00    -0.343 OA 
HETATM   10  S   UNL     1     -10.865   5.724  73.061  1.00  0.00    -0.283 S  
ENDROOT
BRANCH   3  11
HETATM   11  N   UNL     1     -10.355   8.819  69.182  1.00  0.00    -0.215 N  
HETATM   12  O   UNL     1     -12.166  10.249  69.280  1.00  0.00    -0.030 OA 
HETATM   13  C   UNL     1     -10.988  10.038  69.022  1.00  0.00    -0.212 C  
HETATM   14  H   UNL     1      -9.418   8.707  68.796  1.00  0.00     0.000 HD 
BRANCH  13  15
HETATM   15  C   UNL     1     -10.164  11.187  68.448  1.00  0.00    -0.188 C  
BRANCH  15  16
HETATM   16  C   UNL     1      -8.719  11.007  68.243  1.00  0.00    -0.144 A  
HETATM   17  C   UNL     1      -6.643  10.537  68.839  1.00  0.00    -0.054 A  
HETATM   18  N   UNL     1      -5.639  10.181  69.752  1.00  0.00    -0.037 NA 
HETATM   19  H2  UNL     1      -4.883  10.856  69.638  1.00  0.00     0.000 HD 
HETATM   20  C   UNL     1      -8.083  11.074  67.009  1.00  0.00    -0.136 A  
HETATM   21  H1  UNL     1      -5.781  10.063  70.755  1.00  0.00     0.000 HD 
HETATM   22  S   UNL     1      -6.407  10.731  67.177  1.00  0.00    -0.079 SA 
HETATM   23  N   UNL     1      -7.847  10.723  69.301  1.00  0.00    -0.143 NA 
ENDBRANCH  15  16
BRANCH  15  24
HETATM   24  N   UNL     1     -10.645  12.349  68.103  1.00  0.00    -0.209 NA 
HETATM   25  H   UNL     1     -10.732  13.140  68.743  1.00  0.00     0.000 HD 
BRANCH  24  26
HETATM   26  O   UNL     1     -11.031  12.391  66.761  1.00  0.00    -0.245 OA 
HETATM   27  O   UNL     1     -13.028  12.349  65.179  1.00  0.00    -0.607 OA 
HETATM   28  O   UNL     1     -13.024  14.546  64.709  1.00  0.00    -0.562 OA 
HETATM   29  C   UNL     1     -11.908  14.608  67.474  1.00  0.00    -0.375 C  
HETATM   30  C   UNL     1     -10.184  14.341  65.626  1.00  0.00    -0.366 C  
HETATM   31  C   UNL     1     -11.388  13.727  66.331  1.00  0.00    -0.317 C  
HETATM   32  C   UNL     1     -12.536  13.461  65.348  1.00  0.00    -0.494 C  
ENDBRANCH  24  26
ENDBRANCH  15  24
ENDBRANCH  13  15
ENDBRANCH   3  11
TORSDOF 5
ENDMDL
MODEL      132
REMARK 921   NORMALIZED FREE ENERGY PREDICTED BY IDOCK:   -5.16 KCAL/MOL
REMARK 922        TOTAL FREE ENERGY PREDICTED BY IDOCK:   -7.82 KCAL/MOL
REMARK 923 INTER-LIGAND FREE ENERGY PREDICTED BY IDOCK:   -7.10 KCAL/MOL
REMARK 924 INTRA-LIGAND FREE ENERGY PREDICTED BY IDOCK:   -0.72 KCAL/MOL
REMARK 927      BINDING AFFINITY PREDICTED BY RF-SCORE:    0.00 PKD
ROOT
HETATM    1  C   UNL     1      -7.137   7.699  68.220  1.00  0.00    -0.080 C  
HETATM    2  C   UNL     1      -8.123   8.213  69.245  1.00  0.00    -0.117 C  
HETATM    3  C   UNL     1      -9.463   8.741  68.642  1.00  0.00    -0.141 C  
HETATM    4  O   UNL     1      -7.110   5.753  70.755  1.00  0.00    -0.065 OA 
HETATM    5  C   UNL     1     -10.126   7.741  69.679  1.00  0.00    -0.196 C  
HETATM    6  N   UNL     1      -8.888   7.194  69.958  1.00  0.00    -0.142 N  
HETATM    7  O   UNL     1      -9.281   5.730  71.878  1.00  0.00    -0.145 OA 
HETATM    8  O   UNL     1      -9.052   4.798  69.600  1.00  0.00    -0.102 OA 
HETATM    9  O   UNL     1     -11.219   7.451  70.100  1.00  0.00    -0.266 OA 
HETATM   10  S   UNL     1      -8.565   5.725  70.612  1.00  0.00    -0.133 S  
ENDROOT
BRANCH   3  11
HETATM   11  N   UNL     1      -9.799  10.193  68.769  1.00  0.00    -0.168 N  
HETATM   12  O   UNL     1     -11.519  10.264  67.231  1.00  0.00    -0.249 OA 
HETATM   13  C   UNL     1     -10.855  10.795  68.111  1.00  0.00    -0.236 C  
HETATM   14  H   UNL     1      -9.215  10.771  69.375  1.00  0.00     0.000 HD 
BRANCH  13  15
HETATM   15  C   UNL     1     -11.188  12.236  68.488  1.00  0.00    -0.271 C  
BRANCH  15  16
HETATM   16  C   UNL     1     -11.897  12.507  69.748  1.00  0.00    -0.310 A  
HETATM   17  C   UNL     1     -12.777  13.774  71.332  1.00  0.00    -0.367 A  
HETATM   18  N   UNL     1     -13.088  14.995  71.946  1.00  0.00    -0.325 NA 
HETATM   19  H2  UNL     1     -12.790  14.921  72.919  1.00  0.00     0.000 HD 
HETATM   20  C   UNL     1     -12.494  11.536  70.542  1.00  0.00    -0.280 A  
HETATM   21  H1  UNL     1     -12.782  15.909  71.613  1.00  0.00     0.000 HD 
HETATM   22  S   UNL     1     -13.285  12.260  71.884  1.00  0.00    -0.244 SA 
HETATM   23  N   UNL     1     -12.050  13.805  70.250  1.00  0.00    -0.339 NA 
ENDBRANCH  15  16
BRANCH  15  24
HETATM   24  N   UNL     1     -10.880  13.283  67.774  1.00  0.00    -0.247 NA 
HETATM   25  H   UNL     1     -10.957  14.243  68.112  1.00  0.00     0.000 HD 
BRANCH  24  26
HETATM   26  O   UNL     1     -10.434  12.945  66.494  1.00  0.00    -0.259 OA 
HETATM   27  O   UNL     1     -10.793  11.364  64.528  1.00  0.00    -0.325 OA 
HETATM   28  O   UNL     1     -11.848  12.842  63.205  1.00  0.00    -0.525 OA 
HETATM   29  C   UNL     1     -12.659  13.874  65.882  1.00  0.00    -0.498 C  
HETATM   30  C   UNL     1     -10.480  14.821  64.982  1.00  0.00    -0.443 C  
HETATM   31  C   UNL     1     -11.218  13.573  65.451  1.00  0.00    -0.289 C  
HETATM   32  C   UNL     1     -11.242  12.494  64.361  1.00  0.00    -0.339 C  
ENDBRANCH  24  26
ENDBRANCH  15  24
ENDBRANCH  13  15
ENDBRANCH   3  11
TORSDOF 5
ENDMDL
MODEL      133
REMARK 921   NORMALIZED FREE ENERGY PREDICTED BY IDOCK:   -5.15 KCAL/MOL
REMARK 922        TOTAL FREE ENERGY PREDICTED BY IDOCK:   -7.80 KCAL/MOL
REMARK 923 INTER-LIGAND FREE ENERGY PREDICTED BY IDOCK:   -6.86 KCAL/MOL
REMARK 924 INTRA-LIGAND FREE ENERGY PREDICTED BY IDOCK:   -0.95 KCAL/MOL
REMARK 927      BINDING AFFINITY PREDICTED BY RF-SCORE:    0.00 PKD
ROOT
HETATM    1  C   UNL     1     -12.015  13.454  68.925  1.00  0.00    -0.362 C  
HETATM    2  C   UNL     1     -10.980  12.793  68.043  1.00  0.00    -0.239 C  
HETATM    3  C   UNL     1     -11.262  11.288  67.735  1.00  0.00    -0.291 C  
HETATM    4  O   UNL     1     -11.166  15.491  66.612  1.00  0.00    -0.252 OA 
HETATM    5  C   UNL     1     -11.097  11.742  66.224  1.00  0.00    -0.311 C  
HETATM    6  N   UNL     1     -11.093  13.069  66.613  1.00  0.00    -0.282 N  
HETATM    7  O   UNL     1     -10.480  14.301  64.591  1.00  0.00    -0.425 OA 
HETATM    8  O   UNL     1     -12.830  14.203  65.351  1.00  0.00    -0.637 OA 
HETATM    9  O   UNL     1     -11.033  11.252  65.124  1.00  0.00    -0.241 OA 
HETATM   10  S   UNL     1     -11.426  14.384  65.692  1.00  0.00    -0.341 S  
ENDROOT
BRANCH   3  11
HETATM   11  N   UNL     1     -10.319  10.249  68.252  1.00  0.00    -0.172 N  
HETATM   12  O   UNL     1     -10.983  10.281  70.464  1.00  0.00    -0.307 OA 
HETATM   13  C   UNL     1     -10.331   9.785  69.555  1.00  0.00    -0.230 C  
HETATM   14  H   UNL     1      -9.628   9.862  67.609  1.00  0.00     0.000 HD 
BRANCH  13  15
HETATM   15  C   UNL     1      -9.440   8.590  69.884  1.00  0.00    -0.163 C  
BRANCH  15  16
HETATM   16  C   UNL     1      -7.989   8.789  70.022  1.00  0.00    -0.108 A  
HETATM   17  C   UNL     1      -6.140   9.523  70.986  1.00  0.00    -0.080 A  
HETATM   18  N   UNL     1      -5.413  10.203  71.974  1.00  0.00    -0.285 NA 
HETATM   19  H2  UNL     1      -4.767  10.826  71.489  1.00  0.00     0.000 HD 
HETATM   20  C   UNL     1      -7.031   8.220  69.192  1.00  0.00    -0.063 A  
HETATM   21  H1  UNL     1      -5.828  10.742  72.733  1.00  0.00     0.000 HD 
HETATM   22  S   UNL     1      -5.451   8.629  69.728  1.00  0.00    -0.029 SA 
HETATM   23  N   UNL     1      -7.441   9.573  71.045  1.00  0.00    -0.327 NA 
ENDBRANCH  15  16
BRANCH  15  24
HETATM   24  N   UNL     1      -9.866   7.372  70.070  1.00  0.00    -0.179 NA 
HETATM   25  H   UNL     1      -9.640   6.592  69.452  1.00  0.00     0.000 HD 
BRANCH  24  26
HETATM   26  O   UNL     1     -10.666   7.253  71.209  1.00  0.00    -0.224 OA 
HETATM   27  O   UNL     1     -12.498   5.870  72.316  1.00  0.00    -0.150 OA 
HETATM   28  O   UNL     1     -11.163   4.806  73.776  1.00  0.00    -0.298 OA 
HETATM   29  C   UNL     1      -9.237   5.243  71.542  1.00  0.00    -0.173 C  
HETATM   30  C   UNL     1      -9.365   7.134  73.234  1.00  0.00    -0.205 C  
HETATM   31  C   UNL     1     -10.114   6.329  72.178  1.00  0.00    -0.182 C  
HETATM   32  C   UNL     1     -11.371   5.673  72.762  1.00  0.00    -0.299 C  
ENDBRANCH  24  26
ENDBRANCH  15  24
ENDBRANCH  13  15
ENDBRANCH   3  11
TORSDOF 5
ENDMDL
MODEL      134
REMARK 921   NORMALIZED FREE ENERGY PREDICTED BY IDOCK:   -5.15 KCAL/MOL
REMARK 922        TOTAL FREE ENERGY PREDICTED BY IDOCK:   -7.80 KCAL/MOL
REMARK 923 INTER-LIGAND FREE ENERGY PREDICTED BY IDOCK:   -6.85 KCAL/MOL
REMARK 924 INTRA-LIGAND FREE ENERGY PREDICTED BY IDOCK:   -0.95 KCAL/MOL
REMARK 927      BINDING AFFINITY PREDICTED BY RF-SCORE:    0.00 PKD
ROOT
HETATM    1  C   UNL     1      -7.656   9.689  69.330  1.00  0.00    -0.091 C  
HETATM    2  C   UNL     1      -8.253   9.832  67.948  1.00  0.00    -0.113 C  
HETATM    3  C   UNL     1      -7.472  10.801  67.005  1.00  0.00    -0.114 C  
HETATM    4  O   UNL     1      -8.632   6.819  68.319  1.00  0.00    -0.124 OA 
HETATM    5  C   UNL     1      -7.478   9.565  66.010  1.00  0.00    -0.100 C  
HETATM    6  N   UNL     1      -7.961   8.747  67.014  1.00  0.00    -0.095 N  
HETATM    7  O   UNL     1      -8.525   6.653  65.883  1.00  0.00    -0.135 OA 
HETATM    8  O   UNL     1      -6.447   6.858  67.205  1.00  0.00    -0.045 OA 
HETATM    9  O   UNL     1      -7.179   9.307  64.871  1.00  0.00    -0.098 OA 
HETATM   10  S   UNL     1      -7.877   7.112  67.101  1.00  0.00    -0.111 S  
ENDROOT
BRANCH   3  11
HETATM   11  N   UNL     1      -8.133  12.062  66.546  1.00  0.00    -0.388 N  
HETATM   12  O   UNL     1      -8.063  13.210  68.548  1.00  0.00    -0.144 OA 
HETATM   13  C   UNL     1      -8.286  13.180  67.345  1.00  0.00    -0.188 C  
HETATM   14  H   UNL     1      -8.490  12.099  65.591  1.00  0.00     0.000 HD 
BRANCH  13  15
HETATM   15  C   UNL     1      -8.806  14.452  66.682  1.00  0.00    -0.159 C  
BRANCH  15  16
HETATM   16  C   UNL     1     -10.172  14.477  66.138  1.00  0.00    -0.305 A  
HETATM   17  C   UNL     1     -11.767  15.062  64.724  1.00  0.00    -0.370 A  
HETATM   18  N   UNL     1     -12.283  15.741  63.611  1.00  0.00    -1.001 NA 
HETATM   19  H2  UNL     1     -13.126  16.223  63.923  1.00  0.00     0.000 HD 
HETATM   20  C   UNL     1     -11.225  13.706  66.616  1.00  0.00    -0.313 A  
HETATM   21  H1  UNL     1     -11.759  16.405  63.040  1.00  0.00     0.000 HD 
HETATM   22  S   UNL     1     -12.636  13.962  65.668  1.00  0.00    -0.471 SA 
HETATM   23  N   UNL     1     -10.525  15.285  65.051  1.00  0.00    -0.404 NA 
ENDBRANCH  15  16
BRANCH  15  24
HETATM   24  N   UNL     1      -8.127  15.559  66.560  1.00  0.00    -0.334 NA 
HETATM   25  H   UNL     1      -7.599  15.812  65.723  1.00  0.00     0.000 HD 
BRANCH  24  26
HETATM   26  O   UNL     1      -8.200  16.360  67.702  1.00  0.00    -0.151 OA 
HETATM   27  O   UNL     1      -6.829  17.687  69.391  1.00  0.00    -0.232 OA 
HETATM   28  O   UNL     1      -7.310  19.720  68.566  1.00  0.00    -0.317 OA 
HETATM   29  C   UNL     1      -7.483  18.096  66.071  1.00  0.00    -0.264 C  
HETATM   30  C   UNL     1      -9.646  18.264  67.394  1.00  0.00    -0.284 C  
HETATM   31  C   UNL     1      -8.202  17.774  67.386  1.00  0.00    -0.214 C  
HETATM   32  C   UNL     1      -7.402  18.373  68.550  1.00  0.00    -0.287 C  
ENDBRANCH  24  26
ENDBRANCH  15  24
ENDBRANCH  13  15
ENDBRANCH   3  11
TORSDOF 5
ENDMDL
MODEL      135
REMARK 921   NORMALIZED FREE ENERGY PREDICTED BY IDOCK:   -5.14 KCAL/MOL
REMARK 922        TOTAL FREE ENERGY PREDICTED BY IDOCK:   -7.79 KCAL/MOL
REMARK 923 INTER-LIGAND FREE ENERGY PREDICTED BY IDOCK:   -6.71 KCAL/MOL
REMARK 924 INTRA-LIGAND FREE ENERGY PREDICTED BY IDOCK:   -1.08 KCAL/MOL
REMARK 927      BINDING AFFINITY PREDICTED BY RF-SCORE:    0.00 PKD
ROOT
HETATM    1  C   UNL     1      -7.077  16.641  69.433  1.00  0.00    -0.162 C  
HETATM    2  C   UNL     1      -8.007  16.117  68.363  1.00  0.00    -0.162 C  
HETATM    3  C   UNL     1      -9.397  15.641  68.892  1.00  0.00    -0.223 C  
HETATM    4  O   UNL     1      -6.835  18.502  66.846  1.00  0.00    -0.188 OA 
HETATM    5  C   UNL     1      -9.965  16.622  67.783  1.00  0.00    -0.262 C  
HETATM    6  N   UNL     1      -8.697  17.130  67.569  1.00  0.00    -0.206 N  
HETATM    7  O   UNL     1      -8.927  18.539  65.583  1.00  0.00    -0.265 OA 
HETATM    8  O   UNL     1      -8.824  19.540  67.840  1.00  0.00    -0.308 OA 
HETATM    9  O   UNL     1     -11.020  16.923  67.282  1.00  0.00    -0.188 OA 
HETATM   10  S   UNL     1      -8.295  18.568  66.892  1.00  0.00    -0.271 S  
ENDROOT
BRANCH   3  11
HETATM   11  N   UNL     1      -9.760  14.194  68.788  1.00  0.00    -0.349 N  
HETATM   12  O   UNL     1     -12.036  14.407  69.112  1.00  0.00    -0.318 OA 
HETATM   13  C   UNL     1     -11.061  13.727  68.823  1.00  0.00    -0.266 C  
HETATM   14  H   UNL     1      -9.006  13.514  68.686  1.00  0.00     0.000 HD 
BRANCH  13  15
HETATM   15  C   UNL     1     -11.286  12.249  68.513  1.00  0.00    -0.286 C  
BRANCH  15  16
HETATM   16  C   UNL     1     -11.613  11.324  69.609  1.00  0.00    -0.330 A  
HETATM   17  C   UNL     1     -12.766  10.583  71.343  1.00  0.00    -0.442 A  
HETATM   18  N   UNL     1     -13.788  10.645  72.301  1.00  0.00    -0.288 NA 
HETATM   19  H2  UNL     1     -13.350  10.492  73.210  1.00  0.00     0.000 HD 
HETATM   20  C   UNL     1     -10.976  10.109  69.831  1.00  0.00    -0.293 A  
HETATM   21  H1  UNL     1     -14.434  11.426  72.413  1.00  0.00     0.000 HD 
HETATM   22  S   UNL     1     -11.696   9.288  71.158  1.00  0.00    -0.349 SA 
HETATM   23  N   UNL     1     -12.635  11.591  70.528  1.00  0.00    -0.240 NA 
ENDBRANCH  15  16
BRANCH  15  24
HETATM   24  N   UNL     1     -11.223  11.720  67.323  1.00  0.00    -0.286 NA 
HETATM   25  H   UNL     1     -11.919  11.072  66.953  1.00  0.00     0.000 HD 
BRANCH  24  26
HETATM   26  O   UNL     1     -10.097  12.139  66.610  1.00  0.00    -0.197 OA 
HETATM   27  O   UNL     1      -7.564  12.401  66.710  1.00  0.00    -0.017 OA 
HETATM   28  O   UNL     1      -7.076  10.624  65.424  1.00  0.00    -0.108 OA 
HETATM   29  C   UNL     1      -9.636   9.694  66.640  1.00  0.00    -0.241 C  
HETATM   30  C   UNL     1      -9.889  11.019  64.486  1.00  0.00    -0.343 C  
HETATM   31  C   UNL     1      -9.429  11.043  65.939  1.00  0.00    -0.214 C  
HETATM   32  C   UNL     1      -7.951  11.439  66.052  1.00  0.00     0.095 C  
ENDBRANCH  24  26
ENDBRANCH  15  24
ENDBRANCH  13  15
ENDBRANCH   3  11
TORSDOF 5
ENDMDL
MODEL      136
REMARK 921   NORMALIZED FREE ENERGY PREDICTED BY IDOCK:   -5.11 KCAL/MOL
REMARK 922        TOTAL FREE ENERGY PREDICTED BY IDOCK:   -7.75 KCAL/MOL
REMARK 923 INTER-LIGAND FREE ENERGY PREDICTED BY IDOCK:   -6.65 KCAL/MOL
REMARK 924 INTRA-LIGAND FREE ENERGY PREDICTED BY IDOCK:   -1.11 KCAL/MOL
REMARK 927      BINDING AFFINITY PREDICTED BY RF-SCORE:    0.00 PKD
ROOT
HETATM    1  C   UNL     1      -7.705   8.076  67.387  1.00  0.00    -0.102 C  
HETATM    2  C   UNL     1      -8.104   8.891  66.177  1.00  0.00    -0.114 C  
HETATM    3  C   UNL     1      -7.482  10.322  66.130  1.00  0.00    -0.121 C  
HETATM    4  O   UNL     1      -7.705   6.181  64.813  1.00  0.00    -0.086 OA 
HETATM    5  C   UNL     1      -7.005   9.883  64.683  1.00  0.00    -0.133 C  
HETATM    6  N   UNL     1      -7.393   8.581  64.940  1.00  0.00    -0.084 N  
HETATM    7  O   UNL     1      -7.194   7.444  62.783  1.00  0.00    -0.073 OA 
HETATM    8  O   UNL     1      -5.471   7.155  64.531  1.00  0.00    -0.031 OA 
HETATM    9  O   UNL     1      -6.481  10.362  63.708  1.00  0.00    -0.118 OA 
HETATM   10  S   UNL     1      -6.884   7.217  64.186  1.00  0.00    -0.050 S  
ENDROOT
BRANCH   3  11
HETATM   11  N   UNL     1      -8.383  11.512  66.230  1.00  0.00    -0.329 N  
HETATM   12  O   UNL     1      -8.424  11.694  68.532  1.00  0.00    -0.154 OA 
HETATM   13  C   UNL     1      -8.698  12.136  67.424  1.00  0.00    -0.177 C  
HETATM   14  H   UNL     1      -8.789  11.884  65.371  1.00  0.00     0.000 HD 
BRANCH  13  15
HETATM   15  C   UNL     1      -9.472  13.449  67.348  1.00  0.00    -0.222 C  
BRANCH  15  16
HETATM   16  C   UNL     1     -10.590  13.574  66.401  1.00  0.00    -0.283 A  
HETATM   17  C   UNL     1     -11.645  13.282  64.480  1.00  0.00    -0.369 A  
HETATM   18  N   UNL     1     -11.762  12.829  63.159  1.00  0.00    -0.825 NA 
HETATM   19  H2  UNL     1     -12.093  13.618  62.603  1.00  0.00     0.000 HD 
HETATM   20  C   UNL     1     -11.831  14.117  66.712  1.00  0.00    -0.425 A  
HETATM   21  H1  UNL     1     -11.012  12.388  62.627  1.00  0.00     0.000 HD 
HETATM   22  S   UNL     1     -12.888  14.012  65.362  1.00  0.00    -0.270 SA 
HETATM   23  N   UNL     1     -10.498  13.122  65.079  1.00  0.00    -0.327 NA 
ENDBRANCH  15  16
BRANCH  15  24
HETATM   24  N   UNL     1      -9.229  14.500  68.081  1.00  0.00    -0.189 NA 
HETATM   25  H   UNL     1      -9.084  14.466  69.091  1.00  0.00     0.000 HD 
BRANCH  24  26
HETATM   26  O   UNL     1      -9.189  15.677  67.331  1.00  0.00    -0.195 OA 
HETATM   27  O   UNL     1     -10.595  17.320  65.981  1.00  0.00    -0.321 OA 
HETATM   28  O   UNL     1     -10.671  18.931  67.544  1.00  0.00    -0.450 OA 
HETATM   29  C   UNL     1     -10.462  16.525  69.293  1.00  0.00    -0.326 C  
HETATM   30  C   UNL     1      -8.240  17.518  68.564  1.00  0.00    -0.278 C  
HETATM   31  C   UNL     1      -9.532  16.845  68.116  1.00  0.00    -0.251 C  
HETATM   32  C   UNL     1     -10.293  17.712  67.104  1.00  0.00    -0.343 C  
ENDBRANCH  24  26
ENDBRANCH  15  24
ENDBRANCH  13  15
ENDBRANCH   3  11
TORSDOF 5
ENDMDL
MODEL      137
REMARK 921   NORMALIZED FREE ENERGY PREDICTED BY IDOCK:   -5.09 KCAL/MOL
REMARK 922        TOTAL FREE ENERGY PREDICTED BY IDOCK:   -7.73 KCAL/MOL
REMARK 923 INTER-LIGAND FREE ENERGY PREDICTED BY IDOCK:   -6.44 KCAL/MOL
REMARK 924 INTRA-LIGAND FREE ENERGY PREDICTED BY IDOCK:   -1.29 KCAL/MOL
REMARK 927      BINDING AFFINITY PREDICTED BY RF-SCORE:    0.00 PKD
ROOT
HETATM    1  C   UNL     1     -11.395   6.376  69.340  1.00  0.00    -0.443 C  
HETATM    2  C   UNL     1     -10.209   7.216  69.757  1.00  0.00    -0.208 C  
HETATM    3  C   UNL     1     -10.560   8.696  70.109  1.00  0.00    -0.225 C  
HETATM    4  O   UNL     1      -9.493   4.628  71.223  1.00  0.00    -0.141 OA 
HETATM    5  C   UNL     1      -9.795   8.377  71.461  1.00  0.00    -0.208 C  
HETATM    6  N   UNL     1      -9.754   7.036  71.133  1.00  0.00    -0.173 N  
HETATM    7  O   UNL     1      -8.285   6.036  72.814  1.00  0.00    -0.117 OA 
HETATM    8  O   UNL     1     -10.740   5.804  72.979  1.00  0.00    -0.225 OA 
HETATM    9  O   UNL     1      -9.401   8.951  72.446  1.00  0.00    -0.342 OA 
HETATM   10  S   UNL     1      -9.547   5.762  72.145  1.00  0.00    -0.148 S  
ENDROOT
BRANCH   3  11
HETATM   11  N   UNL     1     -10.021   9.797  69.252  1.00  0.00    -0.181 N  
HETATM   12  O   UNL     1     -12.021  10.511  68.345  1.00  0.00    -0.364 OA 
HETATM   13  C   UNL     1     -10.818  10.655  68.517  1.00  0.00    -0.233 C  
HETATM   14  H   UNL     1      -9.009   9.921  69.207  1.00  0.00     0.000 HD 
BRANCH  13  15
HETATM   15  C   UNL     1     -10.137  11.845  67.845  1.00  0.00    -0.192 C  
BRANCH  15  16
HETATM   16  C   UNL     1     -10.406  13.204  68.339  1.00  0.00    -0.253 A  
HETATM   17  C   UNL     1     -11.621  14.816  69.239  1.00  0.00    -0.303 A  
HETATM   18  N   UNL     1     -12.790  15.362  69.789  1.00  0.00    -0.602 NA 
HETATM   19  H2  UNL     1     -12.968  16.238  69.296  1.00  0.00     0.000 HD 
HETATM   20  C   UNL     1      -9.453  14.211  68.434  1.00  0.00    -0.214 A  
HETATM   21  H1  UNL     1     -13.683  14.875  69.855  1.00  0.00     0.000 HD 
HETATM   22  S   UNL     1     -10.140  15.624  69.130  1.00  0.00    -0.255 SA 
HETATM   23  N   UNL     1     -11.673  13.595  68.787  1.00  0.00    -0.325 NA 
ENDBRANCH  15  16
BRANCH  15  24
HETATM   24  N   UNL     1      -9.304  11.759  66.846  1.00  0.00    -0.187 NA 
HETATM   25  H   UNL     1      -9.214  12.469  66.119  1.00  0.00     0.000 HD 
BRANCH  24  26
HETATM   26  O   UNL     1      -8.546  10.585  66.881  1.00  0.00    -0.124 OA 
HETATM   27  O   UNL     1      -8.670   8.047  67.069  1.00  0.00    -0.124 OA 
HETATM   28  O   UNL     1      -8.286   7.615  64.898  1.00  0.00    -0.127 OA 
HETATM   29  C   UNL     1      -9.632  10.266  64.666  1.00  0.00    -0.374 C  
HETATM   30  C   UNL     1      -7.110  10.364  64.958  1.00  0.00    -0.062 C  
HETATM   31  C   UNL     1      -8.441   9.957  65.580  1.00  0.00    -0.144 C  
HETATM   32  C   UNL     1      -8.459   8.464  65.933  1.00  0.00    -0.148 C  
ENDBRANCH  24  26
ENDBRANCH  15  24
ENDBRANCH  13  15
ENDBRANCH   3  11
TORSDOF 5
ENDMDL
MODEL      138
REMARK 921   NORMALIZED FREE ENERGY PREDICTED BY IDOCK:   -5.07 KCAL/MOL
REMARK 922        TOTAL FREE ENERGY PREDICTED BY IDOCK:   -7.70 KCAL/MOL
REMARK 923 INTER-LIGAND FREE ENERGY PREDICTED BY IDOCK:   -6.45 KCAL/MOL
REMARK 924 INTRA-LIGAND FREE ENERGY PREDICTED BY IDOCK:   -1.25 KCAL/MOL
REMARK 927      BINDING AFFINITY PREDICTED BY RF-SCORE:    0.00 PKD
ROOT
HETATM    1  C   UNL     1      -8.202  13.057  68.148  1.00  0.00    -0.157 C  
HETATM    2  C   UNL     1      -9.057  11.834  67.905  1.00  0.00    -0.181 C  
HETATM    3  C   UNL     1      -9.676  11.213  69.197  1.00  0.00    -0.028 C  
HETATM    4  O   UNL     1      -9.966  13.529  65.525  1.00  0.00    -0.281 OA 
HETATM    5  C   UNL     1     -11.042  11.343  68.401  1.00  0.00    -0.242 C  
HETATM    6  N   UNL     1     -10.412  12.092  67.425  1.00  0.00    -0.213 N  
HETATM    7  O   UNL     1     -12.075  12.300  65.643  1.00  0.00    -0.557 OA 
HETATM    8  O   UNL     1     -11.643  14.173  67.197  1.00  0.00    -0.336 OA 
HETATM    9  O   UNL     1     -12.198  11.019  68.511  1.00  0.00    -0.582 OA 
HETATM   10  S   UNL     1     -11.103  13.119  66.349  1.00  0.00    -0.295 S  
ENDROOT
BRANCH   3  11
HETATM   11  N   UNL     1      -9.251   9.843  69.622  1.00  0.00    -0.217 N  
HETATM   12  O   UNL     1     -10.816   9.522  71.290  1.00  0.00    -0.332 OA 
HETATM   13  C   UNL     1      -9.921   9.095  70.573  1.00  0.00    -0.235 C  
HETATM   14  H   UNL     1      -8.421   9.439  69.187  1.00  0.00     0.000 HD 
BRANCH  13  15
HETATM   15  C   UNL     1      -9.483   7.645  70.763  1.00  0.00    -0.162 C  
BRANCH  15  16
HETATM   16  C   UNL     1      -9.701   6.677  69.676  1.00  0.00    -0.154 A  
HETATM   17  C   UNL     1     -10.415   5.998  67.698  1.00  0.00    -0.235 A  
HETATM   18  N   UNL     1     -11.054   6.160  66.460  1.00  0.00    -0.749 NA 
HETATM   19  H2  UNL     1     -11.714   5.388  66.365  1.00  0.00     0.000 HD 
HETATM   20  C   UNL     1      -9.195   5.383  69.659  1.00  0.00    -0.118 A  
HETATM   21  H1  UNL     1     -11.544   7.005  66.165  1.00  0.00     0.000 HD 
HETATM   22  S   UNL     1      -9.604   4.598  68.186  1.00  0.00    -0.136 SA 
HETATM   23  N   UNL     1     -10.438   7.000  68.531  1.00  0.00    -0.193 NA 
ENDBRANCH  15  16
BRANCH  15  24
HETATM   24  N   UNL     1      -8.904   7.176  71.833  1.00  0.00    -0.124 NA 
HETATM   25  H   UNL     1      -9.363   6.555  72.500  1.00  0.00     0.000 HD 
BRANCH  24  26
HETATM   26  O   UNL     1      -7.585   7.617  71.965  1.00  0.00    -0.077 OA 
HETATM   27  O   UNL     1      -6.118   9.662  72.364  1.00  0.00    -0.297 OA 
HETATM   28  O   UNL     1      -5.634   9.210  74.511  1.00  0.00    -0.124 OA 
HETATM   29  C   UNL     1      -8.332   7.954  74.314  1.00  0.00    -0.297 C  
HETATM   30  C   UNL     1      -6.392   6.434  73.693  1.00  0.00    -0.065 C  
HETATM   31  C   UNL     1      -7.167   7.701  73.349  1.00  0.00    -0.090 C  
HETATM   32  C   UNL     1      -6.252   8.932  73.343  1.00  0.00     0.026 C  
ENDBRANCH  24  26
ENDBRANCH  15  24
ENDBRANCH  13  15
ENDBRANCH   3  11
TORSDOF 5
ENDMDL
MODEL      139
REMARK 921   NORMALIZED FREE ENERGY PREDICTED BY IDOCK:   -5.02 KCAL/MOL
REMARK 922        TOTAL FREE ENERGY PREDICTED BY IDOCK:   -7.64 KCAL/MOL
REMARK 923 INTER-LIGAND FREE ENERGY PREDICTED BY IDOCK:   -6.05 KCAL/MOL
REMARK 924 INTRA-LIGAND FREE ENERGY PREDICTED BY IDOCK:   -1.59 KCAL/MOL
REMARK 927      BINDING AFFINITY PREDICTED BY RF-SCORE:    0.00 PKD
ROOT
HETATM    1  C   UNL     1     -11.145   6.744  67.154  1.00  0.00    -0.404 C  
HETATM    2  C   UNL     1      -9.834   7.364  66.728  1.00  0.00    -0.220 C  
HETATM    3  C   UNL     1      -9.372   8.566  67.612  1.00  0.00    -0.137 C  
HETATM    4  O   UNL     1      -9.117   4.418  66.322  1.00  0.00    -0.117 OA 
HETATM    5  C   UNL     1      -8.024   7.739  67.732  1.00  0.00    -0.124 C  
HETATM    6  N   UNL     1      -8.629   6.648  67.136  1.00  0.00    -0.112 N  
HETATM    7  O   UNL     1      -6.798   5.079  66.724  1.00  0.00    -0.059 OA 
HETATM    8  O   UNL     1      -8.342   4.752  68.626  1.00  0.00    -0.083 OA 
HETATM    9  O   UNL     1      -6.907   7.869  68.168  1.00  0.00    -0.064 OA 
HETATM   10  S   UNL     1      -8.166   5.077  67.218  1.00  0.00    -0.106 S  
ENDROOT
BRANCH   3  11
HETATM   11  N   UNL     1      -9.294   9.931  67.004  1.00  0.00    -0.145 N  
HETATM   12  O   UNL     1     -11.430  10.638  67.524  1.00  0.00    -0.460 OA 
HETATM   13  C   UNL     1     -10.307  10.868  67.097  1.00  0.00    -0.220 C  
HETATM   14  H   UNL     1      -8.448  10.184  66.494  1.00  0.00     0.000 HD 
BRANCH  13  15
HETATM   15  C   UNL     1     -10.008  12.278  66.594  1.00  0.00    -0.215 C  
BRANCH  15  16
HETATM   16  C   UNL     1     -10.812  12.839  65.497  1.00  0.00    -0.274 A  
HETATM   17  C   UNL     1     -11.711  14.449  64.279  1.00  0.00    -0.310 A  
HETATM   18  N   UNL     1     -11.981  15.786  63.951  1.00  0.00    -1.139 NA 
HETATM   19  H2  UNL     1     -12.990  15.861  63.823  1.00  0.00     0.000 HD 
HETATM   20  C   UNL     1     -11.399  12.089  64.486  1.00  0.00    -0.330 A  
HETATM   21  H1  UNL     1     -11.694  16.590  64.508  1.00  0.00     0.000 HD 
HETATM   22  S   UNL     1     -12.186  13.116  63.355  1.00  0.00    -0.284 SA 
HETATM   23  N   UNL     1     -11.037  14.215  65.370  1.00  0.00    -0.309 NA 
ENDBRANCH  15  16
BRANCH  15  24
HETATM   24  N   UNL     1      -9.079  13.058  67.074  1.00  0.00    -0.224 NA 
HETATM   25  H   UNL     1      -8.724  13.882  66.587  1.00  0.00     0.000 HD 
BRANCH  24  26
HETATM   26  O   UNL     1      -8.625  12.640  68.327  1.00  0.00    -0.178 OA 
HETATM   27  O   UNL     1      -7.770  10.643  69.658  1.00  0.00    -0.146 OA 
HETATM   28  O   UNL     1      -5.605  11.241  69.648  1.00  0.00    -0.052 OA 
HETATM   29  C   UNL     1      -6.486  12.452  67.070  1.00  0.00     0.004 C  
HETATM   30  C   UNL     1      -6.756  13.948  69.106  1.00  0.00    -0.113 C  
HETATM   31  C   UNL     1      -7.180  12.653  68.423  1.00  0.00    -0.111 C  
HETATM   32  C   UNL     1      -6.898  11.434  69.311  1.00  0.00    -0.119 C  
ENDBRANCH  24  26
ENDBRANCH  15  24
ENDBRANCH  13  15
ENDBRANCH   3  11
TORSDOF 5
ENDMDL
MODEL      140
REMARK 921   NORMALIZED FREE ENERGY PREDICTED BY IDOCK:   -5.01 KCAL/MOL
REMARK 922        TOTAL FREE ENERGY PREDICTED BY IDOCK:   -7.63 KCAL/MOL
REMARK 923 INTER-LIGAND FREE ENERGY PREDICTED BY IDOCK:   -6.74 KCAL/MOL
REMARK 924 INTRA-LIGAND FREE ENERGY PREDICTED BY IDOCK:   -0.88 KCAL/MOL
REMARK 927      BINDING AFFINITY PREDICTED BY RF-SCORE:    0.00 PKD
ROOT
HETATM    1  C   UNL     1      -9.592  10.937  64.154  1.00  0.00    -0.321 C  
HETATM    2  C   UNL     1      -8.726  11.051  65.389  1.00  0.00    -0.116 C  
HETATM    3  C   UNL     1      -9.524  11.167  66.727  1.00  0.00    -0.184 C  
HETATM    4  O   UNL     1      -7.108   8.946  63.870  1.00  0.00    -0.090 OA 
HETATM    5  C   UNL     1      -8.615   9.948  67.176  1.00  0.00    -0.125 C  
HETATM    6  N   UNL     1      -8.153   9.802  65.882  1.00  0.00    -0.112 N  
HETATM    7  O   UNL     1      -6.337   8.173  66.056  1.00  0.00    -0.045 OA 
HETATM    8  O   UNL     1      -8.562   7.502  65.218  1.00  0.00    -0.106 OA 
HETATM    9  O   UNL     1      -8.372   9.305  68.167  1.00  0.00    -0.118 OA 
HETATM   10  S   UNL     1      -7.476   8.471  65.204  1.00  0.00    -0.094 S  
ENDROOT
BRANCH   3  11
HETATM   11  N   UNL     1      -9.431  12.430  67.523  1.00  0.00    -0.182 N  
HETATM   12  O   UNL     1     -10.619  13.801  66.094  1.00  0.00    -0.284 OA 
HETATM   13  C   UNL     1     -10.064  13.607  67.168  1.00  0.00    -0.245 C  
HETATM   14  H   UNL     1      -8.870  12.422  68.375  1.00  0.00     0.000 HD 
BRANCH  13  15
HETATM   15  C   UNL     1     -10.035  14.753  68.176  1.00  0.00    -0.221 C  
BRANCH  15  16
HETATM   16  C   UNL     1     -10.998  14.761  69.288  1.00  0.00    -0.261 A  
HETATM   17  C   UNL     1     -11.944  15.542  71.127  1.00  0.00    -0.382 A  
HETATM   18  N   UNL     1     -12.084  16.444  72.191  1.00  0.00    -0.619 NA 
HETATM   19  H2  UNL     1     -12.136  15.887  73.045  1.00  0.00     0.000 HD 
HETATM   20  C   UNL     1     -12.055  13.870  69.423  1.00  0.00    -0.337 A  
HETATM   21  H1  UNL     1     -11.450  17.219  72.383  1.00  0.00     0.000 HD 
HETATM   22  S   UNL     1     -12.994  14.257  70.809  1.00  0.00    -0.244 SA 
HETATM   23  N   UNL     1     -10.937  15.710  70.316  1.00  0.00    -0.322 NA 
ENDBRANCH  15  16
BRANCH  15  24
HETATM   24  N   UNL     1      -9.197  15.752  68.143  1.00  0.00    -0.188 NA 
HETATM   25  H   UNL     1      -8.326  15.779  68.675  1.00  0.00     0.000 HD 
BRANCH  24  26
HETATM   26  O   UNL     1      -9.623  16.780  67.300  1.00  0.00    -0.229 OA 
HETATM   27  O   UNL     1     -10.914  18.975  67.202  1.00  0.00    -0.433 OA 
HETATM   28  O   UNL     1      -9.118  20.319  67.078  1.00  0.00    -0.353 OA 
HETATM   29  C   UNL     1      -7.964  18.058  68.643  1.00  0.00    -0.303 C  
HETATM   30  C   UNL     1      -7.794  17.814  66.119  1.00  0.00    -0.262 C  
HETATM   31  C   UNL     1      -8.727  17.918  67.320  1.00  0.00    -0.239 C  
HETATM   32  C   UNL     1      -9.693  19.102  67.177  1.00  0.00    -0.327 C  
ENDBRANCH  24  26
ENDBRANCH  15  24
ENDBRANCH  13  15
ENDBRANCH   3  11
TORSDOF 5
ENDMDL
MODEL      141
REMARK 921   NORMALIZED FREE ENERGY PREDICTED BY IDOCK:   -5.01 KCAL/MOL
REMARK 922        TOTAL FREE ENERGY PREDICTED BY IDOCK:   -7.62 KCAL/MOL
REMARK 923 INTER-LIGAND FREE ENERGY PREDICTED BY IDOCK:   -6.00 KCAL/MOL
REMARK 924 INTRA-LIGAND FREE ENERGY PREDICTED BY IDOCK:   -1.61 KCAL/MOL
REMARK 927      BINDING AFFINITY PREDICTED BY RF-SCORE:    0.00 PKD
ROOT
HETATM    1  C   UNL     1     -12.691  10.753  71.016  1.00  0.00    -0.513 C  
HETATM    2  C   UNL     1     -11.848   9.948  70.053  1.00  0.00    -0.067 C  
HETATM    3  C   UNL     1     -10.373  10.444  69.918  1.00  0.00    -0.182 C  
HETATM    4  O   UNL     1     -13.371   7.652  71.383  1.00  0.00    -0.337 OA 
HETATM    5  C   UNL     1     -10.014   8.934  70.246  1.00  0.00    -0.186 C  
HETATM    6  N   UNL     1     -11.335   8.680  70.565  1.00  0.00    -0.248 N  
HETATM    7  O   UNL     1     -11.444   6.251  70.837  1.00  0.00    -0.327 OA 
HETATM    8  O   UNL     1     -11.375   7.743  72.805  1.00  0.00    -0.370 OA 
HETATM    9  O   UNL     1      -9.050   8.211  70.283  1.00  0.00    -0.148 OA 
HETATM   10  S   UNL     1     -11.925   7.459  71.487  1.00  0.00    -0.324 S  
ENDROOT
BRANCH   3  11
HETATM   11  N   UNL     1      -9.908  10.997  68.608  1.00  0.00    -0.188 N  
HETATM   12  O   UNL     1     -10.725  13.143  68.854  1.00  0.00    -0.233 OA 
HETATM   13  C   UNL     1     -10.056  12.322  68.241  1.00  0.00    -0.218 C  
HETATM   14  H   UNL     1      -9.457  10.361  67.949  1.00  0.00     0.000 HD 
BRANCH  13  15
HETATM   15  C   UNL     1      -9.363  12.778  66.959  1.00  0.00    -0.229 C  
BRANCH  15  16
HETATM   16  C   UNL     1      -8.735  14.107  66.912  1.00  0.00    -0.166 A  
HETATM   17  C   UNL     1      -7.090  15.567  67.132  1.00  0.00    -0.136 A  
HETATM   18  N   UNL     1      -5.783  15.959  67.455  1.00  0.00    -0.244 NA 
HETATM   19  H2  UNL     1      -5.861  16.766  68.075  1.00  0.00     0.000 HD 
HETATM   20  C   UNL     1      -9.349  15.252  66.419  1.00  0.00    -0.296 A  
HETATM   21  H1  UNL     1      -5.075  15.346  67.859  1.00  0.00     0.000 HD 
HETATM   22  S   UNL     1      -8.263  16.583  66.464  1.00  0.00    -0.324 SA 
HETATM   23  N   UNL     1      -7.425  14.326  67.353  1.00  0.00    -0.182 NA 
ENDBRANCH  15  16
BRANCH  15  24
HETATM   24  N   UNL     1      -9.265  12.065  65.872  1.00  0.00    -0.392 NA 
HETATM   25  H   UNL     1      -9.805  12.247  65.024  1.00  0.00     0.000 HD 
BRANCH  24  26
HETATM   26  O   UNL     1      -8.341  11.025  65.995  1.00  0.00    -0.168 OA 
HETATM   27  O   UNL     1      -7.772   8.904  67.288  1.00  0.00    -0.092 OA 
HETATM   28  O   UNL     1      -8.406   7.457  65.690  1.00  0.00    -0.131 OA 
HETATM   29  C   UNL     1     -10.262   9.718  65.105  1.00  0.00     0.120 C  
HETATM   30  C   UNL     1      -8.016   9.838  63.922  1.00  0.00    -0.146 C  
HETATM   31  C   UNL     1      -8.741   9.841  65.263  1.00  0.00    -0.159 C  
HETATM   32  C   UNL     1      -8.243   8.708  66.170  1.00  0.00    -0.121 C  
ENDBRANCH  24  26
ENDBRANCH  15  24
ENDBRANCH  13  15
ENDBRANCH   3  11
TORSDOF 5
ENDMDL
MODEL      142
REMARK 921   NORMALIZED FREE ENERGY PREDICTED BY IDOCK:   -5.01 KCAL/MOL
REMARK 922        TOTAL FREE ENERGY PREDICTED BY IDOCK:   -7.62 KCAL/MOL
REMARK 923 INTER-LIGAND FREE ENERGY PREDICTED BY IDOCK:   -6.45 KCAL/MOL
REMARK 924 INTRA-LIGAND FREE ENERGY PREDICTED BY IDOCK:   -1.17 KCAL/MOL
REMARK 927      BINDING AFFINITY PREDICTED BY RF-SCORE:    0.00 PKD
ROOT
HETATM    1  C   UNL     1      -7.956  13.306  67.167  1.00  0.00    -0.077 C  
HETATM    2  C   UNL     1      -9.214  12.472  67.251  1.00  0.00    -0.190 C  
HETATM    3  C   UNL     1      -9.572  11.987  68.691  1.00  0.00    -0.080 C  
HETATM    4  O   UNL     1     -10.172  14.574  65.245  1.00  0.00    -0.367 OA 
HETATM    5  C   UNL     1     -10.982  12.641  68.378  1.00  0.00    -0.257 C  
HETATM    6  N   UNL     1     -10.472  13.214  67.228  1.00  0.00    -0.242 N  
HETATM    7  O   UNL     1     -12.427  14.127  66.076  1.00  0.00    -0.467 OA 
HETATM    8  O   UNL     1     -10.905  15.600  67.350  1.00  0.00    -0.312 OA 
HETATM    9  O   UNL     1     -12.082  12.719  68.866  1.00  0.00    -0.269 OA 
HETATM   10  S   UNL     1     -11.061  14.503  66.405  1.00  0.00    -0.336 S  
ENDROOT
BRANCH   3  11
HETATM   11  N   UNL     1      -9.540  10.522  68.996  1.00  0.00    -0.196 N  
HETATM   12  O   UNL     1      -7.445  10.438  69.964  1.00  0.00    -0.159 OA 
HETATM   13  C   UNL     1      -8.511   9.906  69.683  1.00  0.00    -0.187 C  
HETATM   14  H   UNL     1     -10.321   9.947  68.679  1.00  0.00     0.000 HD 
BRANCH  13  15
HETATM   15  C   UNL     1      -8.709   8.447  70.085  1.00  0.00    -0.136 C  
BRANCH  15  16
HETATM   16  C   UNL     1      -9.490   8.130  71.291  1.00  0.00    -0.159 A  
HETATM   17  C   UNL     1     -11.316   7.986  72.527  1.00  0.00    -0.406 A  
HETATM   18  N   UNL     1     -12.685   8.151  72.784  1.00  0.00    -0.591 NA 
HETATM   19  H2  UNL     1     -12.762   8.625  73.684  1.00  0.00     0.000 HD 
HETATM   20  C   UNL     1      -8.982   7.487  72.413  1.00  0.00    -0.135 A  
HETATM   21  H1  UNL     1     -13.344   8.606  72.154  1.00  0.00     0.000 HD 
HETATM   22  S   UNL     1     -10.224   7.231  73.572  1.00  0.00    -0.354 SA 
HETATM   23  N   UNL     1     -10.851   8.439  71.397  1.00  0.00    -0.232 NA 
ENDBRANCH  15  16
BRANCH  15  24
HETATM   24  N   UNL     1      -8.241   7.423  69.426  1.00  0.00    -0.129 NA 
HETATM   25  H   UNL     1      -7.257   7.154  69.421  1.00  0.00     0.000 HD 
BRANCH  24  26
HETATM   26  O   UNL     1      -9.237   6.736  68.728  1.00  0.00    -0.132 OA 
HETATM   27  O   UNL     1      -9.779   5.523  66.553  1.00  0.00    -0.146 OA 
HETATM   28  O   UNL     1      -9.651   3.441  67.387  1.00  0.00    -0.208 OA 
HETATM   29  C   UNL     1      -7.700   4.829  69.164  1.00  0.00    -0.071 C  
HETATM   30  C   UNL     1     -10.107   4.866  69.977  1.00  0.00    -0.337 C  
HETATM   31  C   UNL     1      -9.133   5.300  68.887  1.00  0.00    -0.111 C  
HETATM   32  C   UNL     1      -9.568   4.783  67.510  1.00  0.00    -0.158 C  
ENDBRANCH  24  26
ENDBRANCH  15  24
ENDBRANCH  13  15
ENDBRANCH   3  11
TORSDOF 5
ENDMDL
MODEL      143
REMARK 921   NORMALIZED FREE ENERGY PREDICTED BY IDOCK:   -5.00 KCAL/MOL
REMARK 922        TOTAL FREE ENERGY PREDICTED BY IDOCK:   -7.61 KCAL/MOL
REMARK 923 INTER-LIGAND FREE ENERGY PREDICTED BY IDOCK:   -7.15 KCAL/MOL
REMARK 924 INTRA-LIGAND FREE ENERGY PREDICTED BY IDOCK:   -0.46 KCAL/MOL
REMARK 927      BINDING AFFINITY PREDICTED BY RF-SCORE:    0.00 PKD
ROOT
HETATM    1  C   UNL     1     -10.590  16.444  69.318  1.00  0.00    -0.311 C  
HETATM    2  C   UNL     1      -9.953  16.154  67.978  1.00  0.00    -0.238 C  
HETATM    3  C   UNL     1     -10.852  15.331  67.002  1.00  0.00    -0.321 C  
HETATM    4  O   UNL     1      -9.017  19.045  68.331  1.00  0.00    -0.314 OA 
HETATM    5  C   UNL     1     -10.548  16.516  65.993  1.00  0.00    -0.253 C  
HETATM    6  N   UNL     1      -9.974  17.250  67.013  1.00  0.00    -0.279 N  
HETATM    7  O   UNL     1      -8.949  19.166  65.891  1.00  0.00    -0.441 OA 
HETATM    8  O   UNL     1     -11.100  19.401  67.084  1.00  0.00    -0.445 OA 
HETATM    9  O   UNL     1     -10.724  16.797  64.834  1.00  0.00    -0.721 OA 
HETATM   10  S   UNL     1      -9.743  18.873  67.072  1.00  0.00    -0.325 S  
ENDROOT
BRANCH   3  11
HETATM   11  N   UNL     1     -10.424  13.954  66.603  1.00  0.00    -0.270 N  
HETATM   12  O   UNL     1      -8.246  14.060  67.364  1.00  0.00    -0.172 OA 
HETATM   13  C   UNL     1      -9.183  13.422  66.902  1.00  0.00    -0.248 C  
HETATM   14  H   UNL     1     -11.083  13.377  66.081  1.00  0.00     0.000 HD 
BRANCH  13  15
HETATM   15  C   UNL     1      -8.961  11.943  66.597  1.00  0.00    -0.198 C  
BRANCH  15  16
HETATM   16  C   UNL     1      -9.245  10.942  67.637  1.00  0.00    -0.152 A  
HETATM   17  C   UNL     1      -8.931   9.881  69.551  1.00  0.00    -0.211 A  
HETATM   18  N   UNL     1      -8.267   9.621  70.758  1.00  0.00    -0.364 NA 
HETATM   19  H2  UNL     1      -8.098   8.616  70.792  1.00  0.00     0.000 HD 
HETATM   20  C   UNL     1     -10.346  10.094  67.636  1.00  0.00    -0.219 A  
HETATM   21  H1  UNL     1      -7.404  10.075  71.056  1.00  0.00     0.000 HD 
HETATM   22  S   UNL     1     -10.362   9.129  69.058  1.00  0.00    -0.216 SA 
HETATM   23  N   UNL     1      -8.416  10.773  68.753  1.00  0.00    -0.142 NA 
ENDBRANCH  15  16
BRANCH  15  24
HETATM   24  N   UNL     1      -8.538  11.473  65.457  1.00  0.00    -0.391 NA 
HETATM   25  H   UNL     1      -8.727  11.914  64.556  1.00  0.00     0.000 HD 
BRANCH  24  26
HETATM   26  O   UNL     1      -7.798  10.297  65.604  1.00  0.00    -0.139 OA 
HETATM   27  O   UNL     1      -7.935   7.829  66.223  1.00  0.00    -0.094 OA 
HETATM   28  O   UNL     1      -7.803   7.035  64.125  1.00  0.00    -0.112 OA 
HETATM   29  C   UNL     1      -9.130   9.655  63.603  1.00  0.00    -0.214 C  
HETATM   30  C   UNL     1      -6.589   9.719  63.600  1.00  0.00    -0.119 C  
HETATM   31  C   UNL     1      -7.847   9.461  64.422  1.00  0.00    -0.123 C  
HETATM   32  C   UNL     1      -7.847   8.047  65.018  1.00  0.00    -0.123 C  
ENDBRANCH  24  26
ENDBRANCH  15  24
ENDBRANCH  13  15
ENDBRANCH   3  11
TORSDOF 5
ENDMDL
MODEL      144
REMARK 921   NORMALIZED FREE ENERGY PREDICTED BY IDOCK:   -5.00 KCAL/MOL
REMARK 922        TOTAL FREE ENERGY PREDICTED BY IDOCK:   -7.61 KCAL/MOL
REMARK 923 INTER-LIGAND FREE ENERGY PREDICTED BY IDOCK:   -6.83 KCAL/MOL
REMARK 924 INTRA-LIGAND FREE ENERGY PREDICTED BY IDOCK:   -0.78 KCAL/MOL
REMARK 927      BINDING AFFINITY PREDICTED BY RF-SCORE:    0.00 PKD
ROOT
HETATM    1  C   UNL     1      -6.610   9.674  70.003  1.00  0.00    -0.072 C  
HETATM    2  C   UNL     1      -8.006  10.252  70.070  1.00  0.00    -0.000 C  
HETATM    3  C   UNL     1      -8.768  10.256  68.707  1.00  0.00    -0.144 C  
HETATM    4  O   UNL     1      -8.022   8.672  72.690  1.00  0.00    -0.354 OA 
HETATM    5  C   UNL     1      -9.899   9.510  69.530  1.00  0.00    -0.193 C  
HETATM    6  N   UNL     1      -9.037   9.364  70.601  1.00  0.00    -0.248 N  
HETATM    7  O   UNL     1     -10.446   8.523  72.414  1.00  0.00    -0.322 OA 
HETATM    8  O   UNL     1      -8.960   7.001  71.157  1.00  0.00    -0.145 OA 
HETATM    9  O   UNL     1     -11.036   9.133  69.388  1.00  0.00    -0.197 OA 
HETATM   10  S   UNL     1      -9.138   8.281  71.828  1.00  0.00    -0.215 S  
ENDROOT
BRANCH   3  11
HETATM   11  N   UNL     1      -9.122  11.565  68.074  1.00  0.00    -0.168 N  
HETATM   12  O   UNL     1      -7.051  12.064  67.183  1.00  0.00    -0.137 OA 
HETATM   13  C   UNL     1      -8.246  12.301  67.298  1.00  0.00    -0.182 C  
HETATM   14  H   UNL     1     -10.061  11.934  68.223  1.00  0.00     0.000 HD 
BRANCH  13  15
HETATM   15  C   UNL     1      -8.808  13.516  66.564  1.00  0.00     0.027 C  
BRANCH  15  16
HETATM   16  C   UNL     1      -9.993  13.358  65.708  1.00  0.00    -0.252 A  
HETATM   17  C   UNL     1     -11.697  14.046  64.479  1.00  0.00    -0.413 A  
HETATM   18  N   UNL     1     -12.529  15.017  63.902  1.00  0.00    -1.043 NA 
HETATM   19  H2  UNL     1     -13.489  14.750  64.120  1.00  0.00     0.000 HD 
HETATM   20  C   UNL     1     -10.460  12.142  65.223  1.00  0.00    -0.276 A  
HETATM   21  H1  UNL     1     -12.456  16.020  64.071  1.00  0.00     0.000 HD 
HETATM   22  S   UNL     1     -11.818  12.384  64.199  1.00  0.00    -0.450 SA 
HETATM   23  N   UNL     1     -10.755  14.453  65.283  1.00  0.00    -0.349 NA 
ENDBRANCH  15  16
BRANCH  15  24
HETATM   24  N   UNL     1      -8.320  14.723  66.640  1.00  0.00    -0.401 NA 
HETATM   25  H   UNL     1      -7.842  15.192  65.869  1.00  0.00     0.000 HD 
BRANCH  24  26
HETATM   26  O   UNL     1      -8.524  15.304  67.894  1.00  0.00    -0.144 OA 
HETATM   27  O   UNL     1      -7.628  17.023  69.549  1.00  0.00    -0.027 OA 
HETATM   28  O   UNL     1      -9.180  18.595  69.144  1.00  0.00    -0.163 OA 
HETATM   29  C   UNL     1      -9.080  17.270  66.474  1.00  0.00    -0.289 C  
HETATM   30  C   UNL     1     -10.729  16.251  68.118  1.00  0.00    -0.322 C  
HETATM   31  C   UNL     1      -9.264  16.546  67.814  1.00  0.00    -0.202 C  
HETATM   32  C   UNL     1      -8.621  17.386  68.925  1.00  0.00    -0.151 C  
ENDBRANCH  24  26
ENDBRANCH  15  24
ENDBRANCH  13  15
ENDBRANCH   3  11
TORSDOF 5
ENDMDL
MODEL      145
REMARK 921   NORMALIZED FREE ENERGY PREDICTED BY IDOCK:   -5.00 KCAL/MOL
REMARK 922        TOTAL FREE ENERGY PREDICTED BY IDOCK:   -7.60 KCAL/MOL
REMARK 923 INTER-LIGAND FREE ENERGY PREDICTED BY IDOCK:   -6.45 KCAL/MOL
REMARK 924 INTRA-LIGAND FREE ENERGY PREDICTED BY IDOCK:   -1.16 KCAL/MOL
REMARK 927      BINDING AFFINITY PREDICTED BY RF-SCORE:    0.00 PKD
ROOT
HETATM    1  C   UNL     1     -11.112   9.678  68.065  1.00  0.00    -0.108 C  
HETATM    2  C   UNL     1     -10.872  10.679  69.172  1.00  0.00    -0.237 C  
HETATM    3  C   UNL     1     -11.350  12.129  68.846  1.00  0.00    -0.283 C  
HETATM    4  O   UNL     1     -11.783   8.303  70.871  1.00  0.00    -0.280 OA 
HETATM    5  C   UNL     1     -12.132  11.999  70.219  1.00  0.00    -0.312 C  
HETATM    6  N   UNL     1     -11.831  10.651  70.273  1.00  0.00    -0.312 N  
HETATM    7  O   UNL     1     -12.545   9.952  72.506  1.00  0.00    -0.128 OA 
HETATM    8  O   UNL     1     -13.925   9.446  70.520  1.00  0.00     0.205 OA 
HETATM    9  O   UNL     1     -12.783  12.683  70.969  1.00  0.00    -0.324 OA 
HETATM   10  S   UNL     1     -12.604   9.486  71.130  1.00  0.00    -0.277 S  
ENDROOT
BRANCH   3  11
HETATM   11  N   UNL     1     -10.335  13.222  68.729  1.00  0.00    -0.388 N  
HETATM   12  O   UNL     1     -11.770  15.019  68.927  1.00  0.00    -0.307 OA 
HETATM   13  C   UNL     1     -10.636  14.564  68.868  1.00  0.00    -0.249 C  
HETATM   14  H   UNL     1      -9.367  12.962  68.535  1.00  0.00     0.000 HD 
BRANCH  13  15
HETATM   15  C   UNL     1      -9.468  15.546  68.913  1.00  0.00    -0.223 C  
BRANCH  15  16
HETATM   16  C   UNL     1      -9.638  16.896  68.356  1.00  0.00    -0.255 A  
HETATM   17  C   UNL     1     -10.007  19.074  68.432  1.00  0.00    -0.408 A  
HETATM   18  N   UNL     1     -10.289  20.287  69.077  1.00  0.00    -0.376 NA 
HETATM   19  H2  UNL     1     -11.064  20.717  68.572  1.00  0.00     0.000 HD 
HETATM   20  C   UNL     1      -9.443  17.230  67.021  1.00  0.00    -0.261 A  
HETATM   21  H1  UNL     1     -10.496  20.382  70.071  1.00  0.00     0.000 HD 
HETATM   22  S   UNL     1      -9.663  18.917  66.785  1.00  0.00    -0.346 SA 
HETATM   23  N   UNL     1      -9.999  17.989  69.154  1.00  0.00    -0.261 NA 
ENDBRANCH  15  16
BRANCH  15  24
HETATM   24  N   UNL     1      -8.298  15.287  69.429  1.00  0.00    -0.284 NA 
HETATM   25  H   UNL     1      -7.761  15.958  69.980  1.00  0.00     0.000 HD 
BRANCH  24  26
HETATM   26  O   UNL     1      -7.861  13.992  69.142  1.00  0.00    -0.037 OA 
HETATM   27  O   UNL     1      -7.736  12.204  67.330  1.00  0.00    -0.146 OA 
HETATM   28  O   UNL     1      -5.561  12.488  66.846  1.00  0.00    -0.334 OA 
HETATM   29  C   UNL     1      -6.261  15.253  67.714  1.00  0.00    -0.178 C  
HETATM   30  C   UNL     1      -5.509  13.701  69.580  1.00  0.00    -0.087 C  
HETATM   31  C   UNL     1      -6.558  13.976  68.509  1.00  0.00    -0.097 C  
HETATM   32  C   UNL     1      -6.682  12.800  67.531  1.00  0.00    -0.154 C  
ENDBRANCH  24  26
ENDBRANCH  15  24
ENDBRANCH  13  15
ENDBRANCH   3  11
TORSDOF 5
ENDMDL
MODEL      146
REMARK 921   NORMALIZED FREE ENERGY PREDICTED BY IDOCK:   -4.98 KCAL/MOL
REMARK 922        TOTAL FREE ENERGY PREDICTED BY IDOCK:   -7.58 KCAL/MOL
REMARK 923 INTER-LIGAND FREE ENERGY PREDICTED BY IDOCK:   -6.88 KCAL/MOL
REMARK 924 INTRA-LIGAND FREE ENERGY PREDICTED BY IDOCK:   -0.70 KCAL/MOL
REMARK 927      BINDING AFFINITY PREDICTED BY RF-SCORE:    0.00 PKD
ROOT
HETATM    1  C   UNL     1     -12.904  14.297  66.075  1.00  0.00    -0.104 C  
HETATM    2  C   UNL     1     -11.410  14.130  65.914  1.00  0.00    -0.323 C  
HETATM    3  C   UNL     1     -10.708  13.409  67.108  1.00  0.00    -0.264 C  
HETATM    4  O   UNL     1     -12.269  13.494  63.048  1.00  0.00    -0.557 OA 
HETATM    5  C   UNL     1     -10.132  12.461  65.975  1.00  0.00    -0.251 C  
HETATM    6  N   UNL     1     -10.981  13.035  65.049  1.00  0.00    -0.289 N  
HETATM    7  O   UNL     1     -10.242  12.137  62.897  1.00  0.00    -0.152 OA 
HETATM    8  O   UNL     1     -12.253  11.241  64.018  1.00  0.00     0.153 OA 
HETATM    9  O   UNL     1      -9.335  11.564  65.852  1.00  0.00    -0.221 OA 
HETATM   10  S   UNL     1     -11.476  12.405  63.618  1.00  0.00    -0.509 S  
ENDROOT
BRANCH   3  11
HETATM   11  N   UNL     1      -9.726  14.168  67.943  1.00  0.00    -0.218 N  
HETATM   12  O   UNL     1      -8.462  15.057  66.226  1.00  0.00    -0.068 OA 
HETATM   13  C   UNL     1      -8.747  14.990  67.415  1.00  0.00    -0.194 C  
HETATM   14  H   UNL     1      -9.780  14.073  68.957  1.00  0.00     0.000 HD 
BRANCH  13  15
HETATM   15  C   UNL     1      -7.945  15.844  68.392  1.00  0.00    -0.147 C  
BRANCH  15  16
HETATM   16  C   UNL     1      -7.065  15.188  69.371  1.00  0.00    -0.189 A  
HETATM   17  C   UNL     1      -6.222  13.481  70.495  1.00  0.00     0.006 A  
HETATM   18  N   UNL     1      -6.121  12.129  70.852  1.00  0.00    -0.521 NA 
HETATM   19  H2  UNL     1      -6.154  12.089  71.871  1.00  0.00     0.000 HD 
HETATM   20  C   UNL     1      -6.059  15.830  70.083  1.00  0.00    -0.106 A  
HETATM   21  H1  UNL     1      -6.733  11.390  70.508  1.00  0.00     0.000 HD 
HETATM   22  S   UNL     1      -5.206  14.706  71.064  1.00  0.00    -0.143 SA 
HETATM   23  N   UNL     1      -7.159  13.820  69.655  1.00  0.00     0.109 NA 
ENDBRANCH  15  16
BRANCH  15  24
HETATM   24  N   UNL     1      -7.962  17.148  68.429  1.00  0.00    -0.240 NA 
HETATM   25  H   UNL     1      -7.697  17.695  69.249  1.00  0.00     0.000 HD 
BRANCH  24  26
HETATM   26  O   UNL     1      -8.385  17.712  67.223  1.00  0.00    -0.209 OA 
HETATM   27  O   UNL     1     -10.339  17.896  65.597  1.00  0.00    -0.605 OA 
HETATM   28  O   UNL     1     -10.965  19.971  66.189  1.00  0.00    -0.265 OA 
HETATM   29  C   UNL     1      -9.826  19.018  68.775  1.00  0.00    -0.485 C  
HETATM   30  C   UNL     1      -8.155  20.111  67.204  1.00  0.00    -0.370 C  
HETATM   31  C   UNL     1      -9.116  18.948  67.417  1.00  0.00    -0.279 C  
HETATM   32  C   UNL     1     -10.173  18.884  66.307  1.00  0.00    -0.438 C  
ENDBRANCH  24  26
ENDBRANCH  15  24
ENDBRANCH  13  15
ENDBRANCH   3  11
TORSDOF 5
ENDMDL
MODEL      147
REMARK 921   NORMALIZED FREE ENERGY PREDICTED BY IDOCK:   -4.96 KCAL/MOL
REMARK 922        TOTAL FREE ENERGY PREDICTED BY IDOCK:   -7.56 KCAL/MOL
REMARK 923 INTER-LIGAND FREE ENERGY PREDICTED BY IDOCK:   -6.38 KCAL/MOL
REMARK 924 INTRA-LIGAND FREE ENERGY PREDICTED BY IDOCK:   -1.18 KCAL/MOL
REMARK 927      BINDING AFFINITY PREDICTED BY RF-SCORE:    0.00 PKD
ROOT
HETATM    1  C   UNL     1     -11.708  10.465  70.927  1.00  0.00    -0.455 C  
HETATM    2  C   UNL     1     -11.170   9.319  70.101  1.00  0.00    -0.208 C  
HETATM    3  C   UNL     1      -9.681   9.485  69.660  1.00  0.00    -0.200 C  
HETATM    4  O   UNL     1     -12.779   7.712  72.148  1.00  0.00    -0.258 OA 
HETATM    5  C   UNL     1      -9.505   8.050  70.310  1.00  0.00    -0.167 C  
HETATM    6  N   UNL     1     -10.776   8.127  70.847  1.00  0.00    -0.217 N  
HETATM    7  O   UNL     1     -11.206   5.888  71.734  1.00  0.00    -0.271 OA 
HETATM    8  O   UNL     1     -10.581   7.747  73.238  1.00  0.00    -0.364 OA 
HETATM    9  O   UNL     1      -8.669   7.186  70.407  1.00  0.00    -0.147 OA 
HETATM   10  S   UNL     1     -11.382   7.281  72.114  1.00  0.00    -0.276 S  
ENDROOT
BRANCH   3  11
HETATM   11  N   UNL     1      -9.363   9.629  68.205  1.00  0.00    -0.133 N  
HETATM   12  O   UNL     1     -10.897   8.109  67.387  1.00  0.00    -0.226 OA 
HETATM   13  C   UNL     1     -10.065   8.987  67.201  1.00  0.00    -0.243 C  
HETATM   14  H   UNL     1      -8.586  10.234  67.939  1.00  0.00     0.000 HD 
BRANCH  13  15
HETATM   15  C   UNL     1      -9.750   9.380  65.760  1.00  0.00    -0.284 C  
BRANCH  15  16
HETATM   16  C   UNL     1     -10.381  10.577  65.184  1.00  0.00    -0.240 A  
HETATM   17  C   UNL     1     -11.526  12.467  65.224  1.00  0.00    -0.344 A  
HETATM   18  N   UNL     1     -12.260  13.488  65.846  1.00  0.00    -0.442 NA 
HETATM   19  H2  UNL     1     -13.118  13.606  65.305  1.00  0.00     0.000 HD 
HETATM   20  C   UNL     1     -10.266  10.967  63.855  1.00  0.00    -0.354 A  
HETATM   21  H1  UNL     1     -12.529  13.494  66.829  1.00  0.00     0.000 HD 
HETATM   22  S   UNL     1     -11.081  12.457  63.594  1.00  0.00    -0.475 SA 
HETATM   23  N   UNL     1     -11.150  11.456  65.956  1.00  0.00    -0.226 NA 
ENDBRANCH  15  16
BRANCH  15  24
HETATM   24  N   UNL     1      -8.935   8.733  64.974  1.00  0.00    -0.403 NA 
HETATM   25  H   UNL     1      -9.141   8.517  63.998  1.00  0.00     0.000 HD 
BRANCH  24  26
HETATM   26  O   UNL     1      -7.749   8.369  65.615  1.00  0.00    -0.092 OA 
HETATM   27  O   UNL     1      -6.761   7.468  67.785  1.00  0.00    -0.062 OA 
HETATM   28  O   UNL     1      -6.396   5.378  67.047  1.00  0.00    -0.037 OA 
HETATM   29  C   UNL     1      -8.760   6.107  65.381  1.00  0.00    -0.071 C  
HETATM   30  C   UNL     1      -6.507   6.717  64.375  1.00  0.00    -0.038 C  
HETATM   31  C   UNL     1      -7.484   6.948  65.522  1.00  0.00    -0.086 C  
HETATM   32  C   UNL     1      -6.836   6.643  66.879  1.00  0.00    -0.065 C  
ENDBRANCH  24  26
ENDBRANCH  15  24
ENDBRANCH  13  15
ENDBRANCH   3  11
TORSDOF 5
ENDMDL
MODEL      148
REMARK 921   NORMALIZED FREE ENERGY PREDICTED BY IDOCK:   -4.94 KCAL/MOL
REMARK 922        TOTAL FREE ENERGY PREDICTED BY IDOCK:   -7.53 KCAL/MOL
REMARK 923 INTER-LIGAND FREE ENERGY PREDICTED BY IDOCK:   -6.02 KCAL/MOL
REMARK 924 INTRA-LIGAND FREE ENERGY PREDICTED BY IDOCK:   -1.51 KCAL/MOL
REMARK 927      BINDING AFFINITY PREDICTED BY RF-SCORE:    0.00 PKD
ROOT
HETATM    1  C   UNL     1      -8.656   8.525  72.073  1.00  0.00    -0.250 C  
HETATM    2  C   UNL     1      -9.691   7.720  71.320  1.00  0.00    -0.157 C  
HETATM    3  C   UNL     1      -9.131   6.939  70.089  1.00  0.00    -0.152 C  
HETATM    4  O   UNL     1     -10.614   7.125  74.175  1.00  0.00    -0.283 OA 
HETATM    5  C   UNL     1      -9.825   5.692  70.779  1.00  0.00    -0.183 C  
HETATM    6  N   UNL     1     -10.060   6.440  71.917  1.00  0.00    -0.183 N  
HETATM    7  O   UNL     1     -11.510   5.029  73.292  1.00  0.00    -0.332 OA 
HETATM    8  O   UNL     1      -9.099   5.233  73.793  1.00  0.00    -0.123 OA 
HETATM    9  O   UNL     1     -10.067   4.534  70.544  1.00  0.00    -0.222 OA 
HETATM   10  S   UNL     1     -10.348   5.891  73.435  1.00  0.00    -0.249 S  
ENDROOT
BRANCH   3  11
HETATM   11  N   UNL     1      -9.591   7.315  68.716  1.00  0.00    -0.142 N  
HETATM   12  O   UNL     1      -8.255   9.176  68.425  1.00  0.00    -0.113 OA 
HETATM   13  C   UNL     1      -9.043   8.351  67.982  1.00  0.00    -0.137 C  
HETATM   14  H   UNL     1     -10.351   6.777  68.298  1.00  0.00     0.000 HD 
BRANCH  13  15
HETATM   15  C   UNL     1      -9.484   8.492  66.528  1.00  0.00    -0.218 C  
BRANCH  15  16
HETATM   16  C   UNL     1      -9.892   9.811  66.022  1.00  0.00    -0.274 A  
HETATM   17  C   UNL     1      -9.994  11.464  64.557  1.00  0.00    -0.271 A  
HETATM   18  N   UNL     1      -9.690  12.098  63.343  1.00  0.00    -0.645 NA 
HETATM   19  H2  UNL     1      -9.370  13.039  63.574  1.00  0.00     0.000 HD 
HETATM   20  C   UNL     1     -10.780  10.664  66.667  1.00  0.00    -0.181 A  
HETATM   21  H1  UNL     1      -9.048  11.732  62.641  1.00  0.00     0.000 HD 
HETATM   22  S   UNL     1     -11.059  12.070  65.720  1.00  0.00    -0.325 SA 
HETATM   23  N   UNL     1      -9.422  10.318  64.804  1.00  0.00    -0.257 NA 
ENDBRANCH  15  16
BRANCH  15  24
HETATM   24  N   UNL     1      -9.521   7.516  65.663  1.00  0.00    -0.308 NA 
HETATM   25  H   UNL     1     -10.159   7.488  64.867  1.00  0.00     0.000 HD 
BRANCH  24  26
HETATM   26  O   UNL     1      -8.590   6.514  65.947  1.00  0.00    -0.143 OA 
HETATM   27  O   UNL     1      -7.629   5.046  67.795  1.00  0.00    -0.082 OA 
HETATM   28  O   UNL     1      -8.701   3.162  67.202  1.00  0.00    -0.106 OA 
HETATM   29  C   UNL     1     -10.674   5.194  66.268  1.00  0.00    -0.272 C  
HETATM   30  C   UNL     1      -8.895   4.562  64.566  1.00  0.00    -0.151 C  
HETATM   31  C   UNL     1      -9.179   5.191  65.926  1.00  0.00    -0.158 C  
HETATM   32  C   UNL     1      -8.414   4.472  67.045  1.00  0.00    -0.104 C  
ENDBRANCH  24  26
ENDBRANCH  15  24
ENDBRANCH  13  15
ENDBRANCH   3  11
TORSDOF 5
ENDMDL
MODEL      149
REMARK 921   NORMALIZED FREE ENERGY PREDICTED BY IDOCK:   -4.92 KCAL/MOL
REMARK 922        TOTAL FREE ENERGY PREDICTED BY IDOCK:   -7.51 KCAL/MOL
REMARK 923 INTER-LIGAND FREE ENERGY PREDICTED BY IDOCK:   -6.57 KCAL/MOL
REMARK 924 INTRA-LIGAND FREE ENERGY PREDICTED BY IDOCK:   -0.94 KCAL/MOL
REMARK 927      BINDING AFFINITY PREDICTED BY RF-SCORE:    0.00 PKD
ROOT
HETATM    1  C   UNL     1      -9.692   5.269  67.514  1.00  0.00    -0.167 C  
HETATM    2  C   UNL     1      -9.841   6.565  66.750  1.00  0.00    -0.162 C  
HETATM    3  C   UNL     1      -9.371   7.833  67.532  1.00  0.00    -0.139 C  
HETATM    4  O   UNL     1      -8.840   4.785  64.472  1.00  0.00    -0.150 OA 
HETATM    5  C   UNL     1      -8.495   8.098  66.237  1.00  0.00    -0.131 C  
HETATM    6  N   UNL     1      -8.807   6.840  65.756  1.00  0.00    -0.116 N  
HETATM    7  O   UNL     1      -7.946   6.825  63.467  1.00  0.00    -0.119 OA 
HETATM    8  O   UNL     1      -6.715   5.699  65.290  1.00  0.00    -0.039 OA 
HETATM    9  O   UNL     1      -7.785   8.955  65.773  1.00  0.00    -0.092 OA 
HETATM   10  S   UNL     1      -7.990   5.964  64.637  1.00  0.00    -0.125 S  
ENDROOT
BRANCH   3  11
HETATM   11  N   UNL     1     -10.379   8.872  67.910  1.00  0.00    -0.222 N  
HETATM   12  O   UNL     1      -8.941  10.357  68.940  1.00  0.00    -0.151 OA 
HETATM   13  C   UNL     1     -10.050  10.077  68.503  1.00  0.00    -0.169 C  
HETATM   14  H   UNL     1     -11.363   8.680  67.720  1.00  0.00     0.000 HD 
BRANCH  13  15
HETATM   15  C   UNL     1     -11.161  11.112  68.655  1.00  0.00    -0.255 C  
BRANCH  15  16
HETATM   16  C   UNL     1     -11.922  11.175  69.912  1.00  0.00    -0.363 A  
HETATM   17  C   UNL     1     -13.014  12.168  71.558  1.00  0.00    -0.295 A  
HETATM   18  N   UNL     1     -13.523  13.277  72.249  1.00  0.00    -0.561 NA 
HETATM   19  H2  UNL     1     -13.231  13.179  73.221  1.00  0.00     0.000 HD 
HETATM   20  C   UNL     1     -12.371  10.066  70.620  1.00  0.00    -0.253 A  
HETATM   21  H1  UNL     1     -13.360  14.250  71.989  1.00  0.00     0.000 HD 
HETATM   22  S   UNL     1     -13.286  10.557  71.989  1.00  0.00    -0.244 SA 
HETATM   23  N   UNL     1     -12.285  12.393  70.500  1.00  0.00    -0.349 NA 
ENDBRANCH  15  16
BRANCH  15  24
HETATM   24  N   UNL     1     -11.499  11.981  67.743  1.00  0.00    -0.305 NA 
HETATM   25  H   UNL     1     -12.299  11.866  67.119  1.00  0.00     0.000 HD 
BRANCH  24  26
HETATM   26  O   UNL     1     -10.644  13.085  67.713  1.00  0.00    -0.220 OA 
HETATM   27  O   UNL     1      -9.026  14.411  66.257  1.00  0.00    -0.161 OA 
HETATM   28  O   UNL     1     -10.413  16.127  65.838  1.00  0.00    -0.330 OA 
HETATM   29  C   UNL     1     -12.400  13.927  66.164  1.00  0.00    -0.504 C  
HETATM   30  C   UNL     1     -11.768  15.131  68.311  1.00  0.00    -0.336 C  
HETATM   31  C   UNL     1     -11.280  14.262  67.158  1.00  0.00    -0.322 C  
HETATM   32  C   UNL     1     -10.128  14.933  66.400  1.00  0.00    -0.284 C  
ENDBRANCH  24  26
ENDBRANCH  15  24
ENDBRANCH  13  15
ENDBRANCH   3  11
TORSDOF 5
ENDMDL
MODEL      150
REMARK 921   NORMALIZED FREE ENERGY PREDICTED BY IDOCK:   -4.92 KCAL/MOL
REMARK 922        TOTAL FREE ENERGY PREDICTED BY IDOCK:   -7.50 KCAL/MOL
REMARK 923 INTER-LIGAND FREE ENERGY PREDICTED BY IDOCK:   -6.57 KCAL/MOL
REMARK 924 INTRA-LIGAND FREE ENERGY PREDICTED BY IDOCK:   -0.93 KCAL/MOL
REMARK 927      BINDING AFFINITY PREDICTED BY RF-SCORE:    0.00 PKD
ROOT
HETATM    1  C   UNL     1      -7.211   7.996  69.968  1.00  0.00    -0.061 C  
HETATM    2  C   UNL     1      -8.514   8.627  70.407  1.00  0.00    -0.140 C  
HETATM    3  C   UNL     1      -9.534   8.873  69.250  1.00  0.00    -0.161 C  
HETATM    4  O   UNL     1      -8.123   6.678  72.733  1.00  0.00    -0.107 OA 
HETATM    5  C   UNL     1     -10.530   8.070  70.188  1.00  0.00    -0.225 C  
HETATM    6  N   UNL     1      -9.483   7.724  71.020  1.00  0.00    -0.155 N  
HETATM    7  O   UNL     1     -10.556   6.694  72.962  1.00  0.00    -0.223 OA 
HETATM    8  O   UNL     1      -9.484   5.304  71.223  1.00  0.00    -0.144 OA 
HETATM    9  O   UNL     1     -11.699   7.776  70.241  1.00  0.00    -0.123 OA 
HETATM   10  S   UNL     1      -9.419   6.477  72.084  1.00  0.00    -0.146 S  
ENDROOT
BRANCH   3  11
HETATM   11  N   UNL     1      -9.903  10.277  68.890  1.00  0.00    -0.185 N  
HETATM   12  O   UNL     1      -8.074  10.762  67.567  1.00  0.00    -0.110 OA 
HETATM   13  C   UNL     1      -9.175  11.057  68.010  1.00  0.00    -0.159 C  
HETATM   14  H   UNL     1     -10.737  10.681  69.317  1.00  0.00     0.000 HD 
BRANCH  13  15
HETATM   15  C   UNL     1      -9.779  12.396  67.594  1.00  0.00    -0.195 C  
BRANCH  15  16
HETATM   16  C   UNL     1      -9.046  13.639  67.882  1.00  0.00    -0.198 A  
HETATM   17  C   UNL     1      -7.414  15.112  67.658  1.00  0.00    -0.181 A  
HETATM   18  N   UNL     1      -6.214  15.597  67.118  1.00  0.00    -0.305 NA 
HETATM   19  H2  UNL     1      -5.623  15.867  67.905  1.00  0.00     0.000 HD 
HETATM   20  C   UNL     1      -9.500  14.646  68.725  1.00  0.00    -0.199 A  
HETATM   21  H1  UNL     1      -5.620  15.085  66.466  1.00  0.00     0.000 HD 
HETATM   22  S   UNL     1      -8.397  15.963  68.738  1.00  0.00    -0.221 SA 
HETATM   23  N   UNL     1      -7.807  13.924  67.295  1.00  0.00    -0.155 NA 
ENDBRANCH  15  16
BRANCH  15  24
HETATM   24  N   UNL     1     -10.918  12.540  66.976  1.00  0.00    -0.258 NA 
HETATM   25  H   UNL     1     -11.818  12.600  67.454  1.00  0.00     0.000 HD 
BRANCH  24  26
HETATM   26  O   UNL     1     -10.771  12.602  65.589  1.00  0.00    -0.261 OA 
HETATM   27  O   UNL     1     -11.767  11.854  63.366  1.00  0.00    -0.447 OA 
HETATM   28  O   UNL     1     -12.705  13.825  62.834  1.00  0.00    -0.558 OA 
HETATM   29  C   UNL     1     -12.830  13.980  65.810  1.00  0.00    -0.416 C  
HETATM   30  C   UNL     1     -10.686  14.870  64.778  1.00  0.00    -0.365 C  
HETATM   31  C   UNL     1     -11.574  13.651  64.994  1.00  0.00    -0.332 C  
HETATM   32  C   UNL     1     -11.999  13.024  63.660  1.00  0.00    -0.539 C  
ENDBRANCH  24  26
ENDBRANCH  15  24
ENDBRANCH  13  15
ENDBRANCH   3  11
TORSDOF 5
ENDMDL
MODEL      151
REMARK 921   NORMALIZED FREE ENERGY PREDICTED BY IDOCK:   -4.90 KCAL/MOL
REMARK 922        TOTAL FREE ENERGY PREDICTED BY IDOCK:   -7.48 KCAL/MOL
REMARK 923 INTER-LIGAND FREE ENERGY PREDICTED BY IDOCK:   -6.81 KCAL/MOL
REMARK 924 INTRA-LIGAND FREE ENERGY PREDICTED BY IDOCK:   -0.68 KCAL/MOL
REMARK 927      BINDING AFFINITY PREDICTED BY RF-SCORE:    0.00 PKD
ROOT
HETATM    1  C   UNL     1     -11.366  14.994  69.127  1.00  0.00    -0.311 C  
HETATM    2  C   UNL     1     -10.618  14.503  67.909  1.00  0.00    -0.243 C  
HETATM    3  C   UNL     1     -11.519  13.827  66.827  1.00  0.00    -0.348 C  
HETATM    4  O   UNL     1      -9.151  17.155  68.327  1.00  0.00    -0.242 OA 
HETATM    5  C   UNL     1     -10.827  14.863  65.847  1.00  0.00    -0.334 C  
HETATM    6  N   UNL     1     -10.265  15.522  66.924  1.00  0.00    -0.273 N  
HETATM    7  O   UNL     1      -8.705  17.119  65.924  1.00  0.00    -0.526 OA 
HETATM    8  O   UNL     1     -10.908  17.859  66.765  1.00  0.00    -0.209 OA 
HETATM    9  O   UNL     1     -10.769  15.108  64.667  1.00  0.00    -0.366 OA 
HETATM   10  S   UNL     1      -9.707  17.063  66.976  1.00  0.00    -0.273 S  
ENDROOT
BRANCH   3  11
HETATM   11  N   UNL     1     -11.338  12.371  66.534  1.00  0.00    -0.319 N  
HETATM   12  O   UNL     1      -9.055  12.390  66.192  1.00  0.00    -0.163 OA 
HETATM   13  C   UNL     1     -10.106  11.778  66.329  1.00  0.00    -0.217 C  
HETATM   14  H   UNL     1     -12.171  11.783  66.483  1.00  0.00     0.000 HD 
BRANCH  13  15
HETATM   15  C   UNL     1     -10.065  10.256  66.232  1.00  0.00    -0.236 C  
BRANCH  15  16
HETATM   16  C   UNL     1     -10.081   9.453  67.464  1.00  0.00    -0.215 A  
HETATM   17  C   UNL     1     -10.593   7.713  68.727  1.00  0.00    -0.145 A  
HETATM   18  N   UNL     1     -11.195   6.473  68.988  1.00  0.00    -0.530 NA 
HETATM   19  H2  UNL     1     -11.722   6.577  69.856  1.00  0.00     0.000 HD 
HETATM   20  C   UNL     1      -9.379   9.768  68.621  1.00  0.00    -0.147 A  
HETATM   21  H1  UNL     1     -11.798   5.971  68.337  1.00  0.00     0.000 HD 
HETATM   22  S   UNL     1      -9.595   8.545  69.808  1.00  0.00    -0.172 SA 
HETATM   23  N   UNL     1     -10.809   8.261  67.565  1.00  0.00    -0.125 NA 
ENDBRANCH  15  16
BRANCH  15  24
HETATM   24  N   UNL     1     -10.027   9.582  65.116  1.00  0.00    -0.384 NA 
HETATM   25  H   UNL     1     -10.755   9.626  64.402  1.00  0.00     0.000 HD 
BRANCH  24  26
HETATM   26  O   UNL     1      -8.879   8.793  65.006  1.00  0.00    -0.180 OA 
HETATM   27  O   UNL     1      -7.879   6.741  63.873  1.00  0.00    -0.114 OA 
HETATM   28  O   UNL     1      -6.623   7.862  62.385  1.00  0.00    -0.083 OA 
HETATM   29  C   UNL     1      -8.864   9.798  62.730  1.00  0.00    -0.250 C  
HETATM   30  C   UNL     1      -6.942  10.079  64.368  1.00  0.00    -0.129 C  
HETATM   31  C   UNL     1      -8.059   9.167  63.872  1.00  0.00    -0.155 C  
HETATM   32  C   UNL     1      -7.509   7.814  63.403  1.00  0.00    -0.115 C  
ENDBRANCH  24  26
ENDBRANCH  15  24
ENDBRANCH  13  15
ENDBRANCH   3  11
TORSDOF 5
ENDMDL
MODEL      152
REMARK 921   NORMALIZED FREE ENERGY PREDICTED BY IDOCK:   -4.88 KCAL/MOL
REMARK 922        TOTAL FREE ENERGY PREDICTED BY IDOCK:   -7.46 KCAL/MOL
REMARK 923 INTER-LIGAND FREE ENERGY PREDICTED BY IDOCK:   -6.63 KCAL/MOL
REMARK 924 INTRA-LIGAND FREE ENERGY PREDICTED BY IDOCK:   -0.83 KCAL/MOL
REMARK 927      BINDING AFFINITY PREDICTED BY RF-SCORE:    0.00 PKD
ROOT
HETATM    1  C   UNL     1     -11.105  14.734  66.158  1.00  0.00    -0.339 C  
HETATM    2  C   UNL     1     -10.179  14.680  67.352  1.00  0.00    -0.240 C  
HETATM    3  C   UNL     1      -8.978  13.694  67.192  1.00  0.00    -0.231 C  
HETATM    4  O   UNL     1     -10.681  17.697  67.281  1.00  0.00    -0.325 OA 
HETATM    5  C   UNL     1      -8.107  14.960  67.581  1.00  0.00    -0.166 C  
HETATM    6  N   UNL     1      -9.217  15.773  67.462  1.00  0.00    -0.203 N  
HETATM    7  O   UNL     1      -8.492  17.938  68.340  1.00  0.00    -0.282 OA 
HETATM    8  O   UNL     1      -8.655  17.550  65.905  1.00  0.00    -0.528 OA 
HETATM    9  O   UNL     1      -6.963  15.236  67.846  1.00  0.00    -0.117 OA 
HETATM   10  S   UNL     1      -9.250  17.396  67.225  1.00  0.00    -0.238 S  
ENDROOT
BRANCH   3  11
HETATM   11  N   UNL     1      -8.895  12.495  68.084  1.00  0.00    -0.188 N  
HETATM   12  O   UNL     1     -10.852  11.463  67.422  1.00  0.00    -0.224 OA 
HETATM   13  C   UNL     1      -9.801  11.451  68.049  1.00  0.00    -0.184 C  
HETATM   14  H   UNL     1      -8.128  12.447  68.755  1.00  0.00     0.000 HD 
BRANCH  13  15
HETATM   15  C   UNL     1      -9.479  10.213  68.882  1.00  0.00    -0.182 C  
BRANCH  15  16
HETATM   16  C   UNL     1      -8.489   9.246  68.385  1.00  0.00    -0.120 A  
HETATM   17  C   UNL     1      -6.562   8.162  68.372  1.00  0.00    -0.059 A  
HETATM   18  N   UNL     1      -5.276   7.865  68.844  1.00  0.00    -0.022 NA 
HETATM   19  H2  UNL     1      -4.651   7.891  68.038  1.00  0.00     0.000 HD 
HETATM   20  C   UNL     1      -8.717   8.343  67.353  1.00  0.00    -0.135 A  
HETATM   21  H1  UNL     1      -4.804   8.364  69.598  1.00  0.00     0.000 HD 
HETATM   22  S   UNL     1      -7.344   7.335  67.123  1.00  0.00    -0.096 SA 
HETATM   23  N   UNL     1      -7.209   9.140  68.942  1.00  0.00    -0.072 NA 
ENDBRANCH  15  16
BRANCH  15  24
HETATM   24  N   UNL     1     -10.014   9.935  70.039  1.00  0.00    -0.262 NA 
HETATM   25  H   UNL     1      -9.683  10.320  70.924  1.00  0.00     0.000 HD 
BRANCH  24  26
HETATM   26  O   UNL     1     -11.089   9.049  69.931  1.00  0.00    -0.223 OA 
HETATM   27  O   UNL     1     -11.737   6.589  69.782  1.00  0.00    -0.382 OA 
HETATM   28  O   UNL     1     -12.455   6.389  71.901  1.00  0.00    -0.337 OA 
HETATM   29  C   UNL     1     -10.386   8.507  72.255  1.00  0.00    -0.402 C  
HETATM   30  C   UNL     1     -12.711   9.361  71.687  1.00  0.00    -0.459 C  
HETATM   31  C   UNL     1     -11.515   8.539  71.218  1.00  0.00    -0.277 C  
HETATM   32  C   UNL     1     -11.923   7.099  70.883  1.00  0.00    -0.334 C  
ENDBRANCH  24  26
ENDBRANCH  15  24
ENDBRANCH  13  15
ENDBRANCH   3  11
TORSDOF 5
ENDMDL
MODEL      153
REMARK 921   NORMALIZED FREE ENERGY PREDICTED BY IDOCK:   -4.88 KCAL/MOL
REMARK 922        TOTAL FREE ENERGY PREDICTED BY IDOCK:   -7.45 KCAL/MOL
REMARK 923 INTER-LIGAND FREE ENERGY PREDICTED BY IDOCK:   -6.45 KCAL/MOL
REMARK 924 INTRA-LIGAND FREE ENERGY PREDICTED BY IDOCK:   -1.01 KCAL/MOL
REMARK 927      BINDING AFFINITY PREDICTED BY RF-SCORE:    0.00 PKD
ROOT
HETATM    1  C   UNL     1     -10.621   7.611  68.920  1.00  0.00    -0.176 C  
HETATM    2  C   UNL     1     -10.579   8.791  69.864  1.00  0.00    -0.224 C  
HETATM    3  C   UNL     1     -11.101  10.128  69.249  1.00  0.00    -0.225 C  
HETATM    4  O   UNL     1     -11.543   6.651  71.826  1.00  0.00    -0.272 OA 
HETATM    5  C   UNL     1     -12.036  10.155  70.530  1.00  0.00    -0.311 C  
HETATM    6  N   UNL     1     -11.662   8.862  70.842  1.00  0.00    -0.281 N  
HETATM    7  O   UNL     1     -12.598   8.472  73.068  1.00  0.00    -0.224 OA 
HETATM    8  O   UNL     1     -13.693   7.548  71.055  1.00  0.00    -0.210 OA 
HETATM    9  O   UNL     1     -12.813  10.896  71.078  1.00  0.00    -0.368 OA 
HETATM   10  S   UNL     1     -12.460   7.790  71.792  1.00  0.00    -0.325 S  
ENDROOT
BRANCH   3  11
HETATM   11  N   UNL     1     -10.148  11.266  69.063  1.00  0.00    -0.359 N  
HETATM   12  O   UNL     1     -11.467  12.571  67.688  1.00  0.00    -0.290 OA 
HETATM   13  C   UNL     1     -10.460  12.420  68.367  1.00  0.00    -0.235 C  
HETATM   14  H   UNL     1      -9.216  11.186  69.471  1.00  0.00     0.000 HD 
BRANCH  13  15
HETATM   15  C   UNL     1      -9.457  13.569  68.425  1.00  0.00    -0.185 C  
BRANCH  15  16
HETATM   16  C   UNL     1      -9.872  14.912  67.995  1.00  0.00    -0.216 A  
HETATM   17  C   UNL     1     -10.392  16.488  66.535  1.00  0.00    -0.305 A  
HETATM   18  N   UNL     1     -10.571  17.006  65.244  1.00  0.00    -0.655 NA 
HETATM   19  H2  UNL     1     -10.065  17.891  65.207  1.00  0.00     0.000 HD 
HETATM   20  C   UNL     1     -10.270  15.929  68.855  1.00  0.00    -0.226 A  
HETATM   21  H1  UNL     1     -10.354  16.507  64.382  1.00  0.00     0.000 HD 
HETATM   22  S   UNL     1     -10.752  17.316  67.963  1.00  0.00    -0.308 SA 
HETATM   23  N   UNL     1      -9.922  15.277  66.644  1.00  0.00    -0.246 NA 
ENDBRANCH  15  16
BRANCH  15  24
HETATM   24  N   UNL     1      -8.227  13.463  68.847  1.00  0.00    -0.351 NA 
HETATM   25  H   UNL     1      -7.607  14.260  68.992  1.00  0.00     0.000 HD 
BRANCH  24  26
HETATM   26  O   UNL     1      -7.853  12.137  69.077  1.00  0.00     0.008 OA 
HETATM   27  O   UNL     1      -7.738   9.810  68.044  1.00  0.00    -0.083 OA 
HETATM   28  O   UNL     1      -5.527   9.820  67.646  1.00  0.00    -0.036 OA 
HETATM   29  C   UNL     1      -6.107  12.735  67.409  1.00  0.00    -0.123 C  
HETATM   30  C   UNL     1      -5.549  11.940  69.757  1.00  0.00    -0.096 C  
HETATM   31  C   UNL     1      -6.522  11.845  68.587  1.00  0.00    -0.062 C  
HETATM   32  C   UNL     1      -6.662  10.400  68.091  1.00  0.00    -0.061 C  
ENDBRANCH  24  26
ENDBRANCH  15  24
ENDBRANCH  13  15
ENDBRANCH   3  11
TORSDOF 5
ENDMDL
MODEL      154
REMARK 921   NORMALIZED FREE ENERGY PREDICTED BY IDOCK:   -4.86 KCAL/MOL
REMARK 922        TOTAL FREE ENERGY PREDICTED BY IDOCK:   -7.43 KCAL/MOL
REMARK 923 INTER-LIGAND FREE ENERGY PREDICTED BY IDOCK:   -6.19 KCAL/MOL
REMARK 924 INTRA-LIGAND FREE ENERGY PREDICTED BY IDOCK:   -1.24 KCAL/MOL
REMARK 927      BINDING AFFINITY PREDICTED BY RF-SCORE:    0.00 PKD
ROOT
HETATM    1  C   UNL     1     -12.173  14.482  67.402  1.00  0.00    -0.165 C  
HETATM    2  C   UNL     1     -10.972  13.667  66.979  1.00  0.00    -0.289 C  
HETATM    3  C   UNL     1     -10.733  12.379  67.829  1.00  0.00    -0.221 C  
HETATM    4  O   UNL     1     -12.039  14.411  64.210  1.00  0.00    -0.470 OA 
HETATM    5  C   UNL     1     -10.721  11.655  66.418  1.00  0.00    -0.272 C  
HETATM    6  N   UNL     1     -11.162  12.815  65.809  1.00  0.00    -0.297 N  
HETATM    7  O   UNL     1     -10.985  12.355  63.413  1.00  0.00    -0.456 OA 
HETATM    8  O   UNL     1     -13.171  12.262  64.561  1.00  0.00    -0.799 OA 
HETATM    9  O   UNL     1     -10.491  10.567  65.951  1.00  0.00    -0.228 OA 
HETATM   10  S   UNL     1     -11.910  12.961  64.357  1.00  0.00    -0.413 S  
ENDROOT
BRANCH   3  11
HETATM   11  N   UNL     1      -9.500  12.278  68.670  1.00  0.00    -0.391 N  
HETATM   12  O   UNL     1      -7.940  12.566  66.992  1.00  0.00    -0.160 OA 
HETATM   13  C   UNL     1      -8.222  12.468  68.179  1.00  0.00    -0.170 C  
HETATM   14  H   UNL     1      -9.609  12.057  69.660  1.00  0.00     0.000 HD 
BRANCH  13  15
HETATM   15  C   UNL     1      -7.081  12.523  69.191  1.00  0.00     0.020 C  
BRANCH  15  16
HETATM   16  C   UNL     1      -6.520  13.827  69.577  1.00  0.00    -0.105 A  
HETATM   17  C   UNL     1      -6.341  16.030  69.550  1.00  0.00    -0.182 A  
HETATM   18  N   UNL     1      -6.680  17.321  69.119  1.00  0.00    -0.238 NA 
HETATM   19  H2  UNL     1      -5.808  17.785  68.862  1.00  0.00     0.000 HD 
HETATM   20  C   UNL     1      -5.563  14.012  70.567  1.00  0.00    -0.144 A  
HETATM   21  H1  UNL     1      -7.353  17.529  68.381  1.00  0.00     0.000 HD 
HETATM   22  S   UNL     1      -5.226  15.685  70.772  1.00  0.00    -0.140 SA 
HETATM   23  N   UNL     1      -6.935  15.021  68.976  1.00  0.00    -0.117 NA 
ENDBRANCH  15  16
BRANCH  15  24
HETATM   24  N   UNL     1      -6.549  11.483  69.771  1.00  0.00    -0.251 NA 
HETATM   25  H   UNL     1      -5.553  11.393  69.973  1.00  0.00     0.000 HD 
BRANCH  24  26
HETATM   26  O   UNL     1      -7.495  10.504  70.085  1.00  0.00    -0.153 OA 
HETATM   27  O   UNL     1      -9.479   9.180  69.187  1.00  0.00    -0.153 OA 
HETATM   28  O   UNL     1      -8.366   7.258  68.847  1.00  0.00    -0.124 OA 
HETATM   29  C   UNL     1      -6.155   9.215  68.432  1.00  0.00    -0.045 C  
HETATM   30  C   UNL     1      -6.476   8.452  70.834  1.00  0.00    -0.040 C  
HETATM   31  C   UNL     1      -7.091   9.184  69.647  1.00  0.00    -0.059 C  
HETATM   32  C   UNL     1      -8.425   8.552  69.229  1.00  0.00    -0.128 C  
ENDBRANCH  24  26
ENDBRANCH  15  24
ENDBRANCH  13  15
ENDBRANCH   3  11
TORSDOF 5
ENDMDL
MODEL      155
REMARK 921   NORMALIZED FREE ENERGY PREDICTED BY IDOCK:   -4.84 KCAL/MOL
REMARK 922        TOTAL FREE ENERGY PREDICTED BY IDOCK:   -7.40 KCAL/MOL
REMARK 923 INTER-LIGAND FREE ENERGY PREDICTED BY IDOCK:   -5.93 KCAL/MOL
REMARK 924 INTRA-LIGAND FREE ENERGY PREDICTED BY IDOCK:   -1.47 KCAL/MOL
REMARK 927      BINDING AFFINITY PREDICTED BY RF-SCORE:    0.00 PKD
ROOT
HETATM    1  C   UNL     1      -9.443   9.567  70.576  1.00  0.00    -0.306 C  
HETATM    2  C   UNL     1     -10.391   8.718  69.759  1.00  0.00    -0.211 C  
HETATM    3  C   UNL     1      -9.715   7.510  69.037  1.00  0.00    -0.162 C  
HETATM    4  O   UNL     1     -12.178   9.217  72.192  1.00  0.00    -0.359 OA 
HETATM    5  C   UNL     1     -10.848   6.665  69.758  1.00  0.00    -0.286 C  
HETATM    6  N   UNL     1     -11.202   7.767  70.513  1.00  0.00    -0.266 N  
HETATM    7  O   UNL     1     -13.267   7.099  71.642  1.00  0.00    -0.374 OA 
HETATM    8  O   UNL     1     -11.110   7.108  72.849  1.00  0.00    -0.292 OA 
HETATM    9  O   UNL     1     -11.283   5.540  69.767  1.00  0.00    -0.152 OA 
HETATM   10  S   UNL     1     -12.019   7.786  71.935  1.00  0.00    -0.315 S  
ENDROOT
BRANCH   3  11
HETATM   11  N   UNL     1      -9.676   7.482  67.542  1.00  0.00    -0.143 N  
HETATM   12  O   UNL     1      -8.151   9.187  67.227  1.00  0.00    -0.105 OA 
HETATM   13  C   UNL     1      -8.829   8.270  66.784  1.00  0.00    -0.140 C  
HETATM   14  H   UNL     1     -10.310   6.848  67.055  1.00  0.00     0.000 HD 
BRANCH  13  15
HETATM   15  C   UNL     1      -8.768   7.994  65.284  1.00  0.00    -0.029 C  
BRANCH  15  16
HETATM   16  C   UNL     1      -8.863   9.118  64.339  1.00  0.00    -0.116 A  
HETATM   17  C   UNL     1      -9.472  11.130  63.658  1.00  0.00    -0.257 A  
HETATM   18  N   UNL     1     -10.111  12.371  63.793  1.00  0.00    -0.550 NA 
HETATM   19  H2  UNL     1     -10.678  12.505  62.956  1.00  0.00     0.000 HD 
HETATM   20  C   UNL     1      -8.213   9.173  63.112  1.00  0.00    -0.176 A  
HETATM   21  H1  UNL     1     -10.689  12.644  64.588  1.00  0.00     0.000 HD 
HETATM   22  S   UNL     1      -8.513  10.680  62.341  1.00  0.00    -0.265 SA 
HETATM   23  N   UNL     1      -9.618  10.263  64.619  1.00  0.00    -0.289 NA 
ENDBRANCH  15  16
BRANCH  15  24
HETATM   24  N   UNL     1      -8.624   6.814  64.749  1.00  0.00    -0.349 NA 
HETATM   25  H   UNL     1      -8.957   6.570  63.816  1.00  0.00     0.000 HD 
BRANCH  24  26
HETATM   26  O   UNL     1      -7.965   5.920  65.596  1.00  0.00    -0.107 OA 
HETATM   27  O   UNL     1      -7.928   4.942  67.949  1.00  0.00    -0.092 OA 
HETATM   28  O   UNL     1      -8.834   2.958  67.412  1.00  0.00    -0.112 OA 
HETATM   29  C   UNL     1     -10.110   4.684  65.342  1.00  0.00    -0.170 C  
HETATM   30  C   UNL     1      -7.866   3.693  64.679  1.00  0.00    -0.085 C  
HETATM   31  C   UNL     1      -8.605   4.621  65.636  1.00  0.00    -0.124 C  
HETATM   32  C   UNL     1      -8.402   4.197  67.096  1.00  0.00    -0.100 C  
ENDBRANCH  24  26
ENDBRANCH  15  24
ENDBRANCH  13  15
ENDBRANCH   3  11
TORSDOF 5
ENDMDL
MODEL      156
REMARK 921   NORMALIZED FREE ENERGY PREDICTED BY IDOCK:   -4.80 KCAL/MOL
REMARK 922        TOTAL FREE ENERGY PREDICTED BY IDOCK:   -7.35 KCAL/MOL
REMARK 923 INTER-LIGAND FREE ENERGY PREDICTED BY IDOCK:   -6.16 KCAL/MOL
REMARK 924 INTRA-LIGAND FREE ENERGY PREDICTED BY IDOCK:   -1.19 KCAL/MOL
REMARK 927      BINDING AFFINITY PREDICTED BY RF-SCORE:    0.00 PKD
ROOT
HETATM    1  C   UNL     1     -11.955  12.196  68.497  1.00  0.00    -0.273 C  
HETATM    2  C   UNL     1     -10.787  11.910  67.581  1.00  0.00    -0.227 C  
HETATM    3  C   UNL     1     -10.620  10.405  67.199  1.00  0.00    -0.261 C  
HETATM    4  O   UNL     1     -11.781  14.498  66.287  1.00  0.00    -0.371 OA 
HETATM    5  C   UNL     1     -10.621  10.958  65.713  1.00  0.00    -0.163 C  
HETATM    6  N   UNL     1     -11.000  12.207  66.167  1.00  0.00    -0.285 N  
HETATM    7  O   UNL     1     -10.811  13.658  64.207  1.00  0.00    -0.388 OA 
HETATM    8  O   UNL     1     -13.015  12.838  64.967  1.00  0.00    -0.811 OA 
HETATM    9  O   UNL     1     -10.436  10.560  64.589  1.00  0.00    -0.311 OA 
HETATM   10  S   UNL     1     -11.720  13.408  65.314  1.00  0.00    -0.340 S  
ENDROOT
BRANCH   3  11
HETATM   11  N   UNL     1      -9.405   9.666  67.662  1.00  0.00    -0.127 N  
HETATM   12  O   UNL     1     -10.009   9.402  69.875  1.00  0.00    -0.186 OA 
HETATM   13  C   UNL     1      -9.257   9.160  68.940  1.00  0.00    -0.139 C  
HETATM   14  H   UNL     1      -8.643   9.528  66.997  1.00  0.00     0.000 HD 
BRANCH  13  15
HETATM   15  C   UNL     1      -8.049   8.266  69.207  1.00  0.00    -0.116 C  
BRANCH  15  16
HETATM   16  C   UNL     1      -7.006   8.722  70.138  1.00  0.00    -0.044 A  
HETATM   17  C   UNL     1      -5.756  10.211  71.191  1.00  0.00    -0.054 A  
HETATM   18  N   UNL     1      -5.316  11.510  71.486  1.00  0.00    -0.354 NA 
HETATM   19  H2  UNL     1      -4.298  11.499  71.419  1.00  0.00     0.000 HD 
HETATM   20  C   UNL     1      -6.302   7.892  71.003  1.00  0.00    -0.037 A  
HETATM   21  H1  UNL     1      -5.634  12.354  71.010  1.00  0.00     0.000 HD 
HETATM   22  S   UNL     1      -5.229   8.813  71.980  1.00  0.00    -0.049 SA 
HETATM   23  N   UNL     1      -6.643  10.070  70.246  1.00  0.00    -0.112 NA 
ENDBRANCH  15  16
BRANCH  15  24
HETATM   24  N   UNL     1      -7.859   7.091  68.674  1.00  0.00    -0.116 NA 
HETATM   25  H   UNL     1      -6.939   6.717  68.439  1.00  0.00     0.000 HD 
BRANCH  24  26
HETATM   26  O   UNL     1      -9.055   6.402  68.459  1.00  0.00    -0.127 OA 
HETATM   27  O   UNL     1     -11.196   6.353  67.076  1.00  0.00    -0.373 OA 
HETATM   28  O   UNL     1     -10.584   4.665  65.725  1.00  0.00    -0.301 OA 
HETATM   29  C   UNL     1      -7.910   5.843  66.322  1.00  0.00    -0.101 C  
HETATM   30  C   UNL     1      -8.693   4.071  67.966  1.00  0.00    -0.119 C  
HETATM   31  C   UNL     1      -8.957   5.450  67.372  1.00  0.00    -0.108 C  
HETATM   32  C   UNL     1     -10.351   5.529  66.737  1.00  0.00    -0.269 C  
ENDBRANCH  24  26
ENDBRANCH  15  24
ENDBRANCH  13  15
ENDBRANCH   3  11
TORSDOF 5
ENDMDL
MODEL      157
REMARK 921   NORMALIZED FREE ENERGY PREDICTED BY IDOCK:   -4.78 KCAL/MOL
REMARK 922        TOTAL FREE ENERGY PREDICTED BY IDOCK:   -7.33 KCAL/MOL
REMARK 923 INTER-LIGAND FREE ENERGY PREDICTED BY IDOCK:   -6.78 KCAL/MOL
REMARK 924 INTRA-LIGAND FREE ENERGY PREDICTED BY IDOCK:   -0.55 KCAL/MOL
REMARK 927      BINDING AFFINITY PREDICTED BY RF-SCORE:    0.00 PKD
ROOT
HETATM    1  C   UNL     1     -10.813  16.458  69.528  1.00  0.00    -0.338 C  
HETATM    2  C   UNL     1     -10.186  16.049  68.214  1.00  0.00    -0.237 C  
HETATM    3  C   UNL     1     -11.148  15.285  67.250  1.00  0.00    -0.325 C  
HETATM    4  O   UNL     1      -8.957  18.839  68.477  1.00  0.00    -0.326 OA 
HETATM    5  C   UNL     1     -10.702  16.390  66.204  1.00  0.00    -0.173 C  
HETATM    6  N   UNL     1     -10.073  17.102  67.208  1.00  0.00    -0.286 N  
HETATM    7  O   UNL     1      -8.832  18.853  66.036  1.00  0.00    -0.464 OA 
HETATM    8  O   UNL     1     -10.968  19.359  67.171  1.00  0.00    -0.483 OA 
HETATM    9  O   UNL     1     -10.826  16.642  65.031  1.00  0.00    -0.641 OA 
HETATM   10  S   UNL     1      -9.674  18.692  67.210  1.00  0.00    -0.313 S  
ENDROOT
BRANCH   3  11
HETATM   11  N   UNL     1     -10.859  13.856  66.914  1.00  0.00    -0.284 N  
HETATM   12  O   UNL     1      -8.576  14.048  66.623  1.00  0.00    -0.119 OA 
HETATM   13  C   UNL     1      -9.584  13.359  66.716  1.00  0.00    -0.262 C  
HETATM   14  H   UNL     1     -11.647  13.214  66.824  1.00  0.00     0.000 HD 
BRANCH  13  15
HETATM   15  C   UNL     1      -9.434  11.848  66.570  1.00  0.00    -0.217 C  
BRANCH  15  16
HETATM   16  C   UNL     1      -9.375  11.255  65.224  1.00  0.00    -0.203 A  
HETATM   17  C   UNL     1      -8.934   9.684  63.733  1.00  0.00    -0.217 A  
HETATM   18  N   UNL     1      -8.458   8.432  63.319  1.00  0.00    -0.403 NA 
HETATM   19  H2  UNL     1      -7.829   8.600  62.534  1.00  0.00     0.000 HD 
HETATM   20  C   UNL     1      -9.901  11.843  64.080  1.00  0.00    -0.207 A  
HETATM   21  H1  UNL     1      -7.997   7.756  63.927  1.00  0.00     0.000 HD 
HETATM   22  S   UNL     1      -9.700  10.805  62.725  1.00  0.00    -0.192 SA 
HETATM   23  N   UNL     1      -8.786  10.007  64.987  1.00  0.00    -0.171 NA 
ENDBRANCH  15  16
BRANCH  15  24
HETATM   24  N   UNL     1      -9.339  11.009  67.564  1.00  0.00    -0.158 NA 
HETATM   25  H   UNL     1     -10.116  10.440  67.901  1.00  0.00     0.000 HD 
BRANCH  24  26
HETATM   26  O   UNL     1      -8.056  10.976  68.115  1.00  0.00    -0.112 OA 
HETATM   27  O   UNL     1      -6.739  11.038  70.296  1.00  0.00    -0.230 OA 
HETATM   28  O   UNL     1      -6.264   8.844  70.367  1.00  0.00    -0.036 OA 
HETATM   29  C   UNL     1      -8.865   8.762  68.911  1.00  0.00    -0.137 C  
HETATM   30  C   UNL     1      -6.816   9.025  67.432  1.00  0.00    -0.077 C  
HETATM   31  C   UNL     1      -7.669   9.644  68.534  1.00  0.00    -0.081 C  
HETATM   32  C   UNL     1      -6.840   9.922  69.794  1.00  0.00    -0.084 C  
ENDBRANCH  24  26
ENDBRANCH  15  24
ENDBRANCH  13  15
ENDBRANCH   3  11
TORSDOF 5
ENDMDL
MODEL      158
REMARK 921   NORMALIZED FREE ENERGY PREDICTED BY IDOCK:   -4.76 KCAL/MOL
REMARK 922        TOTAL FREE ENERGY PREDICTED BY IDOCK:   -7.29 KCAL/MOL
REMARK 923 INTER-LIGAND FREE ENERGY PREDICTED BY IDOCK:   -6.90 KCAL/MOL
REMARK 924 INTRA-LIGAND FREE ENERGY PREDICTED BY IDOCK:   -0.40 KCAL/MOL
REMARK 927      BINDING AFFINITY PREDICTED BY RF-SCORE:    0.00 PKD
ROOT
HETATM    1  C   UNL     1     -10.793  11.529  63.608  1.00  0.00    -0.488 C  
HETATM    2  C   UNL     1     -10.714  11.345  65.107  1.00  0.00    -0.269 C  
HETATM    3  C   UNL     1      -9.262  11.207  65.664  1.00  0.00    -0.218 C  
HETATM    4  O   UNL     1     -12.930  13.453  65.003  1.00  0.00    -0.720 OA 
HETATM    5  C   UNL     1      -9.705  12.382  66.633  1.00  0.00    -0.225 C  
HETATM    6  N   UNL     1     -10.866  12.559  65.904  1.00  0.00    -0.263 N  
HETATM    7  O   UNL     1     -12.194  14.125  67.234  1.00  0.00    -0.402 OA 
HETATM    8  O   UNL     1     -10.957  14.892  65.236  1.00  0.00    -0.335 OA 
HETATM    9  O   UNL     1      -9.287  12.983  67.592  1.00  0.00    -0.188 OA 
HETATM   10  S   UNL     1     -11.820  13.891  65.848  1.00  0.00    -0.403 S  
ENDROOT
BRANCH   3  11
HETATM   11  N   UNL     1      -8.842   9.915  66.290  1.00  0.00    -0.141 N  
HETATM   12  O   UNL     1     -10.906   9.254  67.085  1.00  0.00    -0.217 OA 
HETATM   13  C   UNL     1      -9.725   9.021  66.866  1.00  0.00    -0.200 C  
HETATM   14  H   UNL     1      -7.848   9.682  66.292  1.00  0.00     0.000 HD 
BRANCH  13  15
HETATM   15  C   UNL     1      -9.173   7.663  67.291  1.00  0.00    -0.131 C  
BRANCH  15  16
HETATM   16  C   UNL     1      -8.965   6.619  66.276  1.00  0.00    -0.152 A  
HETATM   17  C   UNL     1      -9.393   4.726  65.217  1.00  0.00    -0.143 A  
HETATM   18  N   UNL     1     -10.093   3.532  64.996  1.00  0.00    -0.385 NA 
HETATM   19  H2  UNL     1      -9.397   2.790  64.921  1.00  0.00     0.000 HD 
HETATM   20  C   UNL     1      -8.037   6.695  65.244  1.00  0.00    -0.130 A  
HETATM   21  H1  UNL     1     -10.840   3.176  65.593  1.00  0.00     0.000 HD 
HETATM   22  S   UNL     1      -8.156   5.315  64.227  1.00  0.00    -0.125 SA 
HETATM   23  N   UNL     1      -9.723   5.441  66.255  1.00  0.00    -0.159 NA 
ENDBRANCH  15  16
BRANCH  15  24
HETATM   24  N   UNL     1      -8.848   7.340  68.512  1.00  0.00    -0.129 NA 
HETATM   25  H   UNL     1      -7.959   6.908  68.767  1.00  0.00     0.000 HD 
BRANCH  24  26
HETATM   26  O   UNL     1      -9.852   7.650  69.432  1.00  0.00    -0.167 OA 
HETATM   27  O   UNL     1     -12.159   6.980  70.282  1.00  0.00    -0.221 OA 
HETATM   28  O   UNL     1     -11.454   5.987  72.170  1.00  0.00    -0.289 OA 
HETATM   29  C   UNL     1      -9.094   5.494  70.415  1.00  0.00    -0.164 C  
HETATM   30  C   UNL     1      -9.036   7.685  71.700  1.00  0.00    -0.157 C  
HETATM   31  C   UNL     1      -9.757   6.858  70.642  1.00  0.00    -0.175 C  
HETATM   32  C   UNL     1     -11.230   6.640  71.009  1.00  0.00    -0.300 C  
ENDBRANCH  24  26
ENDBRANCH  15  24
ENDBRANCH  13  15
ENDBRANCH   3  11
TORSDOF 5
ENDMDL
MODEL      159
REMARK 921   NORMALIZED FREE ENERGY PREDICTED BY IDOCK:   -4.75 KCAL/MOL
REMARK 922        TOTAL FREE ENERGY PREDICTED BY IDOCK:   -7.28 KCAL/MOL
REMARK 923 INTER-LIGAND FREE ENERGY PREDICTED BY IDOCK:   -6.25 KCAL/MOL
REMARK 924 INTRA-LIGAND FREE ENERGY PREDICTED BY IDOCK:   -1.03 KCAL/MOL
REMARK 927      BINDING AFFINITY PREDICTED BY RF-SCORE:    0.00 PKD
ROOT
HETATM    1  C   UNL     1      -9.657   8.406  72.456  1.00  0.00    -0.358 C  
HETATM    2  C   UNL     1      -9.981   8.359  70.980  1.00  0.00    -0.190 C  
HETATM    3  C   UNL     1      -9.193   9.391  70.113  1.00  0.00    -0.234 C  
HETATM    4  O   UNL     1      -9.942   5.354  71.552  1.00  0.00    -0.169 OA 
HETATM    5  C   UNL     1      -8.804   8.117  69.254  1.00  0.00    -0.144 C  
HETATM    6  N   UNL     1      -9.340   7.289  70.222  1.00  0.00    -0.159 N  
HETATM    7  O   UNL     1      -9.326   5.064  69.205  1.00  0.00    -0.108 OA 
HETATM    8  O   UNL     1      -7.613   5.707  70.865  1.00  0.00    -0.086 OA 
HETATM    9  O   UNL     1      -8.247   7.847  68.219  1.00  0.00    -0.121 OA 
HETATM   10  S   UNL     1      -9.016   5.701  70.474  1.00  0.00    -0.139 S  
ENDROOT
BRANCH   3  11
HETATM   11  N   UNL     1      -9.942  10.488  69.425  1.00  0.00    -0.315 N  
HETATM   12  O   UNL     1      -8.124  11.688  68.656  1.00  0.00    -0.150 OA 
HETATM   13  C   UNL     1      -9.331  11.486  68.688  1.00  0.00    -0.137 C  
HETATM   14  H   UNL     1     -10.959  10.501  69.504  1.00  0.00     0.000 HD 
BRANCH  13  15
HETATM   15  C   UNL     1     -10.234  12.421  67.888  1.00  0.00    -0.213 C  
BRANCH  15  16
HETATM   16  C   UNL     1     -10.706  13.671  68.504  1.00  0.00    -0.255 A  
HETATM   17  C   UNL     1     -12.101  14.955  69.639  1.00  0.00    -0.295 A  
HETATM   18  N   UNL     1     -13.283  15.222  70.346  1.00  0.00    -0.693 NA 
HETATM   19  H2  UNL     1     -13.686  16.066  69.939  1.00  0.00     0.000 HD 
HETATM   20  C   UNL     1      -9.967  14.846  68.570  1.00  0.00    -0.223 A  
HETATM   21  H1  UNL     1     -14.048  14.559  70.470  1.00  0.00     0.000 HD 
HETATM   22  S   UNL     1     -10.833  16.053  69.434  1.00  0.00    -0.327 SA 
HETATM   23  N   UNL     1     -11.964  13.772  69.109  1.00  0.00    -0.350 NA 
ENDBRANCH  15  16
BRANCH  15  24
HETATM   24  N   UNL     1     -10.627  12.209  66.663  1.00  0.00    -0.230 NA 
HETATM   25  H   UNL     1     -11.604  12.234  66.368  1.00  0.00     0.000 HD 
BRANCH  24  26
HETATM   26  O   UNL     1      -9.563  11.943  65.797  1.00  0.00    -0.236 OA 
HETATM   27  O   UNL     1      -7.294  10.799  65.598  1.00  0.00    -0.121 OA 
HETATM   28  O   UNL     1      -8.011   9.019  64.430  1.00  0.00    -0.118 OA 
HETATM   29  C   UNL     1     -10.474   9.636  65.994  1.00  0.00    -0.047 C  
HETATM   30  C   UNL     1     -10.281  10.852  63.771  1.00  0.00    -0.407 C  
HETATM   31  C   UNL     1      -9.682  10.648  65.158  1.00  0.00    -0.271 C  
HETATM   32  C   UNL     1      -8.221  10.187  65.074  1.00  0.00    -0.152 C  
ENDBRANCH  24  26
ENDBRANCH  15  24
ENDBRANCH  13  15
ENDBRANCH   3  11
TORSDOF 5
ENDMDL
MODEL      160
REMARK 921   NORMALIZED FREE ENERGY PREDICTED BY IDOCK:   -4.74 KCAL/MOL
REMARK 922        TOTAL FREE ENERGY PREDICTED BY IDOCK:   -7.28 KCAL/MOL
REMARK 923 INTER-LIGAND FREE ENERGY PREDICTED BY IDOCK:   -6.24 KCAL/MOL
REMARK 924 INTRA-LIGAND FREE ENERGY PREDICTED BY IDOCK:   -1.04 KCAL/MOL
REMARK 927      BINDING AFFINITY PREDICTED BY RF-SCORE:    0.00 PKD
ROOT
HETATM    1  C   UNL     1      -9.504   4.478  65.482  1.00  0.00    -0.175 C  
HETATM    2  C   UNL     1      -8.674   5.742  65.469  1.00  0.00    -0.138 C  
HETATM    3  C   UNL     1      -8.408   6.355  66.880  1.00  0.00    -0.110 C  
HETATM    4  O   UNL     1      -7.150   4.152  63.345  1.00  0.00    -0.043 OA 
HETATM    5  C   UNL     1      -6.889   6.304  66.429  1.00  0.00    -0.062 C  
HETATM    6  N   UNL     1      -7.233   5.556  65.319  1.00  0.00    -0.066 N  
HETATM    7  O   UNL     1      -5.189   5.466  63.979  1.00  0.00    -0.009 OA 
HETATM    8  O   UNL     1      -5.886   3.536  65.356  1.00  0.00    -0.017 OA 
HETATM    9  O   UNL     1      -5.808   6.674  66.815  1.00  0.00    -0.017 OA 
HETATM   10  S   UNL     1      -6.260   4.588  64.422  1.00  0.00    -0.030 S  
ENDROOT
BRANCH   3  11
HETATM   11  N   UNL     1      -8.986   7.694  67.215  1.00  0.00    -0.126 N  
HETATM   12  O   UNL     1     -11.220   7.121  67.095  1.00  0.00    -0.276 OA 
HETATM   13  C   UNL     1     -10.340   7.924  67.374  1.00  0.00    -0.279 C  
HETATM   14  H   UNL     1      -8.346   8.479  67.331  1.00  0.00     0.000 HD 
BRANCH  13  15
HETATM   15  C   UNL     1     -10.763   9.293  67.901  1.00  0.00    -0.188 C  
BRANCH  15  16
HETATM   16  C   UNL     1     -10.892  10.419  66.963  1.00  0.00    -0.203 A  
HETATM   17  C   UNL     1     -11.562  12.417  66.295  1.00  0.00    -0.393 A  
HETATM   18  N   UNL     1     -12.238  13.637  66.439  1.00  0.00    -0.431 NA 
HETATM   19  H2  UNL     1     -12.810  13.759  65.603  1.00  0.00     0.000 HD 
HETATM   20  C   UNL     1     -10.246  10.502  65.735  1.00  0.00    -0.243 A  
HETATM   21  H1  UNL     1     -12.823  13.887  67.235  1.00  0.00     0.000 HD 
HETATM   22  S   UNL     1     -10.592  12.003  64.974  1.00  0.00    -0.301 SA 
HETATM   23  N   UNL     1     -11.681  11.539  67.251  1.00  0.00    -0.603 NA 
ENDBRANCH  15  16
BRANCH  15  24
HETATM   24  N   UNL     1     -11.039   9.558  69.147  1.00  0.00    -0.425 NA 
HETATM   25  H   UNL     1     -11.588  10.365  69.448  1.00  0.00     0.000 HD 
BRANCH  24  26
HETATM   26  O   UNL     1     -10.500   8.616  70.026  1.00  0.00    -0.212 OA 
HETATM   27  O   UNL     1      -9.174   8.317  72.182  1.00  0.00    -0.175 OA 
HETATM   28  O   UNL     1     -10.923   7.762  73.479  1.00  0.00    -0.292 OA 
HETATM   29  C   UNL     1     -12.288   9.524  71.499  1.00  0.00    -0.465 C  
HETATM   30  C   UNL     1     -12.161   7.072  70.845  1.00  0.00    -0.403 C  
HETATM   31  C   UNL     1     -11.375   8.343  71.148  1.00  0.00    -0.268 C  
HETATM   32  C   UNL     1     -10.381   8.125  72.297  1.00  0.00    -0.292 C  
ENDBRANCH  24  26
ENDBRANCH  15  24
ENDBRANCH  13  15
ENDBRANCH   3  11
TORSDOF 5
ENDMDL
MODEL      161
REMARK 921   NORMALIZED FREE ENERGY PREDICTED BY IDOCK:   -4.74 KCAL/MOL
REMARK 922        TOTAL FREE ENERGY PREDICTED BY IDOCK:   -7.28 KCAL/MOL
REMARK 923 INTER-LIGAND FREE ENERGY PREDICTED BY IDOCK:   -6.31 KCAL/MOL
REMARK 924 INTRA-LIGAND FREE ENERGY PREDICTED BY IDOCK:   -0.97 KCAL/MOL
REMARK 927      BINDING AFFINITY PREDICTED BY RF-SCORE:    0.00 PKD
ROOT
HETATM    1  C   UNL     1     -11.032  15.604  69.554  1.00  0.00    -0.281 C  
HETATM    2  C   UNL     1     -11.861  14.344  69.450  1.00  0.00    -0.325 C  
HETATM    3  C   UNL     1     -11.028  13.023  69.436  1.00  0.00     0.011 C  
HETATM    4  O   UNL     1     -13.626  15.912  71.396  1.00  0.00    -0.475 OA 
HETATM    5  C   UNL     1     -11.991  12.604  70.625  1.00  0.00    -0.106 C  
HETATM    6  N   UNL     1     -12.489  13.892  70.688  1.00  0.00    -0.355 N  
HETATM    7  O   UNL     1     -14.387  13.742  72.224  1.00  0.00    -0.578 OA 
HETATM    8  O   UNL     1     -12.220  14.665  72.974  1.00  0.00    -0.250 OA 
HETATM    9  O   UNL     1     -12.244  11.636  71.298  1.00  0.00    -0.234 OA 
HETATM   10  S   UNL     1     -13.253  14.609  71.949  1.00  0.00    -0.382 S  
ENDROOT
BRANCH   3  11
HETATM   11  N   UNL     1     -11.033  12.170  68.207  1.00  0.00    -0.220 N  
HETATM   12  O   UNL     1      -9.081  11.005  68.614  1.00  0.00    -0.166 OA 
HETATM   13  C   UNL     1     -10.100  11.180  67.959  1.00  0.00    -0.174 C  
HETATM   14  H   UNL     1     -11.765  12.328  67.514  1.00  0.00     0.000 HD 
BRANCH  13  15
HETATM   15  C   UNL     1     -10.346  10.268  66.760  1.00  0.00    -0.227 C  
BRANCH  15  16
HETATM   16  C   UNL     1     -10.325  10.837  65.404  1.00  0.00    -0.247 A  
HETATM   17  C   UNL     1      -9.429  11.353  63.450  1.00  0.00    -0.277 A  
HETATM   18  N   UNL     1      -8.389  11.408  62.511  1.00  0.00    -0.599 NA 
HETATM   19  H2  UNL     1      -8.337  12.373  62.184  1.00  0.00     0.000 HD 
HETATM   20  C   UNL     1     -11.433  11.365  64.753  1.00  0.00     0.014 A  
HETATM   21  H1  UNL     1      -7.431  11.105  62.687  1.00  0.00     0.000 HD 
HETATM   22  S   UNL     1     -11.016  11.855  63.159  1.00  0.00    -0.070 SA 
HETATM   23  N   UNL     1      -9.158  10.871  64.631  1.00  0.00    -0.194 NA 
ENDBRANCH  15  16
BRANCH  15  24
HETATM   24  N   UNL     1     -10.569   8.985  66.834  1.00  0.00    -0.221 NA 
HETATM   25  H   UNL     1     -11.496   8.566  66.761  1.00  0.00     0.000 HD 
BRANCH  24  26
HETATM   26  O   UNL     1      -9.398   8.249  67.027  1.00  0.00    -0.145 OA 
HETATM   27  O   UNL     1      -7.240   8.107  68.375  1.00  0.00    -0.087 OA 
HETATM   28  O   UNL     1      -7.896   6.437  69.726  1.00  0.00    -0.109 OA 
HETATM   29  C   UNL     1     -10.530   7.722  69.178  1.00  0.00    -0.219 C  
HETATM   30  C   UNL     1      -9.843   5.930  67.513  1.00  0.00    -0.139 C  
HETATM   31  C   UNL     1      -9.516   7.294  68.110  1.00  0.00    -0.133 C  
HETATM   32  C   UNL     1      -8.110   7.315  68.723  1.00  0.00    -0.124 C  
ENDBRANCH  24  26
ENDBRANCH  15  24
ENDBRANCH  13  15
ENDBRANCH   3  11
TORSDOF 5
ENDMDL
MODEL      162
REMARK 921   NORMALIZED FREE ENERGY PREDICTED BY IDOCK:   -4.73 KCAL/MOL
REMARK 922        TOTAL FREE ENERGY PREDICTED BY IDOCK:   -7.26 KCAL/MOL
REMARK 923 INTER-LIGAND FREE ENERGY PREDICTED BY IDOCK:   -6.46 KCAL/MOL
REMARK 924 INTRA-LIGAND FREE ENERGY PREDICTED BY IDOCK:   -0.80 KCAL/MOL
REMARK 927      BINDING AFFINITY PREDICTED BY RF-SCORE:    0.00 PKD
ROOT
HETATM    1  C   UNL     1     -10.472   5.551  69.139  1.00  0.00    -0.315 C  
HETATM    2  C   UNL     1     -10.143   6.947  69.616  1.00  0.00    -0.184 C  
HETATM    3  C   UNL     1     -10.922   8.082  68.877  1.00  0.00     0.149 C  
HETATM    4  O   UNL     1     -10.203   5.524  72.323  1.00  0.00    -0.188 OA 
HETATM    5  C   UNL     1     -11.315   8.534  70.346  1.00  0.00    -0.182 C  
HETATM    6  N   UNL     1     -10.788   7.364  70.858  1.00  0.00    -0.236 N  
HETATM    7  O   UNL     1     -10.812   7.688  73.282  1.00  0.00    -0.394 OA 
HETATM    8  O   UNL     1     -12.527   6.297  72.175  1.00  0.00    -0.291 OA 
HETATM    9  O   UNL     1     -11.870   9.448  70.903  1.00  0.00    -0.281 OA 
HETATM   10  S   UNL     1     -11.123   6.662  72.301  1.00  0.00    -0.270 S  
ENDROOT
BRANCH   3  11
HETATM   11  N   UNL     1     -10.164   9.056  68.033  1.00  0.00    -0.202 N  
HETATM   12  O   UNL     1     -11.868  10.574  67.681  1.00  0.00    -0.297 OA 
HETATM   13  C   UNL     1     -10.690  10.255  67.588  1.00  0.00    -0.288 C  
HETATM   14  H   UNL     1      -9.205   8.823  67.770  1.00  0.00     0.000 HD 
BRANCH  13  15
HETATM   15  C   UNL     1      -9.738  11.228  66.899  1.00  0.00    -0.192 C  
BRANCH  15  16
HETATM   16  C   UNL     1      -9.375  11.009  65.490  1.00  0.00    -0.215 A  
HETATM   17  C   UNL     1      -8.097  10.318  63.824  1.00  0.00    -0.143 A  
HETATM   18  N   UNL     1      -6.947   9.739  63.269  1.00  0.00    -0.112 NA 
HETATM   19  H2  UNL     1      -6.611  10.380  62.549  1.00  0.00     0.000 HD 
HETATM   20  C   UNL     1     -10.209  11.272  64.410  1.00  0.00    -0.320 A  
HETATM   21  H1  UNL     1      -6.130   9.442  63.803  1.00  0.00     0.000 HD 
HETATM   22  S   UNL     1      -9.450  10.810  62.939  1.00  0.00    -0.358 SA 
HETATM   23  N   UNL     1      -8.133  10.481  65.117  1.00  0.00    -0.143 NA 
ENDBRANCH  15  16
BRANCH  15  24
HETATM   24  N   UNL     1      -9.209  12.278  67.464  1.00  0.00    -0.175 NA 
HETATM   25  H   UNL     1      -8.977  12.331  68.457  1.00  0.00     0.000 HD 
BRANCH  24  26
HETATM   26  O   UNL     1      -8.995  13.322  66.561  1.00  0.00    -0.175 OA 
HETATM   27  O   UNL     1     -10.143  14.953  64.975  1.00  0.00    -0.360 OA 
HETATM   28  O   UNL     1      -9.971  16.758  66.302  1.00  0.00    -0.289 OA 
HETATM   29  C   UNL     1     -10.120  14.611  68.367  1.00  0.00    -0.237 C  
HETATM   30  C   UNL     1      -7.777  15.152  67.547  1.00  0.00    -0.205 C  
HETATM   31  C   UNL     1      -9.157  14.624  67.173  1.00  0.00    -0.223 C  
HETATM   32  C   UNL     1      -9.782  15.447  66.039  1.00  0.00    -0.338 C  
ENDBRANCH  24  26
ENDBRANCH  15  24
ENDBRANCH  13  15
ENDBRANCH   3  11
TORSDOF 5
ENDMDL
MODEL      163
REMARK 921   NORMALIZED FREE ENERGY PREDICTED BY IDOCK:   -4.65 KCAL/MOL
REMARK 922        TOTAL FREE ENERGY PREDICTED BY IDOCK:   -7.16 KCAL/MOL
REMARK 923 INTER-LIGAND FREE ENERGY PREDICTED BY IDOCK:   -5.99 KCAL/MOL
REMARK 924 INTRA-LIGAND FREE ENERGY PREDICTED BY IDOCK:   -1.17 KCAL/MOL
REMARK 927      BINDING AFFINITY PREDICTED BY RF-SCORE:    0.00 PKD
ROOT
HETATM    1  C   UNL     1     -12.234  13.559  67.513  1.00  0.00    -0.247 C  
HETATM    2  C   UNL     1     -11.018  13.006  66.805  1.00  0.00    -0.276 C  
HETATM    3  C   UNL     1     -10.587  11.582  67.281  1.00  0.00    -0.228 C  
HETATM    4  O   UNL     1     -12.422  14.284  64.406  1.00  0.00    -0.630 OA 
HETATM    5  C   UNL     1     -10.658  11.230  65.736  1.00  0.00    -0.248 C  
HETATM    6  N   UNL     1     -11.255  12.449  65.476  1.00  0.00    -0.313 N  
HETATM    7  O   UNL     1     -11.286  12.610  63.035  1.00  0.00    -0.257 OA 
HETATM    8  O   UNL     1     -13.328  12.007  64.290  1.00  0.00    -0.709 OA 
HETATM    9  O   UNL     1     -10.388  10.320  64.992  1.00  0.00    -0.288 OA 
HETATM   10  S   UNL     1     -12.157  12.865  64.171  1.00  0.00    -0.452 S  
ENDROOT
BRANCH   3  11
HETATM   11  N   UNL     1      -9.270  11.411  67.969  1.00  0.00    -0.165 N  
HETATM   12  O   UNL     1     -10.042  10.406  69.899  1.00  0.00    -0.209 OA 
HETATM   13  C   UNL     1      -9.118  10.759  69.179  1.00  0.00    -0.095 C  
HETATM   14  H   UNL     1      -8.438  11.798  67.522  1.00  0.00     0.000 HD 
BRANCH  13  15
HETATM   15  C   UNL     1      -7.694  10.496  69.662  1.00  0.00    -0.110 C  
BRANCH  15  16
HETATM   16  C   UNL     1      -7.363   9.194  70.260  1.00  0.00    -0.090 A  
HETATM   17  C   UNL     1      -6.886   7.796  71.905  1.00  0.00    -0.060 A  
HETATM   18  N   UNL     1      -6.636   7.455  73.242  1.00  0.00    -0.064 NA 
HETATM   19  H2  UNL     1      -5.770   6.917  73.253  1.00  0.00     0.000 HD 
HETATM   20  C   UNL     1      -7.333   7.991  69.565  1.00  0.00    -0.086 A  
HETATM   21  H1  UNL     1      -6.579   8.122  74.011  1.00  0.00     0.000 HD 
HETATM   22  S   UNL     1      -6.982   6.690  70.631  1.00  0.00    -0.065 SA 
HETATM   23  N   UNL     1      -7.067   9.055  71.622  1.00  0.00    -0.286 NA 
ENDBRANCH  15  16
BRANCH  15  24
HETATM   24  N   UNL     1      -6.711  11.349  69.579  1.00  0.00    -0.159 NA 
HETATM   25  H   UNL     1      -5.791  11.196  69.994  1.00  0.00     0.000 HD 
BRANCH  24  26
HETATM   26  O   UNL     1      -7.056  12.495  68.858  1.00  0.00    -0.101 OA 
HETATM   27  O   UNL     1      -8.590  14.529  68.816  1.00  0.00    -0.168 OA 
HETATM   28  O   UNL     1      -7.041  16.026  69.454  1.00  0.00    -0.209 OA 
HETATM   29  C   UNL     1      -6.001  13.591  70.827  1.00  0.00    -0.108 C  
HETATM   30  C   UNL     1      -5.160  13.927  68.453  1.00  0.00    -0.102 C  
HETATM   31  C   UNL     1      -6.373  13.678  69.341  1.00  0.00    -0.108 C  
HETATM   32  C   UNL     1      -7.436  14.769  69.158  1.00  0.00    -0.153 C  
ENDBRANCH  24  26
ENDBRANCH  15  24
ENDBRANCH  13  15
ENDBRANCH   3  11
TORSDOF 5
ENDMDL
MODEL      164
REMARK 921   NORMALIZED FREE ENERGY PREDICTED BY IDOCK:   -4.65 KCAL/MOL
REMARK 922        TOTAL FREE ENERGY PREDICTED BY IDOCK:   -7.16 KCAL/MOL
REMARK 923 INTER-LIGAND FREE ENERGY PREDICTED BY IDOCK:   -5.98 KCAL/MOL
REMARK 924 INTRA-LIGAND FREE ENERGY PREDICTED BY IDOCK:   -1.18 KCAL/MOL
REMARK 927      BINDING AFFINITY PREDICTED BY RF-SCORE:    0.00 PKD
ROOT
HETATM    1  C   UNL     1      -9.064   4.929  65.317  1.00  0.00    -0.154 C  
HETATM    2  C   UNL     1      -8.587   6.361  65.405  1.00  0.00    -0.081 C  
HETATM    3  C   UNL     1      -8.181   6.817  66.842  1.00  0.00    -0.113 C  
HETATM    4  O   UNL     1      -7.216   5.566  62.788  1.00  0.00    -0.043 OA 
HETATM    5  C   UNL     1      -6.827   7.249  66.138  1.00  0.00    -0.057 C  
HETATM    6  N   UNL     1      -7.211   6.600  64.980  1.00  0.00    -0.070 N  
HETATM    7  O   UNL     1      -5.542   7.264  63.320  1.00  0.00    -0.039 OA 
HETATM    8  O   UNL     1      -5.440   5.043  64.398  1.00  0.00    -0.012 OA 
HETATM    9  O   UNL     1      -5.811   7.844  66.398  1.00  0.00    -0.039 OA 
HETATM   10  S   UNL     1      -6.249   6.073  63.761  1.00  0.00    -0.026 S  
ENDROOT
BRANCH   3  11
HETATM   11  N   UNL     1      -8.979   7.885  67.521  1.00  0.00    -0.127 N  
HETATM   12  O   UNL     1     -10.926   6.683  67.835  1.00  0.00    -0.264 OA 
HETATM   13  C   UNL     1     -10.249   7.684  68.030  1.00  0.00    -0.202 C  
HETATM   14  H   UNL     1      -8.564   8.812  67.613  1.00  0.00     0.000 HD 
BRANCH  13  15
HETATM   15  C   UNL     1     -10.860   8.809  68.862  1.00  0.00    -0.008 C  
BRANCH  15  16
HETATM   16  C   UNL     1     -11.100   8.596  70.297  1.00  0.00    -0.217 A  
HETATM   17  C   UNL     1     -12.263   8.663  72.176  1.00  0.00    -0.386 A  
HETATM   18  N   UNL     1     -13.386   8.970  72.957  1.00  0.00    -0.885 NA 
HETATM   19  H2  UNL     1     -13.046   9.468  73.780  1.00  0.00     0.000 HD 
HETATM   20  C   UNL     1     -10.232   7.928  71.152  1.00  0.00    -0.195 A  
HETATM   21  H1  UNL     1     -14.205   9.477  72.623  1.00  0.00     0.000 HD 
HETATM   22  S   UNL     1     -10.905   7.822  72.729  1.00  0.00    -0.398 SA 
HETATM   23  N   UNL     1     -12.266   9.044  70.929  1.00  0.00    -0.217 NA 
ENDBRANCH  15  16
BRANCH  15  24
HETATM   24  N   UNL     1     -11.187   9.983  68.399  1.00  0.00    -0.490 NA 
HETATM   25  H   UNL     1     -11.922  10.567  68.801  1.00  0.00     0.000 HD 
BRANCH  24  26
HETATM   26  O   UNL     1     -10.420  10.355  67.292  1.00  0.00    -0.221 OA 
HETATM   27  O   UNL     1     -10.511  10.931  64.811  1.00  0.00    -0.328 OA 
HETATM   28  O   UNL     1     -10.287  13.153  65.060  1.00  0.00    -0.317 OA 
HETATM   29  C   UNL     1     -11.666  12.484  67.618  1.00  0.00    -0.423 C  
HETATM   30  C   UNL     1      -9.129  12.349  67.699  1.00  0.00    -0.186 C  
HETATM   31  C   UNL     1     -10.407  11.788  67.085  1.00  0.00    -0.215 C  
HETATM   32  C   UNL     1     -10.388  11.901  65.555  1.00  0.00    -0.264 C  
ENDBRANCH  24  26
ENDBRANCH  15  24
ENDBRANCH  13  15
ENDBRANCH   3  11
TORSDOF 5
ENDMDL
MODEL      165
REMARK 921   NORMALIZED FREE ENERGY PREDICTED BY IDOCK:   -4.64 KCAL/MOL
REMARK 922        TOTAL FREE ENERGY PREDICTED BY IDOCK:   -7.14 KCAL/MOL
REMARK 923 INTER-LIGAND FREE ENERGY PREDICTED BY IDOCK:   -6.22 KCAL/MOL
REMARK 924 INTRA-LIGAND FREE ENERGY PREDICTED BY IDOCK:   -0.92 KCAL/MOL
REMARK 927      BINDING AFFINITY PREDICTED BY RF-SCORE:    0.00 PKD
ROOT
HETATM    1  C   UNL     1      -7.210   7.900  69.866  1.00  0.00    -0.066 C  
HETATM    2  C   UNL     1      -8.466   8.454  70.501  1.00  0.00    -0.132 C  
HETATM    3  C   UNL     1      -9.609   8.783  69.489  1.00  0.00    -0.167 C  
HETATM    4  O   UNL     1      -7.797   6.305  72.573  1.00  0.00    -0.102 OA 
HETATM    5  C   UNL     1     -10.486   7.871  70.445  1.00  0.00    -0.218 C  
HETATM    6  N   UNL     1      -9.350   7.473  71.124  1.00  0.00    -0.151 N  
HETATM    7  O   UNL     1     -10.191   6.239  73.061  1.00  0.00    -0.181 OA 
HETATM    8  O   UNL     1      -9.294   5.046  71.092  1.00  0.00    -0.140 OA 
HETATM    9  O   UNL     1     -11.637   7.545  70.595  1.00  0.00    -0.288 OA 
HETATM   10  S   UNL     1      -9.152   6.134  72.049  1.00  0.00    -0.142 S  
ENDROOT
BRANCH   3  11
HETATM   11  N   UNL     1     -10.035  10.205  69.306  1.00  0.00    -0.207 N  
HETATM   12  O   UNL     1      -8.761  10.688  67.442  1.00  0.00    -0.126 OA 
HETATM   13  C   UNL     1      -9.632  10.994  68.245  1.00  0.00    -0.171 C  
HETATM   14  H   UNL     1     -10.656  10.615  70.004  1.00  0.00     0.000 HD 
BRANCH  13  15
HETATM   15  C   UNL     1     -10.299  12.359  68.091  1.00  0.00    -0.226 C  
BRANCH  15  16
HETATM   16  C   UNL     1     -10.811  12.767  66.774  1.00  0.00    -0.264 A  
HETATM   17  C   UNL     1     -12.284  12.870  65.129  1.00  0.00    -0.470 A  
HETATM   18  N   UNL     1     -13.500  12.567  64.501  1.00  0.00    -0.349 NA 
HETATM   19  H2  UNL     1     -13.275  12.247  63.559  1.00  0.00     0.000 HD 
HETATM   20  C   UNL     1     -10.169  13.655  65.918  1.00  0.00    -0.311 A  
HETATM   21  H1  UNL     1     -14.202  11.926  64.870  1.00  0.00     0.000 HD 
HETATM   22  S   UNL     1     -11.122  13.934  64.516  1.00  0.00    -0.331 SA 
HETATM   23  N   UNL     1     -12.031  12.298  66.273  1.00  0.00    -0.626 NA 
ENDBRANCH  15  16
BRANCH  15  24
HETATM   24  N   UNL     1     -10.470  13.217  69.058  1.00  0.00    -0.432 NA 
HETATM   25  H   UNL     1      -9.705  13.625  69.596  1.00  0.00     0.000 HD 
BRANCH  24  26
HETATM   26  O   UNL     1     -11.817  13.516  69.275  1.00  0.00    -0.301 OA 
HETATM   27  O   UNL     1     -13.755  13.266  70.912  1.00  0.00     0.301 OA 
HETATM   28  O   UNL     1     -13.697  15.371  71.695  1.00  0.00    -0.460 OA 
HETATM   29  C   UNL     1     -10.819  14.997  71.008  1.00  0.00    -0.040 C  
HETATM   30  C   UNL     1     -12.269  15.878  69.116  1.00  0.00    -0.013 C  
HETATM   31  C   UNL     1     -11.996  14.717  70.065  1.00  0.00    -0.320 C  
HETATM   32  C   UNL     1     -13.235  14.378  70.905  1.00  0.00    -0.288 C  
ENDBRANCH  24  26
ENDBRANCH  15  24
ENDBRANCH  13  15
ENDBRANCH   3  11
TORSDOF 5
ENDMDL
MODEL      166
REMARK 921   NORMALIZED FREE ENERGY PREDICTED BY IDOCK:   -4.63 KCAL/MOL
REMARK 922        TOTAL FREE ENERGY PREDICTED BY IDOCK:   -7.13 KCAL/MOL
REMARK 923 INTER-LIGAND FREE ENERGY PREDICTED BY IDOCK:   -6.31 KCAL/MOL
REMARK 924 INTRA-LIGAND FREE ENERGY PREDICTED BY IDOCK:   -0.82 KCAL/MOL
REMARK 927      BINDING AFFINITY PREDICTED BY RF-SCORE:    0.00 PKD
ROOT
HETATM    1  C   UNL     1      -8.845   8.983  66.442  1.00  0.00    -0.172 C  
HETATM    2  C   UNL     1      -8.764   9.346  67.908  1.00  0.00    -0.120 C  
HETATM    3  C   UNL     1      -9.948  10.224  68.422  1.00  0.00    -0.157 C  
HETATM    4  O   UNL     1      -7.830   6.438  68.088  1.00  0.00    -0.102 OA 
HETATM    5  C   UNL     1     -10.080   9.096  69.529  1.00  0.00    -0.197 C  
HETATM    6  N   UNL     1      -9.177   8.305  68.845  1.00  0.00    -0.147 N  
HETATM    7  O   UNL     1      -8.703   6.452  70.370  1.00  0.00    -0.143 OA 
HETATM    8  O   UNL     1     -10.239   6.156  68.457  1.00  0.00    -0.155 OA 
HETATM    9  O   UNL     1     -10.694   8.879  70.545  1.00  0.00    -0.212 OA 
HETATM   10  S   UNL     1      -8.978   6.681  68.961  1.00  0.00    -0.129 S  
ENDROOT
BRANCH   3  11
HETATM   11  N   UNL     1      -9.674  11.619  68.885  1.00  0.00    -0.400 N  
HETATM   12  O   UNL     1     -10.101  12.710  66.894  1.00  0.00    -0.225 OA 
HETATM   13  C   UNL     1      -9.862  12.739  68.094  1.00  0.00    -0.226 C  
HETATM   14  H   UNL     1      -9.330  11.753  69.836  1.00  0.00     0.000 HD 
BRANCH  13  15
HETATM   15  C   UNL     1      -9.724  14.103  68.764  1.00  0.00    -0.148 C  
BRANCH  15  16
HETATM   16  C   UNL     1     -10.826  14.615  69.593  1.00  0.00    -0.186 A  
HETATM   17  C   UNL     1     -11.763  15.906  71.122  1.00  0.00    -0.442 A  
HETATM   18  N   UNL     1     -11.762  16.903  72.109  1.00  0.00    -0.370 NA 
HETATM   19  H2  UNL     1     -12.232  16.512  72.925  1.00  0.00     0.000 HD 
HETATM   20  C   UNL     1     -12.155  14.234  69.460  1.00  0.00    -0.330 A  
HETATM   21  H1  UNL     1     -10.929  17.382  72.450  1.00  0.00     0.000 HD 
HETATM   22  S   UNL     1     -13.144  15.113  70.557  1.00  0.00    -0.213 SA 
HETATM   23  N   UNL     1     -10.620  15.571  70.595  1.00  0.00    -0.248 NA 
ENDBRANCH  15  16
BRANCH  15  24
HETATM   24  N   UNL     1      -8.676  14.875  68.672  1.00  0.00    -0.171 NA 
HETATM   25  H   UNL     1      -7.745  14.607  68.992  1.00  0.00     0.000 HD 
BRANCH  24  26
HETATM   26  O   UNL     1      -8.971  16.109  68.088  1.00  0.00    -0.181 OA 
HETATM   27  O   UNL     1      -9.830  18.464  68.548  1.00  0.00    -0.340 OA 
HETATM   28  O   UNL     1      -7.830  19.484  68.458  1.00  0.00    -0.332 OA 
HETATM   29  C   UNL     1      -6.993  16.793  69.434  1.00  0.00    -0.176 C  
HETATM   30  C   UNL     1      -7.086  17.037  66.907  1.00  0.00    -0.251 C  
HETATM   31  C   UNL     1      -7.878  17.052  68.209  1.00  0.00    -0.216 C  
HETATM   32  C   UNL     1      -8.613  18.386  68.400  1.00  0.00    -0.325 C  
ENDBRANCH  24  26
ENDBRANCH  15  24
ENDBRANCH  13  15
ENDBRANCH   3  11
TORSDOF 5
ENDMDL
MODEL      167
REMARK 921   NORMALIZED FREE ENERGY PREDICTED BY IDOCK:   -4.63 KCAL/MOL
REMARK 922        TOTAL FREE ENERGY PREDICTED BY IDOCK:   -7.13 KCAL/MOL
REMARK 923 INTER-LIGAND FREE ENERGY PREDICTED BY IDOCK:   -6.35 KCAL/MOL
REMARK 924 INTRA-LIGAND FREE ENERGY PREDICTED BY IDOCK:   -0.78 KCAL/MOL
REMARK 927      BINDING AFFINITY PREDICTED BY RF-SCORE:    0.00 PKD
ROOT
HETATM    1  C   UNL     1     -10.120   4.590  65.702  1.00  0.00    -0.261 C  
HETATM    2  C   UNL     1      -9.338   5.685  66.393  1.00  0.00    -0.154 C  
HETATM    3  C   UNL     1     -10.203   6.895  66.867  1.00  0.00    -0.240 C  
HETATM    4  O   UNL     1      -7.940   3.257  67.621  1.00  0.00    -0.075 OA 
HETATM    5  C   UNL     1      -9.517   6.618  68.270  1.00  0.00    -0.123 C  
HETATM    6  N   UNL     1      -8.990   5.434  67.789  1.00  0.00    -0.109 N  
HETATM    7  O   UNL     1      -7.448   4.692  69.537  1.00  0.00    -0.051 OA 
HETATM    8  O   UNL     1      -9.682   3.663  69.300  1.00  0.00    -0.160 OA 
HETATM    9  O   UNL     1      -9.443   7.116  69.366  1.00  0.00    -0.154 OA 
HETATM   10  S   UNL     1      -8.468   4.145  68.657  1.00  0.00    -0.089 S  
ENDROOT
BRANCH   3  11
HETATM   11  N   UNL     1      -9.985   8.237  66.243  1.00  0.00    -0.458 N  
HETATM   12  O   UNL     1     -11.111   9.509  67.806  1.00  0.00    -0.186 OA 
HETATM   13  C   UNL     1     -10.389   9.426  66.822  1.00  0.00    -0.233 C  
HETATM   14  H   UNL     1      -9.512   8.277  65.339  1.00  0.00     0.000 HD 
BRANCH  13  15
HETATM   15  C   UNL     1      -9.928  10.722  66.161  1.00  0.00    -0.232 C  
BRANCH  15  16
HETATM   16  C   UNL     1     -10.887  11.511  65.372  1.00  0.00    -0.259 A  
HETATM   17  C   UNL     1     -12.533  12.953  65.060  1.00  0.00    -0.492 A  
HETATM   18  N   UNL     1     -13.525  13.850  65.481  1.00  0.00    -0.585 NA 
HETATM   19  H2  UNL     1     -14.386  13.585  65.002  1.00  0.00     0.000 HD 
HETATM   20  C   UNL     1     -10.907  11.570  63.984  1.00  0.00    -0.387 A  
HETATM   21  H1  UNL     1     -13.772  14.028  66.454  1.00  0.00     0.000 HD 
HETATM   22  S   UNL     1     -12.123  12.658  63.447  1.00  0.00    -0.445 SA 
HETATM   23  N   UNL     1     -11.870  12.304  65.976  1.00  0.00    -0.562 NA 
ENDBRANCH  15  16
BRANCH  15  24
HETATM   24  N   UNL     1      -8.723  11.213  66.246  1.00  0.00    -0.179 NA 
HETATM   25  H   UNL     1      -7.875  10.654  66.150  1.00  0.00     0.000 HD 
BRANCH  24  26
HETATM   26  O   UNL     1      -8.722  12.590  66.483  1.00  0.00    -0.150 OA 
HETATM   27  O   UNL     1      -9.946  14.487  67.665  1.00  0.00    -0.222 OA 
HETATM   28  O   UNL     1      -8.481  14.719  69.353  1.00  0.00    -0.104 OA 
HETATM   29  C   UNL     1      -8.146  11.812  68.775  1.00  0.00    -0.047 C  
HETATM   30  C   UNL     1      -6.641  13.354  67.429  1.00  0.00    -0.038 C  
HETATM   31  C   UNL     1      -8.075  12.935  67.732  1.00  0.00    -0.166 C  
HETATM   32  C   UNL     1      -8.914  14.122  68.222  1.00  0.00    -0.188 C  
ENDBRANCH  24  26
ENDBRANCH  15  24
ENDBRANCH  13  15
ENDBRANCH   3  11
TORSDOF 5
ENDMDL
MODEL      168
REMARK 921   NORMALIZED FREE ENERGY PREDICTED BY IDOCK:   -4.61 KCAL/MOL
REMARK 922        TOTAL FREE ENERGY PREDICTED BY IDOCK:   -7.11 KCAL/MOL
REMARK 923 INTER-LIGAND FREE ENERGY PREDICTED BY IDOCK:   -7.40 KCAL/MOL
REMARK 924 INTRA-LIGAND FREE ENERGY PREDICTED BY IDOCK:    0.30 KCAL/MOL
REMARK 927      BINDING AFFINITY PREDICTED BY RF-SCORE:    0.00 PKD
ROOT
HETATM    1  C   UNL     1     -10.921  16.515  69.809  1.00  0.00    -0.292 C  
HETATM    2  C   UNL     1     -10.100  15.548  68.988  1.00  0.00    -0.234 C  
HETATM    3  C   UNL     1     -10.913  14.355  68.393  1.00  0.00    -0.248 C  
HETATM    4  O   UNL     1      -8.852  18.168  68.020  1.00  0.00    -0.266 OA 
HETATM    5  C   UNL     1     -10.271  14.822  67.021  1.00  0.00    -0.253 C  
HETATM    6  N   UNL     1      -9.795  15.971  67.624  1.00  0.00    -0.233 N  
HETATM    7  O   UNL     1      -8.329  16.984  65.948  1.00  0.00    -0.515 OA 
HETATM    8  O   UNL     1     -10.607  17.861  66.333  1.00  0.00    -0.327 OA 
HETATM    9  O   UNL     1     -10.195  14.455  65.874  1.00  0.00    -0.296 OA 
HETATM   10  S   UNL     1      -9.356  17.375  66.899  1.00  0.00    -0.272 S  
ENDROOT
BRANCH   3  11
HETATM   11  N   UNL     1     -10.614  12.965  68.859  1.00  0.00    -0.400 N  
HETATM   12  O   UNL     1     -12.096  11.839  67.491  1.00  0.00    -0.599 OA 
HETATM   13  C   UNL     1     -11.176  11.832  68.299  1.00  0.00    -0.255 C  
HETATM   14  H   UNL     1      -9.960  12.846  69.633  1.00  0.00     0.000 HD 
BRANCH  13  15
HETATM   15  C   UNL     1     -10.631  10.480  68.750  1.00  0.00    -0.207 C  
BRANCH  15  16
HETATM   16  C   UNL     1     -11.120   9.887  70.004  1.00  0.00    -0.285 A  
HETATM   17  C   UNL     1     -12.513   9.629  71.701  1.00  0.00    -0.407 A  
HETATM   18  N   UNL     1     -13.655   9.931  72.456  1.00  0.00    -0.632 NA 
HETATM   19  H2  UNL     1     -13.350  10.046  73.423  1.00  0.00     0.000 HD 
HETATM   20  C   UNL     1     -10.541   8.795  70.640  1.00  0.00    -0.215 A  
HETATM   21  H1  UNL     1     -14.298  10.698  72.257  1.00  0.00     0.000 HD 
HETATM   22  S   UNL     1     -11.449   8.358  72.031  1.00  0.00    -0.377 SA 
HETATM   23  N   UNL     1     -12.254  10.375  70.664  1.00  0.00    -0.320 NA 
ENDBRANCH  15  16
BRANCH  15  24
HETATM   24  N   UNL     1      -9.749   9.776  68.096  1.00  0.00    -0.143 NA 
HETATM   25  H   UNL     1      -9.636   9.810  67.082  1.00  0.00     0.000 HD 
BRANCH  24  26
HETATM   26  O   UNL     1      -8.977   8.971  68.936  1.00  0.00    -0.138 OA 
HETATM   27  O   UNL     1      -7.713   6.764  69.098  1.00  0.00    -0.101 OA 
HETATM   28  O   UNL     1      -5.653   7.639  68.903  1.00  0.00    -0.022 OA 
HETATM   29  C   UNL     1      -7.209   9.624  67.312  1.00  0.00    -0.087 C  
HETATM   30  C   UNL     1      -7.047  10.130  69.797  1.00  0.00    -0.127 C  
HETATM   31  C   UNL     1      -7.556   9.163  68.733  1.00  0.00    -0.083 C  
HETATM   32  C   UNL     1      -6.998   7.751  68.948  1.00  0.00    -0.066 C  
ENDBRANCH  24  26
ENDBRANCH  15  24
ENDBRANCH  13  15
ENDBRANCH   3  11
TORSDOF 5
ENDMDL
MODEL      169
REMARK 921   NORMALIZED FREE ENERGY PREDICTED BY IDOCK:   -4.61 KCAL/MOL
REMARK 922        TOTAL FREE ENERGY PREDICTED BY IDOCK:   -7.11 KCAL/MOL
REMARK 923 INTER-LIGAND FREE ENERGY PREDICTED BY IDOCK:   -6.17 KCAL/MOL
REMARK 924 INTRA-LIGAND FREE ENERGY PREDICTED BY IDOCK:   -0.93 KCAL/MOL
REMARK 927      BINDING AFFINITY PREDICTED BY RF-SCORE:    0.00 PKD
ROOT
HETATM    1  C   UNL     1      -6.782   6.628  67.914  1.00  0.00    -0.071 C  
HETATM    2  C   UNL     1      -7.987   7.126  68.680  1.00  0.00    -0.123 C  
HETATM    3  C   UNL     1      -9.094   7.775  67.790  1.00  0.00    -0.134 C  
HETATM    4  O   UNL     1      -7.516   4.507  70.190  1.00  0.00    -0.049 OA 
HETATM    5  C   UNL     1     -10.050   6.745  68.525  1.00  0.00    -0.162 C  
HETATM    6  N   UNL     1      -8.955   6.106  69.075  1.00  0.00    -0.125 N  
HETATM    7  O   UNL     1      -9.908   4.535  70.690  1.00  0.00    -0.198 OA 
HETATM    8  O   UNL     1      -9.111   3.756  68.484  1.00  0.00    -0.118 OA 
HETATM    9  O   UNL     1     -11.226   6.493  68.614  1.00  0.00    -0.289 OA 
HETATM   10  S   UNL     1      -8.879   4.578  69.664  1.00  0.00    -0.088 S  
ENDROOT
BRANCH   3  11
HETATM   11  N   UNL     1      -9.394   9.232  67.947  1.00  0.00    -0.129 N  
HETATM   12  O   UNL     1      -8.068  10.023  66.230  1.00  0.00    -0.113 OA 
HETATM   13  C   UNL     1      -8.916  10.208  67.092  1.00  0.00    -0.135 C  
HETATM   14  H   UNL     1      -9.984   9.521  68.728  1.00  0.00     0.000 HD 
BRANCH  13  15
HETATM   15  C   UNL     1      -9.461  11.623  67.267  1.00  0.00    -0.168 C  
BRANCH  15  16
HETATM   16  C   UNL     1      -8.642  12.634  67.952  1.00  0.00    -0.181 A  
HETATM   17  C   UNL     1      -8.223  14.595  68.880  1.00  0.00    -0.145 A  
HETATM   18  N   UNL     1      -8.544  15.903  69.272  1.00  0.00    -0.256 NA 
HETATM   19  H2  UNL     1      -7.792  16.506  68.936  1.00  0.00     0.000 HD 
HETATM   20  C   UNL     1      -7.359  12.411  68.439  1.00  0.00    -0.113 A  
HETATM   21  H1  UNL     1      -9.421  16.376  69.055  1.00  0.00     0.000 HD 
HETATM   22  S   UNL     1      -6.770  13.812  69.242  1.00  0.00    -0.073 SA 
HETATM   23  N   UNL     1      -9.110  13.930  68.196  1.00  0.00    -0.188 NA 
ENDBRANCH  15  16
BRANCH  15  24
HETATM   24  N   UNL     1     -10.623  12.031  66.837  1.00  0.00    -0.223 NA 
HETATM   25  H   UNL     1     -11.439  12.155  67.439  1.00  0.00     0.000 HD 
BRANCH  24  26
HETATM   26  O   UNL     1     -10.628  12.280  65.463  1.00  0.00    -0.254 OA 
HETATM   27  O   UNL     1     -11.941  11.945  63.304  1.00  0.00    -0.445 OA 
HETATM   28  O   UNL     1     -12.731  14.043  63.161  1.00  0.00    -0.676 OA 
HETATM   29  C   UNL     1     -12.502  13.778  66.123  1.00  0.00    -0.466 C  
HETATM   30  C   UNL     1     -10.410  14.626  64.955  1.00  0.00    -0.432 C  
HETATM   31  C   UNL     1     -11.385  13.466  65.118  1.00  0.00    -0.299 C  
HETATM   32  C   UNL     1     -12.019  13.075  63.777  1.00  0.00    -0.518 C  
ENDBRANCH  24  26
ENDBRANCH  15  24
ENDBRANCH  13  15
ENDBRANCH   3  11
TORSDOF 5
ENDMDL
MODEL      170
REMARK 921   NORMALIZED FREE ENERGY PREDICTED BY IDOCK:   -4.58 KCAL/MOL
REMARK 922        TOTAL FREE ENERGY PREDICTED BY IDOCK:   -7.07 KCAL/MOL
REMARK 923 INTER-LIGAND FREE ENERGY PREDICTED BY IDOCK:   -5.64 KCAL/MOL
REMARK 924 INTRA-LIGAND FREE ENERGY PREDICTED BY IDOCK:   -1.43 KCAL/MOL
REMARK 927      BINDING AFFINITY PREDICTED BY RF-SCORE:    0.00 PKD
ROOT
HETATM    1  C   UNL     1     -11.236  11.612  65.371  1.00  0.00    -0.262 C  
HETATM    2  C   UNL     1     -10.847  11.627  66.832  1.00  0.00    -0.278 C  
HETATM    3  C   UNL     1      -9.366  11.218  67.110  1.00  0.00    -0.163 C  
HETATM    4  O   UNL     1     -12.539  14.176  66.765  1.00  0.00    -0.306 OA 
HETATM    5  C   UNL     1      -9.315  12.590  67.905  1.00  0.00    -0.200 C  
HETATM    6  N   UNL     1     -10.552  12.941  67.398  1.00  0.00    -0.232 N  
HETATM    7  O   UNL     1     -11.176  14.954  68.639  1.00  0.00    -0.251 OA 
HETATM    8  O   UNL     1     -10.312  15.108  66.329  1.00  0.00    -0.273 OA 
HETATM    9  O   UNL     1      -8.569  13.198  68.631  1.00  0.00    -0.095 OA 
HETATM   10  S   UNL     1     -11.195  14.444  67.278  1.00  0.00    -0.337 S  
ENDROOT
BRANCH   3  11
HETATM   11  N   UNL     1      -9.087   9.964  67.875  1.00  0.00    -0.131 N  
HETATM   12  O   UNL     1     -10.128   8.476  66.448  1.00  0.00    -0.279 OA 
HETATM   13  C   UNL     1      -9.423   8.701  67.423  1.00  0.00    -0.150 C  
HETATM   14  H   UNL     1      -8.625  10.044  68.781  1.00  0.00     0.000 HD 
BRANCH  13  15
HETATM   15  C   UNL     1      -8.905   7.507  68.221  1.00  0.00    -0.125 C  
BRANCH  15  16
HETATM   16  C   UNL     1      -7.997   6.547  67.576  1.00  0.00    -0.114 A  
HETATM   17  C   UNL     1      -6.369   5.911  66.224  1.00  0.00    -0.042 A  
HETATM   18  N   UNL     1      -5.370   6.120  65.262  1.00  0.00    -0.013 NA 
HETATM   19  H2  UNL     1      -5.525   5.436  64.521  1.00  0.00     0.000 HD 
HETATM   20  C   UNL     1      -7.912   5.199  67.904  1.00  0.00    -0.095 A  
HETATM   21  H1  UNL     1      -5.181   7.012  64.804  1.00  0.00     0.000 HD 
HETATM   22  S   UNL     1      -6.681   4.433  66.982  1.00  0.00    -0.052 SA 
HETATM   23  N   UNL     1      -7.105   6.930  66.567  1.00  0.00    -0.066 NA 
ENDBRANCH  15  16
BRANCH  15  24
HETATM   24  N   UNL     1      -9.198   7.263  69.468  1.00  0.00    -0.149 NA 
HETATM   25  H   UNL     1      -9.090   6.347  69.907  1.00  0.00     0.000 HD 
BRANCH  24  26
HETATM   26  O   UNL     1      -9.676   8.392  70.137  1.00  0.00    -0.171 OA 
HETATM   27  O   UNL     1     -11.469  10.202  70.121  1.00  0.00    -0.261 OA 
HETATM   28  O   UNL     1     -12.719   9.334  71.774  1.00  0.00    -0.330 OA 
HETATM   29  C   UNL     1     -11.549   6.834  70.644  1.00  0.00    -0.422 C  
HETATM   30  C   UNL     1     -10.158   7.947  72.457  1.00  0.00    -0.325 C  
HETATM   31  C   UNL     1     -10.749   8.076  71.057  1.00  0.00    -0.220 C  
HETATM   32  C   UNL     1     -11.654   9.310  70.944  1.00  0.00    -0.301 C  
ENDBRANCH  24  26
ENDBRANCH  15  24
ENDBRANCH  13  15
ENDBRANCH   3  11
TORSDOF 5
ENDMDL
MODEL      171
REMARK 921   NORMALIZED FREE ENERGY PREDICTED BY IDOCK:   -4.56 KCAL/MOL
REMARK 922        TOTAL FREE ENERGY PREDICTED BY IDOCK:   -7.04 KCAL/MOL
REMARK 923 INTER-LIGAND FREE ENERGY PREDICTED BY IDOCK:   -6.27 KCAL/MOL
REMARK 924 INTRA-LIGAND FREE ENERGY PREDICTED BY IDOCK:   -0.77 KCAL/MOL
REMARK 927      BINDING AFFINITY PREDICTED BY RF-SCORE:    0.00 PKD
ROOT
HETATM    1  C   UNL     1      -8.743  14.322  68.361  1.00  0.00    -0.181 C  
HETATM    2  C   UNL     1      -9.339  14.014  67.005  1.00  0.00    -0.250 C  
HETATM    3  C   UNL     1     -10.549  13.027  67.042  1.00  0.00    -0.257 C  
HETATM    4  O   UNL     1      -8.846  17.010  66.635  1.00  0.00    -0.225 OA 
HETATM    5  C   UNL     1     -11.284  14.166  66.219  1.00  0.00    -0.329 C  
HETATM    6  N   UNL     1     -10.232  15.030  66.457  1.00  0.00    -0.267 N  
HETATM    7  O   UNL     1     -10.696  16.968  65.038  1.00  0.00    -0.713 OA 
HETATM    8  O   UNL     1     -11.155  17.038  67.465  1.00  0.00    -0.183 OA 
HETATM    9  O   UNL     1     -12.322  14.344  65.631  1.00  0.00    -0.390 OA 
HETATM   10  S   UNL     1     -10.247  16.669  66.388  1.00  0.00    -0.315 S  
ENDROOT
BRANCH   3  11
HETATM   11  N   UNL     1     -10.414  11.684  66.397  1.00  0.00    -0.236 N  
HETATM   12  O   UNL     1      -8.771  10.827  67.775  1.00  0.00    -0.128 OA 
HETATM   13  C   UNL     1      -9.595  10.681  66.883  1.00  0.00    -0.171 C  
HETATM   14  H   UNL     1     -10.956  11.498  65.553  1.00  0.00     0.000 HD 
BRANCH  13  15
HETATM   15  C   UNL     1      -9.708   9.305  66.231  1.00  0.00    -0.271 C  
BRANCH  15  16
HETATM   16  C   UNL     1      -9.007   9.047  64.964  1.00  0.00    -0.147 A  
HETATM   17  C   UNL     1      -7.488   8.115  63.656  1.00  0.00    -0.120 A  
HETATM   18  N   UNL     1      -6.388   7.288  63.386  1.00  0.00    -0.052 NA 
HETATM   19  H2  UNL     1      -5.719   7.849  62.857  1.00  0.00     0.000 HD 
HETATM   20  C   UNL     1      -9.403   9.543  63.727  1.00  0.00     0.122 A  
HETATM   21  H1  UNL     1      -5.854   6.781  64.092  1.00  0.00     0.000 HD 
HETATM   22  S   UNL     1      -8.372   8.954  62.485  1.00  0.00    -0.204 SA 
HETATM   23  N   UNL     1      -7.864   8.241  64.898  1.00  0.00    -0.118 NA 
ENDBRANCH  15  16
BRANCH  15  24
HETATM   24  N   UNL     1     -10.383   8.302  66.720  1.00  0.00    -0.333 NA 
HETATM   25  H   UNL     1     -10.902   7.635  66.148  1.00  0.00     0.000 HD 
BRANCH  24  26
HETATM   26  O   UNL     1     -10.319   8.243  68.114  1.00  0.00    -0.204 OA 
HETATM   27  O   UNL     1     -11.644   7.721  70.227  1.00  0.00    -0.181 OA 
HETATM   28  O   UNL     1     -10.718   5.711  70.616  1.00  0.00    -0.270 OA 
HETATM   29  C   UNL     1     -10.512   5.808  67.642  1.00  0.00    -0.299 C  
HETATM   30  C   UNL     1      -8.539   6.813  68.888  1.00  0.00    -0.130 C  
HETATM   31  C   UNL     1     -10.032   6.908  68.597  1.00  0.00    -0.149 C  
HETATM   32  C   UNL     1     -10.859   6.840  69.888  1.00  0.00    -0.266 C  
ENDBRANCH  24  26
ENDBRANCH  15  24
ENDBRANCH  13  15
ENDBRANCH   3  11
TORSDOF 5
ENDMDL
MODEL      172
REMARK 921   NORMALIZED FREE ENERGY PREDICTED BY IDOCK:   -4.51 KCAL/MOL
REMARK 922        TOTAL FREE ENERGY PREDICTED BY IDOCK:   -6.98 KCAL/MOL
REMARK 923 INTER-LIGAND FREE ENERGY PREDICTED BY IDOCK:   -5.93 KCAL/MOL
REMARK 924 INTRA-LIGAND FREE ENERGY PREDICTED BY IDOCK:   -1.04 KCAL/MOL
REMARK 927      BINDING AFFINITY PREDICTED BY RF-SCORE:    0.00 PKD
ROOT
HETATM    1  C   UNL     1     -12.221  12.670  69.756  1.00  0.00    -0.209 C  
HETATM    2  C   UNL     1     -11.070  12.145  68.928  1.00  0.00    -0.243 C  
HETATM    3  C   UNL     1     -11.327  10.748  68.278  1.00  0.00    -0.309 C  
HETATM    4  O   UNL     1     -10.970  15.079  68.069  1.00  0.00    -0.265 OA 
HETATM    5  C   UNL     1     -10.912  11.485  66.937  1.00  0.00    -0.296 C  
HETATM    6  N   UNL     1     -10.945  12.705  67.585  1.00  0.00    -0.233 N  
HETATM    7  O   UNL     1      -9.990  14.282  65.977  1.00  0.00    -0.294 OA 
HETATM    8  O   UNL     1     -12.433  14.156  66.329  1.00  0.00    -0.466 OA 
HETATM    9  O   UNL     1     -10.681  11.221  65.783  1.00  0.00    -0.263 OA 
HETATM   10  S   UNL     1     -11.099  14.192  66.913  1.00  0.00    -0.316 S  
ENDROOT
BRANCH   3  11
HETATM   11  N   UNL     1     -10.500   9.579  68.711  1.00  0.00    -0.215 N  
HETATM   12  O   UNL     1     -10.897   8.211  66.893  1.00  0.00    -0.250 OA 
HETATM   13  C   UNL     1     -10.297   8.455  67.932  1.00  0.00    -0.221 C  
HETATM   14  H   UNL     1     -10.062   9.613  69.632  1.00  0.00     0.000 HD 
BRANCH  13  15
HETATM   15  C   UNL     1      -9.277   7.432  68.425  1.00  0.00    -0.138 C  
BRANCH  15  16
HETATM   16  C   UNL     1      -7.857   7.609  68.088  1.00  0.00    -0.121 A  
HETATM   17  C   UNL     1      -6.146   8.200  66.819  1.00  0.00    -0.053 A  
HETATM   18  N   UNL     1      -5.552   8.703  65.653  1.00  0.00    -0.042 NA 
HETATM   19  H2  UNL     1      -4.835   8.033  65.373  1.00  0.00     0.000 HD 
HETATM   20  C   UNL     1      -6.803   7.376  68.964  1.00  0.00    -0.068 A  
HETATM   21  H1  UNL     1      -6.059   8.962  64.807  1.00  0.00     0.000 HD 
HETATM   22  S   UNL     1      -5.305   7.772  68.221  1.00  0.00    -0.032 SA 
HETATM   23  N   UNL     1      -7.442   8.059  66.829  1.00  0.00    -0.089 NA 
ENDBRANCH  15  16
BRANCH  15  24
HETATM   24  N   UNL     1      -9.563   6.388  69.153  1.00  0.00    -0.136 NA 
HETATM   25  H   UNL     1      -9.418   5.426  68.845  1.00  0.00     0.000 HD 
BRANCH  24  26
HETATM   26  O   UNL     1     -10.089   6.732  70.400  1.00  0.00    -0.182 OA 
HETATM   27  O   UNL     1     -12.123   6.515  71.920  1.00  0.00    -0.334 OA 
HETATM   28  O   UNL     1     -11.246   4.969  73.295  1.00  0.00    -0.309 OA 
HETATM   29  C   UNL     1      -9.812   4.288  70.771  1.00  0.00    -0.265 C  
HETATM   30  C   UNL     1      -8.667   6.035  72.218  1.00  0.00    -0.131 C  
HETATM   31  C   UNL     1      -9.898   5.689  71.387  1.00  0.00    -0.173 C  
HETATM   32  C   UNL     1     -11.182   5.787  72.222  1.00  0.00    -0.278 C  
ENDBRANCH  24  26
ENDBRANCH  15  24
ENDBRANCH  13  15
ENDBRANCH   3  11
TORSDOF 5
ENDMDL
MODEL      173
REMARK 921   NORMALIZED FREE ENERGY PREDICTED BY IDOCK:   -4.51 KCAL/MOL
REMARK 922        TOTAL FREE ENERGY PREDICTED BY IDOCK:   -6.97 KCAL/MOL
REMARK 923 INTER-LIGAND FREE ENERGY PREDICTED BY IDOCK:   -6.07 KCAL/MOL
REMARK 924 INTRA-LIGAND FREE ENERGY PREDICTED BY IDOCK:   -0.90 KCAL/MOL
REMARK 927      BINDING AFFINITY PREDICTED BY RF-SCORE:    0.00 PKD
ROOT
HETATM    1  C   UNL     1     -11.906  10.857  69.722  1.00  0.00    -0.419 C  
HETATM    2  C   UNL     1     -10.665  10.449  68.960  1.00  0.00    -0.228 C  
HETATM    3  C   UNL     1     -10.731   9.019  68.337  1.00  0.00    -0.096 C  
HETATM    4  O   UNL     1     -10.858  13.357  68.029  1.00  0.00    -0.236 OA 
HETATM    5  C   UNL     1     -10.339   9.770  66.997  1.00  0.00    -0.239 C  
HETATM    6  N   UNL     1     -10.541  10.991  67.610  1.00  0.00    -0.203 N  
HETATM    7  O   UNL     1      -9.696  12.632  66.005  1.00  0.00    -0.255 OA 
HETATM    8  O   UNL     1     -12.123  12.236  66.251  1.00  0.00    -0.626 OA 
HETATM    9  O   UNL     1     -10.025   9.510  65.861  1.00  0.00    -0.291 OA 
HETATM   10  S   UNL     1     -10.831  12.437  66.892  1.00  0.00    -0.261 S  
ENDROOT
BRANCH   3  11
HETATM   11  N   UNL     1      -9.798   7.962  68.837  1.00  0.00    -0.169 N  
HETATM   12  O   UNL     1     -11.293   6.201  68.871  1.00  0.00    -0.367 OA 
HETATM   13  C   UNL     1     -10.152   6.632  68.974  1.00  0.00    -0.162 C  
HETATM   14  H   UNL     1      -8.850   8.238  69.092  1.00  0.00     0.000 HD 
BRANCH  13  15
HETATM   15  C   UNL     1      -9.041   5.641  69.312  1.00  0.00    -0.113 C  
BRANCH  15  16
HETATM   16  C   UNL     1      -8.579   4.696  68.284  1.00  0.00    -0.098 A  
HETATM   17  C   UNL     1      -8.811   3.188  66.685  1.00  0.00    -0.145 A  
HETATM   18  N   UNL     1      -9.547   2.343  65.841  1.00  0.00    -0.355 NA 
HETATM   19  H2  UNL     1      -9.129   1.415  65.914  1.00  0.00     0.000 HD 
HETATM   20  C   UNL     1      -7.255   4.543  67.890  1.00  0.00    -0.065 A  
HETATM   21  H1  UNL     1     -10.557   2.215  65.883  1.00  0.00     0.000 HD 
HETATM   22  S   UNL     1      -7.136   3.400  66.613  1.00  0.00    -0.055 SA 
HETATM   23  N   UNL     1      -9.465   3.867  67.584  1.00  0.00    -0.188 NA 
ENDBRANCH  15  16
BRANCH  15  24
HETATM   24  N   UNL     1      -8.439   5.563  70.466  1.00  0.00    -0.121 NA 
HETATM   25  H   UNL     1      -7.496   5.193  70.590  1.00  0.00     0.000 HD 
BRANCH  24  26
HETATM   26  O   UNL     1      -9.228   6.042  71.515  1.00  0.00    -0.143 OA 
HETATM   27  O   UNL     1     -11.616   6.256  72.377  1.00  0.00    -0.291 OA 
HETATM   28  O   UNL     1     -11.475   4.626  73.917  1.00  0.00    -0.204 OA 
HETATM   29  C   UNL     1      -9.528   3.603  71.903  1.00  0.00    -0.203 C  
HETATM   30  C   UNL     1      -8.544   5.162  73.652  1.00  0.00    -0.111 C  
HETATM   31  C   UNL     1      -9.526   5.018  72.495  1.00  0.00    -0.142 C  
HETATM   32  C   UNL     1     -10.954   5.379  72.924  1.00  0.00    -0.287 C  
ENDBRANCH  24  26
ENDBRANCH  15  24
ENDBRANCH  13  15
ENDBRANCH   3  11
TORSDOF 5
ENDMDL
MODEL      174
REMARK 921   NORMALIZED FREE ENERGY PREDICTED BY IDOCK:   -4.48 KCAL/MOL
REMARK 922        TOTAL FREE ENERGY PREDICTED BY IDOCK:   -6.94 KCAL/MOL
REMARK 923 INTER-LIGAND FREE ENERGY PREDICTED BY IDOCK:   -5.87 KCAL/MOL
REMARK 924 INTRA-LIGAND FREE ENERGY PREDICTED BY IDOCK:   -1.07 KCAL/MOL
REMARK 927      BINDING AFFINITY PREDICTED BY RF-SCORE:    0.00 PKD
ROOT
HETATM    1  C   UNL     1     -11.834  11.552  69.994  1.00  0.00    -0.435 C  
HETATM    2  C   UNL     1     -10.679  10.901  69.266  1.00  0.00    -0.231 C  
HETATM    3  C   UNL     1     -10.894   9.390  68.935  1.00  0.00    -0.123 C  
HETATM    4  O   UNL     1     -10.709  13.587  67.802  1.00  0.00    -0.246 OA 
HETATM    5  C   UNL     1     -10.533   9.838  67.457  1.00  0.00    -0.251 C  
HETATM    6  N   UNL     1     -10.601  11.166  67.832  1.00  0.00    -0.187 N  
HETATM    7  O   UNL     1      -9.738  12.395  65.901  1.00  0.00    -0.252 OA 
HETATM    8  O   UNL     1     -12.168  12.265  66.337  1.00  0.00    -0.613 OA 
HETATM    9  O   UNL     1     -10.313   9.342  66.380  1.00  0.00    -0.242 OA 
HETATM   10  S   UNL     1     -10.826  12.470  66.864  1.00  0.00    -0.256 S  
ENDROOT
BRANCH   3  11
HETATM   11  N   UNL     1     -10.015   8.369  69.584  1.00  0.00    -0.189 N  
HETATM   12  O   UNL     1     -11.663   7.149  70.645  1.00  0.00    -0.313 OA 
HETATM   13  C   UNL     1     -10.496   7.294  70.308  1.00  0.00    -0.219 C  
HETATM   14  H   UNL     1      -9.004   8.472  69.487  1.00  0.00     0.000 HD 
BRANCH  13  15
HETATM   15  C   UNL     1      -9.488   6.234  70.746  1.00  0.00    -0.172 C  
BRANCH  15  16
HETATM   16  C   UNL     1      -8.846   6.351  72.065  1.00  0.00    -0.134 A  
HETATM   17  C   UNL     1      -7.180   6.223  73.512  1.00  0.00    -0.083 A  
HETATM   18  N   UNL     1      -5.863   5.940  73.902  1.00  0.00    -0.058 NA 
HETATM   19  H2  UNL     1      -5.921   5.355  74.735  1.00  0.00     0.000 HD 
HETATM   20  C   UNL     1      -9.455   6.883  73.195  1.00  0.00    -0.150 A  
HETATM   21  H1  UNL     1      -5.155   5.523  73.298  1.00  0.00     0.000 HD 
HETATM   22  S   UNL     1      -8.353   6.915  74.513  1.00  0.00    -0.169 SA 
HETATM   23  N   UNL     1      -7.525   5.943  72.286  1.00  0.00    -0.098 NA 
ENDBRANCH  15  16
BRANCH  15  24
HETATM   24  N   UNL     1      -9.143   5.196  70.037  1.00  0.00    -0.120 NA 
HETATM   25  H   UNL     1      -8.317   4.628  70.227  1.00  0.00     0.000 HD 
BRANCH  24  26
HETATM   26  O   UNL     1     -10.030   4.948  68.986  1.00  0.00    -0.181 OA 
HETATM   27  O   UNL     1     -11.120   5.957  66.916  1.00  0.00    -0.263 OA 
HETATM   28  O   UNL     1      -9.849   4.878  65.410  1.00  0.00    -0.137 OA 
HETATM   29  C   UNL     1      -7.919   5.066  67.676  1.00  0.00    -0.095 C  
HETATM   30  C   UNL     1      -9.407   3.006  67.701  1.00  0.00    -0.242 C  
HETATM   31  C   UNL     1      -9.351   4.528  67.778  1.00  0.00    -0.147 C  
HETATM   32  C   UNL     1     -10.204   5.175  66.679  1.00  0.00    -0.261 C  
ENDBRANCH  24  26
ENDBRANCH  15  24
ENDBRANCH  13  15
ENDBRANCH   3  11
TORSDOF 5
ENDMDL
MODEL      175
REMARK 921   NORMALIZED FREE ENERGY PREDICTED BY IDOCK:   -4.42 KCAL/MOL
REMARK 922        TOTAL FREE ENERGY PREDICTED BY IDOCK:   -6.86 KCAL/MOL
REMARK 923 INTER-LIGAND FREE ENERGY PREDICTED BY IDOCK:   -6.22 KCAL/MOL
REMARK 924 INTRA-LIGAND FREE ENERGY PREDICTED BY IDOCK:   -0.64 KCAL/MOL
REMARK 927      BINDING AFFINITY PREDICTED BY RF-SCORE:    0.00 PKD
ROOT
HETATM    1  C   UNL     1     -10.574  15.360  69.825  1.00  0.00    -0.304 C  
HETATM    2  C   UNL     1      -9.788  14.742  68.691  1.00  0.00    -0.225 C  
HETATM    3  C   UNL     1     -10.599  13.733  67.818  1.00  0.00    -0.246 C  
HETATM    4  O   UNL     1      -8.738  17.608  68.487  1.00  0.00    -0.280 OA 
HETATM    5  C   UNL     1     -10.099  14.635  66.613  1.00  0.00    -0.273 C  
HETATM    6  N   UNL     1      -9.620  15.576  67.504  1.00  0.00    -0.212 N  
HETATM    7  O   UNL     1      -8.349  17.142  66.120  1.00  0.00    -0.407 OA 
HETATM    8  O   UNL     1     -10.619  17.710  66.914  1.00  0.00    -0.317 OA 
HETATM    9  O   UNL     1     -10.108  14.636  65.407  1.00  0.00    -0.349 OA 
HETATM   10  S   UNL     1      -9.305  17.159  67.215  1.00  0.00    -0.246 S  
ENDROOT
BRANCH   3  11
HETATM   11  N   UNL     1     -10.204  12.290  67.813  1.00  0.00    -0.199 N  
HETATM   12  O   UNL     1      -8.113  12.525  68.766  1.00  0.00    -0.050 OA 
HETATM   13  C   UNL     1      -9.029  11.817  68.370  1.00  0.00    -0.168 C  
HETATM   14  H   UNL     1     -10.835  11.619  67.376  1.00  0.00     0.000 HD 
BRANCH  13  15
HETATM   15  C   UNL     1      -8.854  10.303  68.459  1.00  0.00    -0.127 C  
BRANCH  15  16
HETATM   16  C   UNL     1      -9.479   9.568  69.569  1.00  0.00    -0.185 A  
HETATM   17  C   UNL     1     -11.086   8.445  70.588  1.00  0.00    -0.256 A  
HETATM   18  N   UNL     1     -12.362   7.871  70.685  1.00  0.00    -0.499 NA 
HETATM   19  H2  UNL     1     -12.764   8.191  71.566  1.00  0.00     0.000 HD 
HETATM   20  C   UNL     1      -8.831   9.219  70.748  1.00  0.00    -0.225 A  
HETATM   21  H1  UNL     1     -13.093   7.956  69.979  1.00  0.00     0.000 HD 
HETATM   22  S   UNL     1      -9.875   8.302  71.758  1.00  0.00    -0.244 SA 
HETATM   23  N   UNL     1     -10.807   9.131  69.516  1.00  0.00    -0.215 NA 
ENDBRANCH  15  16
BRANCH  15  24
HETATM   24  N   UNL     1      -8.186   9.580  67.603  1.00  0.00    -0.120 NA 
HETATM   25  H   UNL     1      -7.760   8.681  67.832  1.00  0.00     0.000 HD 
BRANCH  24  26
HETATM   26  O   UNL     1      -8.119  10.171  66.340  1.00  0.00    -0.117 OA 
HETATM   27  O   UNL     1      -6.902  10.138  64.101  1.00  0.00    -0.128 OA 
HETATM   28  O   UNL     1      -8.518   9.083  62.951  1.00  0.00    -0.195 OA 
HETATM   29  C   UNL     1      -8.985   7.938  65.665  1.00  0.00    -0.077 C  
HETATM   30  C   UNL     1     -10.232  10.099  65.182  1.00  0.00    -0.233 C  
HETATM   31  C   UNL     1      -8.870   9.434  65.344  1.00  0.00    -0.184 C  
HETATM   32  C   UNL     1      -8.009   9.608  64.086  1.00  0.00    -0.143 C  
ENDBRANCH  24  26
ENDBRANCH  15  24
ENDBRANCH  13  15
ENDBRANCH   3  11
TORSDOF 5
ENDMDL
MODEL      176
REMARK 921   NORMALIZED FREE ENERGY PREDICTED BY IDOCK:   -4.40 KCAL/MOL
REMARK 922        TOTAL FREE ENERGY PREDICTED BY IDOCK:   -6.83 KCAL/MOL
REMARK 923 INTER-LIGAND FREE ENERGY PREDICTED BY IDOCK:   -6.49 KCAL/MOL
REMARK 924 INTRA-LIGAND FREE ENERGY PREDICTED BY IDOCK:   -0.35 KCAL/MOL
REMARK 927      BINDING AFFINITY PREDICTED BY RF-SCORE:    0.00 PKD
ROOT
HETATM    1  C   UNL     1     -10.994  16.027  69.877  1.00  0.00    -0.353 C  
HETATM    2  C   UNL     1     -10.079  15.096  69.114  1.00  0.00    -0.245 C  
HETATM    3  C   UNL     1     -10.789  13.841  68.516  1.00  0.00    -0.263 C  
HETATM    4  O   UNL     1      -8.957  17.769  68.136  1.00  0.00    -0.256 OA 
HETATM    5  C   UNL     1     -10.120  14.319  67.160  1.00  0.00    -0.254 C  
HETATM    6  N   UNL     1      -9.743  15.508  67.754  1.00  0.00    -0.211 N  
HETATM    7  O   UNL     1      -8.273  16.575  66.116  1.00  0.00    -0.321 OA 
HETATM    8  O   UNL     1     -10.616  17.314  66.385  1.00  0.00    -0.281 OA 
HETATM    9  O   UNL     1      -9.972  13.932  66.027  1.00  0.00    -0.298 OA 
HETATM   10  S   UNL     1      -9.362  16.921  67.014  1.00  0.00    -0.243 S  
ENDROOT
BRANCH   3  11
HETATM   11  N   UNL     1     -10.424  12.483  69.027  1.00  0.00    -0.426 N  
HETATM   12  O   UNL     1     -11.687  11.232  67.553  1.00  0.00    -0.574 OA 
HETATM   13  C   UNL     1     -10.844  11.305  68.438  1.00  0.00    -0.205 C  
HETATM   14  H   UNL     1      -9.833  12.423  69.857  1.00  0.00     0.000 HD 
BRANCH  13  15
HETATM   15  C   UNL     1     -10.236  10.004  68.956  1.00  0.00    -0.203 C  
BRANCH  15  16
HETATM   16  C   UNL     1     -10.227   8.816  68.089  1.00  0.00    -0.205 A  
HETATM   17  C   UNL     1      -9.465   7.498  66.486  1.00  0.00    -0.179 A  
HETATM   18  N   UNL     1      -8.586   7.141  65.453  1.00  0.00    -0.313 NA 
HETATM   19  H2  UNL     1      -9.161   6.886  64.651  1.00  0.00     0.000 HD 
HETATM   20  C   UNL     1     -11.091   7.736  68.222  1.00  0.00     0.337 A  
HETATM   21  H1  UNL     1      -7.833   7.733  65.101  1.00  0.00     0.000 HD 
HETATM   22  S   UNL     1     -10.711   6.517  67.071  1.00  0.00    -0.373 SA 
HETATM   23  N   UNL     1      -9.306   8.665  67.045  1.00  0.00    -0.152 NA 
ENDBRANCH  15  16
BRANCH  15  24
HETATM   24  N   UNL     1      -9.696   9.852  70.133  1.00  0.00    -0.350 NA 
HETATM   25  H   UNL     1      -9.173  10.583  70.616  1.00  0.00     0.000 HD 
BRANCH  24  26
HETATM   26  O   UNL     1      -9.914   8.576  70.660  1.00  0.00    -0.181 OA 
HETATM   27  O   UNL     1      -9.497   6.088  70.297  1.00  0.00    -0.159 OA 
HETATM   28  O   UNL     1      -7.869   5.879  71.831  1.00  0.00    -0.103 OA 
HETATM   29  C   UNL     1      -7.457   8.721  71.026  1.00  0.00    -0.105 C  
HETATM   30  C   UNL     1      -9.111   8.371  72.924  1.00  0.00    -0.282 C  
HETATM   31  C   UNL     1      -8.797   8.109  71.455  1.00  0.00    -0.154 C  
HETATM   32  C   UNL     1      -8.778   6.606  71.147  1.00  0.00    -0.137 C  
ENDBRANCH  24  26
ENDBRANCH  15  24
ENDBRANCH  13  15
ENDBRANCH   3  11
TORSDOF 5
ENDMDL
MODEL      177
REMARK 921   NORMALIZED FREE ENERGY PREDICTED BY IDOCK:   -4.39 KCAL/MOL
REMARK 922        TOTAL FREE ENERGY PREDICTED BY IDOCK:   -6.82 KCAL/MOL
REMARK 923 INTER-LIGAND FREE ENERGY PREDICTED BY IDOCK:   -6.10 KCAL/MOL
REMARK 924 INTRA-LIGAND FREE ENERGY PREDICTED BY IDOCK:   -0.72 KCAL/MOL
REMARK 927      BINDING AFFINITY PREDICTED BY RF-SCORE:    0.00 PKD
ROOT
HETATM    1  C   UNL     1      -9.442  11.021  66.110  1.00  0.00    -0.230 C  
HETATM    2  C   UNL     1      -8.922   9.659  66.512  1.00  0.00    -0.147 C  
HETATM    3  C   UNL     1      -9.842   8.468  66.092  1.00  0.00    -0.157 C  
HETATM    4  O   UNL     1      -6.284  10.929  65.626  1.00  0.00    -0.111 OA 
HETATM    5  C   UNL     1      -8.515   7.897  65.436  1.00  0.00    -0.119 C  
HETATM    6  N   UNL     1      -7.874   9.101  65.661  1.00  0.00    -0.094 N  
HETATM    7  O   UNL     1      -5.530   8.660  65.120  1.00  0.00    -0.038 OA 
HETATM    8  O   UNL     1      -6.990   9.864  63.531  1.00  0.00    -0.114 OA 
HETATM    9  O   UNL     1      -8.120   6.892  64.900  1.00  0.00    -0.125 OA 
HETATM   10  S   UNL     1      -6.541   9.682  64.905  1.00  0.00    -0.099 S  
ENDROOT
BRANCH   3  11
HETATM   11  N   UNL     1     -10.498   7.644  67.155  1.00  0.00    -0.318 N  
HETATM   12  O   UNL     1      -8.594   7.015  68.298  1.00  0.00    -0.128 OA 
HETATM   13  C   UNL     1      -9.813   7.067  68.208  1.00  0.00    -0.144 C  
HETATM   14  H   UNL     1     -11.507   7.501  67.098  1.00  0.00     0.000 HD 
BRANCH  13  15
HETATM   15  C   UNL     1     -10.641   6.419  69.314  1.00  0.00    -0.259 C  
BRANCH  15  16
HETATM   16  C   UNL     1     -10.157   5.183  69.948  1.00  0.00    -0.272 A  
HETATM   17  C   UNL     1      -9.782   3.794  71.626  1.00  0.00    -0.168 A  
HETATM   18  N   UNL     1      -9.808   3.401  72.972  1.00  0.00    -0.130 NA 
HETATM   19  H2  UNL     1      -8.866   3.085  73.206  1.00  0.00     0.000 HD 
HETATM   20  C   UNL     1      -9.644   4.091  69.258  1.00  0.00    -0.177 A  
HETATM   21  H1  UNL     1     -10.121   3.990  73.743  1.00  0.00     0.000 HD 
HETATM   22  S   UNL     1      -9.263   2.818  70.348  1.00  0.00    -0.142 SA 
HETATM   23  N   UNL     1     -10.196   4.995  71.335  1.00  0.00    -0.205 NA 
ENDBRANCH  15  16
BRANCH  15  24
HETATM   24  N   UNL     1     -11.771   6.885  69.768  1.00  0.00    -0.615 NA 
HETATM   25  H   UNL     1     -12.641   6.352  69.778  1.00  0.00     0.000 HD 
BRANCH  24  26
HETATM   26  O   UNL     1     -11.658   8.195  70.240  1.00  0.00    -0.150 OA 
HETATM   27  O   UNL     1     -12.755  10.495  70.243  1.00  0.00    -0.310 OA 
HETATM   28  O   UNL     1     -13.597  10.370  72.322  1.00  0.00    -0.299 OA 
HETATM   29  C   UNL     1     -13.632   7.483  71.577  1.00  0.00    -0.439 C  
HETATM   30  C   UNL     1     -11.470   8.291  72.641  1.00  0.00    -0.423 C  
HETATM   31  C   UNL     1     -12.418   8.413  71.454  1.00  0.00    -0.288 C  
HETATM   32  C   UNL     1     -12.913   9.855  71.278  1.00  0.00    -0.395 C  
ENDBRANCH  24  26
ENDBRANCH  15  24
ENDBRANCH  13  15
ENDBRANCH   3  11
TORSDOF 5
ENDMDL
MODEL      178
REMARK 921   NORMALIZED FREE ENERGY PREDICTED BY IDOCK:   -4.37 KCAL/MOL
REMARK 922        TOTAL FREE ENERGY PREDICTED BY IDOCK:   -6.80 KCAL/MOL
REMARK 923 INTER-LIGAND FREE ENERGY PREDICTED BY IDOCK:   -5.99 KCAL/MOL
REMARK 924 INTRA-LIGAND FREE ENERGY PREDICTED BY IDOCK:   -0.81 KCAL/MOL
REMARK 927      BINDING AFFINITY PREDICTED BY RF-SCORE:    0.00 PKD
ROOT
HETATM    1  C   UNL     1     -10.340  14.688  66.020  1.00  0.00    -0.317 C  
HETATM    2  C   UNL     1     -10.307  14.580  67.527  1.00  0.00    -0.244 C  
HETATM    3  C   UNL     1      -9.139  13.707  68.086  1.00  0.00    -0.195 C  
HETATM    4  O   UNL     1     -11.027  17.543  67.281  1.00  0.00    -0.196 OA 
HETATM    5  C   UNL     1      -8.830  14.988  68.968  1.00  0.00    -0.205 C  
HETATM    6  N   UNL     1      -9.740  15.725  68.235  1.00  0.00    -0.200 N  
HETATM    7  O   UNL     1      -9.945  17.836  69.452  1.00  0.00    -0.155 OA 
HETATM    8  O   UNL     1      -8.580  17.688  67.397  1.00  0.00    -0.222 OA 
HETATM    9  O   UNL     1      -8.110  15.319  69.878  1.00  0.00    -0.132 OA 
HETATM   10  S   UNL     1      -9.820  17.356  68.086  1.00  0.00    -0.319 S  
ENDROOT
BRANCH   3  11
HETATM   11  N   UNL     1      -9.459  12.433  68.803  1.00  0.00    -0.409 N  
HETATM   12  O   UNL     1     -10.824  11.492  67.196  1.00  0.00    -0.239 OA 
HETATM   13  C   UNL     1     -10.205  11.409  68.248  1.00  0.00    -0.193 C  
HETATM   14  H   UNL     1      -9.109  12.314  69.754  1.00  0.00     0.000 HD 
BRANCH  13  15
HETATM   15  C   UNL     1     -10.286  10.098  69.025  1.00  0.00    -0.206 C  
BRANCH  15  16
HETATM   16  C   UNL     1     -11.380   9.896  69.987  1.00  0.00    -0.249 A  
HETATM   17  C   UNL     1     -12.576   8.776  71.471  1.00  0.00    -0.326 A  
HETATM   18  N   UNL     1     -12.901   7.652  72.244  1.00  0.00    -0.512 NA 
HETATM   19  H2  UNL     1     -13.897   7.478  72.108  1.00  0.00     0.000 HD 
HETATM   20  C   UNL     1     -12.275  10.883  70.382  1.00  0.00    -0.365 A  
HETATM   21  H1  UNL     1     -12.433   6.749  72.182  1.00  0.00     0.000 HD 
HETATM   22  S   UNL     1     -13.352  10.274  71.575  1.00  0.00    -0.273 SA 
HETATM   23  N   UNL     1     -11.599   8.664  70.616  1.00  0.00    -0.245 NA 
ENDBRANCH  15  16
BRANCH  15  24
HETATM   24  N   UNL     1      -9.450   9.105  68.899  1.00  0.00    -0.150 NA 
HETATM   25  H   UNL     1      -9.237   8.445  69.648  1.00  0.00     0.000 HD 
BRANCH  24  26
HETATM   26  O   UNL     1      -8.878   9.045  67.626  1.00  0.00    -0.124 OA 
HETATM   27  O   UNL     1      -7.980  10.441  65.693  1.00  0.00    -0.145 OA 
HETATM   28  O   UNL     1      -5.803  10.093  66.121  1.00  0.00    -0.058 OA 
HETATM   29  C   UNL     1      -6.908   9.899  68.883  1.00  0.00    -0.057 C  
HETATM   30  C   UNL     1      -6.869   7.714  67.586  1.00  0.00    -0.069 C  
HETATM   31  C   UNL     1      -7.433   9.128  67.665  1.00  0.00    -0.084 C  
HETATM   32  C   UNL     1      -7.114   9.929  66.396  1.00  0.00    -0.096 C  
ENDBRANCH  24  26
ENDBRANCH  15  24
ENDBRANCH  13  15
ENDBRANCH   3  11
TORSDOF 5
ENDMDL
MODEL      179
REMARK 921   NORMALIZED FREE ENERGY PREDICTED BY IDOCK:   -4.36 KCAL/MOL
REMARK 922        TOTAL FREE ENERGY PREDICTED BY IDOCK:   -6.78 KCAL/MOL
REMARK 923 INTER-LIGAND FREE ENERGY PREDICTED BY IDOCK:   -5.48 KCAL/MOL
REMARK 924 INTRA-LIGAND FREE ENERGY PREDICTED BY IDOCK:   -1.30 KCAL/MOL
REMARK 927      BINDING AFFINITY PREDICTED BY RF-SCORE:    0.00 PKD
ROOT
HETATM    1  C   UNL     1      -9.960  10.149  65.416  1.00  0.00    -0.377 C  
HETATM    2  C   UNL     1     -10.408   9.655  66.773  1.00  0.00    -0.222 C  
HETATM    3  C   UNL     1      -9.258   9.088  67.665  1.00  0.00    -0.136 C  
HETATM    4  O   UNL     1     -12.127  12.180  66.596  1.00  0.00    -0.622 OA 
HETATM    5  C   UNL     1      -9.817  10.112  68.739  1.00  0.00    -0.175 C  
HETATM    6  N   UNL     1     -10.632  10.686  67.783  1.00  0.00    -0.217 N  
HETATM    7  O   UNL     1     -12.077  12.208  69.039  1.00  0.00    -0.267 OA 
HETATM    8  O   UNL     1     -10.152  13.067  67.750  1.00  0.00    -0.219 OA 
HETATM    9  O   UNL     1      -9.654  10.400  69.900  1.00  0.00    -0.128 OA 
HETATM   10  S   UNL     1     -11.306  12.181  67.807  1.00  0.00    -0.330 S  
ENDROOT
BRANCH   3  11
HETATM   11  N   UNL     1      -9.264   7.636  68.025  1.00  0.00    -0.138 N  
HETATM   12  O   UNL     1      -7.048   7.449  68.648  1.00  0.00    -0.079 OA 
HETATM   13  C   UNL     1      -8.174   6.977  68.565  1.00  0.00    -0.124 C  
HETATM   14  H   UNL     1     -10.118   7.102  67.863  1.00  0.00     0.000 HD 
BRANCH  13  15
HETATM   15  C   UNL     1      -8.390   5.549  69.057  1.00  0.00    -0.102 C  
BRANCH  15  16
HETATM   16  C   UNL     1      -8.202   4.428  68.124  1.00  0.00    -0.090 A  
HETATM   17  C   UNL     1      -8.777   3.037  66.504  1.00  0.00    -0.133 A  
HETATM   18  N   UNL     1      -9.649   2.509  65.542  1.00  0.00    -0.362 NA 
HETATM   19  H2  UNL     1      -9.671   1.499  65.685  1.00  0.00     0.000 HD 
HETATM   20  C   UNL     1      -7.016   3.720  67.969  1.00  0.00    -0.051 A  
HETATM   21  H1  UNL     1     -10.614   2.809  65.406  1.00  0.00     0.000 HD 
HETATM   22  S   UNL     1      -7.177   2.541  66.729  1.00  0.00    -0.054 SA 
HETATM   23  N   UNL     1      -9.226   3.986  67.277  1.00  0.00    -0.151 NA 
ENDBRANCH  15  16
BRANCH  15  24
HETATM   24  N   UNL     1      -8.726   5.223  70.275  1.00  0.00    -0.120 NA 
HETATM   25  H   UNL     1      -8.369   4.400  70.761  1.00  0.00     0.000 HD 
BRANCH  24  26
HETATM   26  O   UNL     1      -9.631   6.126  70.839  1.00  0.00    -0.170 OA 
HETATM   27  O   UNL     1     -11.728   6.331  72.272  1.00  0.00    -0.302 OA 
HETATM   28  O   UNL     1     -10.688   7.000  74.147  1.00  0.00    -0.226 OA 
HETATM   29  C   UNL     1      -8.534   5.336  72.928  1.00  0.00    -0.116 C  
HETATM   30  C   UNL     1      -8.539   7.776  72.216  1.00  0.00    -0.173 C  
HETATM   31  C   UNL     1      -9.300   6.455  72.210  1.00  0.00    -0.141 C  
HETATM   32  C   UNL     1     -10.684   6.603  72.857  1.00  0.00    -0.255 C  
ENDBRANCH  24  26
ENDBRANCH  15  24
ENDBRANCH  13  15
ENDBRANCH   3  11
TORSDOF 5
ENDMDL
MODEL      180
REMARK 921   NORMALIZED FREE ENERGY PREDICTED BY IDOCK:   -4.35 KCAL/MOL
REMARK 922        TOTAL FREE ENERGY PREDICTED BY IDOCK:   -6.77 KCAL/MOL
REMARK 923 INTER-LIGAND FREE ENERGY PREDICTED BY IDOCK:   -5.80 KCAL/MOL
REMARK 924 INTRA-LIGAND FREE ENERGY PREDICTED BY IDOCK:   -0.98 KCAL/MOL
REMARK 927      BINDING AFFINITY PREDICTED BY RF-SCORE:    0.00 PKD
ROOT
HETATM    1  C   UNL     1     -11.634  11.727  64.848  1.00  0.00    -0.226 C  
HETATM    2  C   UNL     1     -10.822  11.716  66.123  1.00  0.00    -0.294 C  
HETATM    3  C   UNL     1      -9.371  11.163  65.959  1.00  0.00    -0.206 C  
HETATM    4  O   UNL     1     -12.209  14.421  66.469  1.00  0.00    -0.424 OA 
HETATM    5  C   UNL     1      -8.954  12.529  66.647  1.00  0.00    -0.174 C  
HETATM    6  N   UNL     1     -10.248  12.998  66.522  1.00  0.00    -0.263 N  
HETATM    7  O   UNL     1     -10.276  15.075  67.814  1.00  0.00    -0.234 OA 
HETATM    8  O   UNL     1     -10.142  15.121  65.347  1.00  0.00    -0.339 OA 
HETATM    9  O   UNL     1      -7.969  13.066  67.091  1.00  0.00    -0.163 OA 
HETATM   10  S   UNL     1     -10.754  14.558  66.542  1.00  0.00    -0.319 S  
ENDROOT
BRANCH   3  11
HETATM   11  N   UNL     1      -8.991   9.893  66.653  1.00  0.00    -0.138 N  
HETATM   12  O   UNL     1     -11.116   9.182  67.210  1.00  0.00    -0.030 OA 
HETATM   13  C   UNL     1      -9.911   8.982  67.138  1.00  0.00    -0.224 C  
HETATM   14  H   UNL     1      -7.999   9.690  66.777  1.00  0.00     0.000 HD 
BRANCH  13  15
HETATM   15  C   UNL     1      -9.376   7.647  67.649  1.00  0.00    -0.142 C  
BRANCH  15  16
HETATM   16  C   UNL     1      -9.524   6.443  66.818  1.00  0.00    -0.150 A  
HETATM   17  C   UNL     1     -10.621   4.957  65.603  1.00  0.00    -0.121 A  
HETATM   18  N   UNL     1     -11.768   4.401  65.018  1.00  0.00    -0.838 NA 
HETATM   19  H2  UNL     1     -11.771   3.409  65.259  1.00  0.00     0.000 HD 
HETATM   20  C   UNL     1      -8.468   5.658  66.369  1.00  0.00    -0.121 A  
HETATM   21  H1  UNL     1     -12.718   4.742  65.163  1.00  0.00     0.000 HD 
HETATM   22  S   UNL     1      -9.047   4.391  65.363  1.00  0.00    -0.151 SA 
HETATM   23  N   UNL     1     -10.776   5.991  66.381  1.00  0.00    -0.137 NA 
ENDBRANCH  15  16
BRANCH  15  24
HETATM   24  N   UNL     1      -8.768   7.477  68.791  1.00  0.00    -0.129 NA 
HETATM   25  H   UNL     1      -9.123   6.880  69.538  1.00  0.00     0.000 HD 
BRANCH  24  26
HETATM   26  O   UNL     1      -7.578   8.203  68.877  1.00  0.00    -0.094 OA 
HETATM   27  O   UNL     1      -6.563  10.536  68.733  1.00  0.00    -0.051 OA 
HETATM   28  O   UNL     1      -6.298  10.833  70.944  1.00  0.00    -0.351 OA 
HETATM   29  C   UNL     1      -8.680   9.039  70.946  1.00  0.00    -0.280 C  
HETATM   30  C   UNL     1      -6.437   7.845  70.969  1.00  0.00    -0.037 C  
HETATM   31  C   UNL     1      -7.370   8.768  70.195  1.00  0.00    -0.055 C  
HETATM   32  C   UNL     1      -6.695  10.108  69.876  1.00  0.00    -0.110 C  
ENDBRANCH  24  26
ENDBRANCH  15  24
ENDBRANCH  13  15
ENDBRANCH   3  11
TORSDOF 5
ENDMDL
MODEL      181
REMARK 921   NORMALIZED FREE ENERGY PREDICTED BY IDOCK:   -4.35 KCAL/MOL
REMARK 922        TOTAL FREE ENERGY PREDICTED BY IDOCK:   -6.77 KCAL/MOL
REMARK 923 INTER-LIGAND FREE ENERGY PREDICTED BY IDOCK:   -5.76 KCAL/MOL
REMARK 924 INTRA-LIGAND FREE ENERGY PREDICTED BY IDOCK:   -1.01 KCAL/MOL
REMARK 927      BINDING AFFINITY PREDICTED BY RF-SCORE:    0.00 PKD
ROOT
HETATM    1  C   UNL     1     -10.992  13.018  65.965  1.00  0.00    -0.296 C  
HETATM    2  C   UNL     1     -10.289  12.803  67.287  1.00  0.00    -0.232 C  
HETATM    3  C   UNL     1      -8.983  11.952  67.192  1.00  0.00    -0.178 C  
HETATM    4  O   UNL     1     -11.083  15.736  67.643  1.00  0.00    -0.323 OA 
HETATM    5  C   UNL     1      -8.330  13.180  67.955  1.00  0.00    -0.170 C  
HETATM    6  N   UNL     1      -9.482  13.921  67.767  1.00  0.00    -0.208 N  
HETATM    7  O   UNL     1      -9.151  15.926  69.128  1.00  0.00    -0.227 OA 
HETATM    8  O   UNL     1      -8.842  15.995  66.677  1.00  0.00    -0.219 OA 
HETATM    9  O   UNL     1      -7.286  13.481  68.477  1.00  0.00    -0.097 OA 
HETATM   10  S   UNL     1      -9.641  15.552  67.811  1.00  0.00    -0.209 S  
ENDROOT
BRANCH   3  11
HETATM   11  N   UNL     1      -8.934  10.616  67.863  1.00  0.00    -0.136 N  
HETATM   12  O   UNL     1     -10.774  10.874  69.235  1.00  0.00    -0.214 OA 
HETATM   13  C   UNL     1      -9.889  10.174  68.760  1.00  0.00    -0.175 C  
HETATM   14  H   UNL     1      -8.152   9.997  67.647  1.00  0.00     0.000 HD 
BRANCH  13  15
HETATM   15  C   UNL     1      -9.808   8.719  69.214  1.00  0.00    -0.180 C  
BRANCH  15  16
HETATM   16  C   UNL     1     -10.370   8.337  70.518  1.00  0.00    -0.202 A  
HETATM   17  C   UNL     1     -11.913   7.557  71.896  1.00  0.00    -0.301 A  
HETATM   18  N   UNL     1     -13.174   7.036  72.216  1.00  0.00    -0.511 NA 
HETATM   19  H2  UNL     1     -13.540   7.598  72.986  1.00  0.00     0.000 HD 
HETATM   20  C   UNL     1      -9.663   8.344  71.715  1.00  0.00    -0.237 A  
HETATM   21  H1  UNL     1     -13.939   6.914  71.552  1.00  0.00     0.000 HD 
HETATM   22  S   UNL     1     -10.646   7.759  72.997  1.00  0.00    -0.346 SA 
HETATM   23  N   UNL     1     -11.694   7.903  70.658  1.00  0.00    -0.215 NA 
ENDBRANCH  15  16
BRANCH  15  24
HETATM   24  N   UNL     1      -9.276   7.751  68.520  1.00  0.00    -0.138 NA 
HETATM   25  H   UNL     1      -8.674   7.031  68.920  1.00  0.00     0.000 HD 
BRANCH  24  26
HETATM   26  O   UNL     1      -9.621   7.811  67.168  1.00  0.00    -0.150 OA 
HETATM   27  O   UNL     1      -9.592   9.282  65.087  1.00  0.00    -0.213 OA 
HETATM   28  O   UNL     1      -7.877   8.246  64.070  1.00  0.00    -0.132 OA 
HETATM   29  C   UNL     1      -7.146   7.776  66.922  1.00  0.00    -0.081 C  
HETATM   30  C   UNL     1      -8.653   6.007  65.895  1.00  0.00    -0.150 C  
HETATM   31  C   UNL     1      -8.513   7.470  66.299  1.00  0.00    -0.140 C  
HETATM   32  C   UNL     1      -8.733   8.405  65.102  1.00  0.00    -0.083 C  
ENDBRANCH  24  26
ENDBRANCH  15  24
ENDBRANCH  13  15
ENDBRANCH   3  11
TORSDOF 5
ENDMDL
MODEL      182
REMARK 921   NORMALIZED FREE ENERGY PREDICTED BY IDOCK:   -4.34 KCAL/MOL
REMARK 922        TOTAL FREE ENERGY PREDICTED BY IDOCK:   -6.76 KCAL/MOL
REMARK 923 INTER-LIGAND FREE ENERGY PREDICTED BY IDOCK:   -6.31 KCAL/MOL
REMARK 924 INTRA-LIGAND FREE ENERGY PREDICTED BY IDOCK:   -0.45 KCAL/MOL
REMARK 927      BINDING AFFINITY PREDICTED BY RF-SCORE:    0.00 PKD
ROOT
HETATM    1  C   UNL     1     -12.151  12.745  69.996  1.00  0.00    -0.355 C  
HETATM    2  C   UNL     1     -11.012  12.098  69.241  1.00  0.00    -0.110 C  
HETATM    3  C   UNL     1     -11.432  10.877  68.363  1.00  0.00    -0.304 C  
HETATM    4  O   UNL     1     -10.232  15.030  68.851  1.00  0.00    -0.221 OA 
HETATM    5  C   UNL     1     -10.692  11.670  67.207  1.00  0.00    -0.238 C  
HETATM    6  N   UNL     1     -10.587  12.781  68.022  1.00  0.00    -0.220 N  
HETATM    7  O   UNL     1      -9.126  14.311  66.794  1.00  0.00    -0.249 OA 
HETATM    8  O   UNL     1     -11.573  14.654  66.831  1.00  0.00    -0.361 OA 
HETATM    9  O   UNL     1     -10.349  11.509  66.062  1.00  0.00    -0.231 OA 
HETATM   10  S   UNL     1     -10.357  14.340  67.568  1.00  0.00    -0.248 S  
ENDROOT
BRANCH   3  11
HETATM   11  N   UNL     1     -10.914   9.517  68.710  1.00  0.00    -0.426 N  
HETATM   12  O   UNL     1     -10.577   8.741  66.562  1.00  0.00    -0.196 OA 
HETATM   13  C   UNL     1     -10.455   8.610  67.772  1.00  0.00    -0.224 C  
HETATM   14  H   UNL     1     -10.900   9.243  69.693  1.00  0.00     0.000 HD 
BRANCH  13  15
HETATM   15  C   UNL     1      -9.781   7.343  68.291  1.00  0.00    -0.152 C  
BRANCH  15  16
HETATM   16  C   UNL     1      -9.717   6.154  67.426  1.00  0.00    -0.120 A  
HETATM   17  C   UNL     1     -10.448   4.731  65.901  1.00  0.00    -0.274 A  
HETATM   18  N   UNL     1     -11.381   4.233  64.981  1.00  0.00    -1.043 NA 
HETATM   19  H2  UNL     1     -11.498   3.241  65.187  1.00  0.00     0.000 HD 
HETATM   20  C   UNL     1      -8.607   5.327  67.304  1.00  0.00    -0.105 A  
HETATM   21  H1  UNL     1     -12.315   4.616  64.836  1.00  0.00     0.000 HD 
HETATM   22  S   UNL     1      -8.900   4.097  66.141  1.00  0.00    -0.123 SA 
HETATM   23  N   UNL     1     -10.791   5.764  66.618  1.00  0.00    -0.275 NA 
ENDBRANCH  15  16
BRANCH  15  24
HETATM   24  N   UNL     1      -9.231   7.220  69.467  1.00  0.00    -0.149 NA 
HETATM   25  H   UNL     1      -9.504   6.512  70.150  1.00  0.00     0.000 HD 
BRANCH  24  26
HETATM   26  O   UNL     1      -8.226   8.164  69.688  1.00  0.00    -0.116 OA 
HETATM   27  O   UNL     1      -7.154   9.674  71.440  1.00  0.00    -0.324 OA 
HETATM   28  O   UNL     1      -5.325   8.413  71.773  1.00  0.00    -0.034 OA 
HETATM   29  C   UNL     1      -7.284   6.292  71.029  1.00  0.00    -0.075 C  
HETATM   30  C   UNL     1      -6.045   7.342  69.075  1.00  0.00    -0.027 C  
HETATM   31  C   UNL     1      -7.018   7.571  70.225  1.00  0.00    -0.055 C  
HETATM   32  C   UNL     1      -6.511   8.660  71.179  1.00  0.00    -0.055 C  
ENDBRANCH  24  26
ENDBRANCH  15  24
ENDBRANCH  13  15
ENDBRANCH   3  11
TORSDOF 5
ENDMDL
MODEL      183
REMARK 921   NORMALIZED FREE ENERGY PREDICTED BY IDOCK:   -4.34 KCAL/MOL
REMARK 922        TOTAL FREE ENERGY PREDICTED BY IDOCK:   -6.76 KCAL/MOL
REMARK 923 INTER-LIGAND FREE ENERGY PREDICTED BY IDOCK:   -5.33 KCAL/MOL
REMARK 924 INTRA-LIGAND FREE ENERGY PREDICTED BY IDOCK:   -1.43 KCAL/MOL
REMARK 927      BINDING AFFINITY PREDICTED BY RF-SCORE:    0.00 PKD
ROOT
HETATM    1  C   UNL     1     -11.157  10.444  67.674  1.00  0.00    -0.361 C  
HETATM    2  C   UNL     1      -9.875   9.644  67.625  1.00  0.00    -0.164 C  
HETATM    3  C   UNL     1     -10.081   8.097  67.568  1.00  0.00    -0.224 C  
HETATM    4  O   UNL     1      -9.088  11.915  65.732  1.00  0.00    -0.163 OA 
HETATM    5  C   UNL     1      -9.135   8.189  66.299  1.00  0.00    -0.185 C  
HETATM    6  N   UNL     1      -9.222   9.568  66.321  1.00  0.00    -0.161 N  
HETATM    7  O   UNL     1      -7.569  10.315  64.680  1.00  0.00    -0.146 OA 
HETATM    8  O   UNL     1      -9.977  10.285  64.128  1.00  0.00    -0.315 OA 
HETATM    9  O   UNL     1      -8.560   7.456  65.532  1.00  0.00    -0.139 OA 
HETATM   10  S   UNL     1      -8.933  10.610  65.089  1.00  0.00    -0.200 S  
ENDROOT
BRANCH   3  11
HETATM   11  N   UNL     1      -9.620   7.257  68.717  1.00  0.00    -0.142 N  
HETATM   12  O   UNL     1     -11.684   6.850  69.669  1.00  0.00    -0.157 OA 
HETATM   13  C   UNL     1     -10.479   6.643  69.609  1.00  0.00    -0.213 C  
HETATM   14  H   UNL     1      -8.616   7.131  68.849  1.00  0.00     0.000 HD 
BRANCH  13  15
HETATM   15  C   UNL     1      -9.871   5.665  70.611  1.00  0.00    -0.187 C  
BRANCH  15  16
HETATM   16  C   UNL     1      -9.628   6.105  71.993  1.00  0.00    -0.152 A  
HETATM   17  C   UNL     1      -8.720   7.345  73.582  1.00  0.00    -0.185 A  
HETATM   18  N   UNL     1      -7.879   8.355  74.072  1.00  0.00    -0.360 NA 
HETATM   19  H2  UNL     1      -7.331   7.942  74.827  1.00  0.00     0.000 HD 
HETATM   20  C   UNL     1     -10.307   5.623  73.106  1.00  0.00    -0.203 A  
HETATM   21  H1  UNL     1      -7.233   8.900  73.503  1.00  0.00     0.000 HD 
HETATM   22  S   UNL     1      -9.792   6.441  74.526  1.00  0.00    -0.342 SA 
HETATM   23  N   UNL     1      -8.682   7.089  72.304  1.00  0.00    -0.125 NA 
ENDBRANCH  15  16
BRANCH  15  24
HETATM   24  N   UNL     1      -9.547   4.430  70.343  1.00  0.00    -0.179 NA 
HETATM   25  H   UNL     1      -9.000   3.839  70.970  1.00  0.00     0.000 HD 
BRANCH  24  26
HETATM   26  O   UNL     1     -10.030   4.007  69.103  1.00  0.00    -0.087 OA 
HETATM   27  O   UNL     1     -10.161   4.588  66.625  1.00  0.00    -0.225 OA 
HETATM   28  O   UNL     1      -8.606   3.119  65.939  1.00  0.00    -0.108 OA 
HETATM   29  C   UNL     1      -7.597   3.692  68.686  1.00  0.00    -0.053 C  
HETATM   30  C   UNL     1      -9.275   1.790  68.534  1.00  0.00    -0.223 C  
HETATM   31  C   UNL     1      -9.034   3.282  68.340  1.00  0.00    -0.135 C  
HETATM   32  C   UNL     1      -9.341   3.717  66.901  1.00  0.00    -0.194 C  
ENDBRANCH  24  26
ENDBRANCH  15  24
ENDBRANCH  13  15
ENDBRANCH   3  11
TORSDOF 5
ENDMDL
MODEL      184
REMARK 921   NORMALIZED FREE ENERGY PREDICTED BY IDOCK:   -4.32 KCAL/MOL
REMARK 922        TOTAL FREE ENERGY PREDICTED BY IDOCK:   -6.73 KCAL/MOL
REMARK 923 INTER-LIGAND FREE ENERGY PREDICTED BY IDOCK:   -5.79 KCAL/MOL
REMARK 924 INTRA-LIGAND FREE ENERGY PREDICTED BY IDOCK:   -0.93 KCAL/MOL
REMARK 927      BINDING AFFINITY PREDICTED BY RF-SCORE:    0.00 PKD
ROOT
HETATM    1  C   UNL     1      -9.955   4.311  65.351  1.00  0.00    -0.233 C  
HETATM    2  C   UNL     1      -8.907   4.884  66.278  1.00  0.00    -0.116 C  
HETATM    3  C   UNL     1      -9.369   5.027  67.763  1.00  0.00    -0.127 C  
HETATM    4  O   UNL     1      -7.113   3.051  64.611  1.00  0.00    -0.051 OA 
HETATM    5  C   UNL     1      -8.048   4.206  68.075  1.00  0.00    -0.089 C  
HETATM    6  N   UNL     1      -7.877   3.952  66.727  1.00  0.00    -0.088 N  
HETATM    7  O   UNL     1      -5.656   2.939  66.570  1.00  0.00    -0.019 OA 
HETATM    8  O   UNL     1      -7.694   1.545  66.458  1.00  0.00    -0.063 OA 
HETATM    9  O   UNL     1      -7.396   3.849  69.024  1.00  0.00    -0.053 OA 
HETATM   10  S   UNL     1      -6.996   2.752  66.038  1.00  0.00    -0.057 S  
ENDROOT
BRANCH   3  11
HETATM   11  N   UNL     1      -9.491   6.393  68.360  1.00  0.00    -0.120 N  
HETATM   12  O   UNL     1     -10.820   7.342  66.727  1.00  0.00    -0.311 OA 
HETATM   13  C   UNL     1     -10.279   7.395  67.824  1.00  0.00    -0.196 C  
HETATM   14  H   UNL     1      -8.964   6.597  69.210  1.00  0.00     0.000 HD 
BRANCH  13  15
HETATM   15  C   UNL     1     -10.454   8.669  68.647  1.00  0.00    -0.177 C  
BRANCH  15  16
HETATM   16  C   UNL     1     -11.149   8.602  69.941  1.00  0.00    -0.116 A  
HETATM   17  C   UNL     1     -11.993   7.607  71.725  1.00  0.00    -0.299 A  
HETATM   18  N   UNL     1     -12.309   6.498  72.523  1.00  0.00    -0.513 NA 
HETATM   19  H2  UNL     1     -13.297   6.579  72.765  1.00  0.00     0.000 HD 
HETATM   20  C   UNL     1     -11.551   9.709  70.678  1.00  0.00    -0.299 A  
HETATM   21  H1  UNL     1     -12.150   5.526  72.257  1.00  0.00     0.000 HD 
HETATM   22  S   UNL     1     -12.257   9.216  72.166  1.00  0.00    -0.298 SA 
HETATM   23  N   UNL     1     -11.449   7.384  70.562  1.00  0.00    -0.277 NA 
ENDBRANCH  15  16
BRANCH  15  24
HETATM   24  N   UNL     1     -10.017   9.847  68.297  1.00  0.00    -0.147 NA 
HETATM   25  H   UNL     1      -9.233  10.318  68.748  1.00  0.00     0.000 HD 
BRANCH  24  26
HETATM   26  O   UNL     1     -10.742  10.392  67.235  1.00  0.00    -0.255 OA 
HETATM   27  O   UNL     1     -12.056  12.433  66.458  1.00  0.00    -0.599 OA 
HETATM   28  O   UNL     1     -10.459  13.265  65.115  1.00  0.00    -0.307 OA 
HETATM   29  C   UNL     1      -8.761  11.894  67.148  1.00  0.00    -0.176 C  
HETATM   30  C   UNL     1      -9.472  10.442  65.187  1.00  0.00    -0.303 C  
HETATM   31  C   UNL     1      -9.932  11.250  66.395  1.00  0.00    -0.215 C  
HETATM   32  C   UNL     1     -10.925  12.347  65.989  1.00  0.00    -0.289 C  
ENDBRANCH  24  26
ENDBRANCH  15  24
ENDBRANCH  13  15
ENDBRANCH   3  11
TORSDOF 5
ENDMDL
MODEL      185
REMARK 921   NORMALIZED FREE ENERGY PREDICTED BY IDOCK:   -4.30 KCAL/MOL
REMARK 922        TOTAL FREE ENERGY PREDICTED BY IDOCK:   -6.70 KCAL/MOL
REMARK 923 INTER-LIGAND FREE ENERGY PREDICTED BY IDOCK:   -5.72 KCAL/MOL
REMARK 924 INTRA-LIGAND FREE ENERGY PREDICTED BY IDOCK:   -0.99 KCAL/MOL
REMARK 927      BINDING AFFINITY PREDICTED BY RF-SCORE:    0.00 PKD
ROOT
HETATM    1  C   UNL     1     -10.593   7.685  67.046  1.00  0.00    -0.406 C  
HETATM    2  C   UNL     1      -9.454   8.302  66.266  1.00  0.00    -0.203 C  
HETATM    3  C   UNL     1      -8.718   9.463  67.007  1.00  0.00    -0.127 C  
HETATM    4  O   UNL     1      -8.965   5.362  65.573  1.00  0.00    -0.159 OA 
HETATM    5  C   UNL     1      -7.418   8.612  66.692  1.00  0.00    -0.089 C  
HETATM    6  N   UNL     1      -8.200   7.553  66.271  1.00  0.00    -0.119 N  
HETATM    7  O   UNL     1      -6.617   5.973  65.281  1.00  0.00    -0.041 OA 
HETATM    8  O   UNL     1      -7.528   5.600  67.548  1.00  0.00    -0.079 OA 
HETATM    9  O   UNL     1      -6.219   8.710  66.776  1.00  0.00    -0.056 OA 
HETATM   10  S   UNL     1      -7.774   5.974  66.162  1.00  0.00    -0.105 S  
ENDROOT
BRANCH   3  11
HETATM   11  N   UNL     1      -8.792  10.848  66.446  1.00  0.00    -0.165 N  
HETATM   12  O   UNL     1     -10.420  11.681  67.856  1.00  0.00    -0.183 OA 
HETATM   13  C   UNL     1      -9.578  11.851  66.984  1.00  0.00    -0.189 C  
HETATM   14  H   UNL     1      -8.232  11.064  65.622  1.00  0.00     0.000 HD 
BRANCH  13  15
HETATM   15  C   UNL     1      -9.403  13.259  66.422  1.00  0.00    -0.174 C  
BRANCH  15  16
HETATM   16  C   UNL     1     -10.453  13.828  65.564  1.00  0.00    -0.318 A  
HETATM   17  C   UNL     1     -11.951  13.819  63.938  1.00  0.00    -0.371 A  
HETATM   18  N   UNL     1     -12.654  13.243  62.870  1.00  0.00    -0.686 NA 
HETATM   19  H2  UNL     1     -12.608  13.904  62.095  1.00  0.00     0.000 HD 
HETATM   20  C   UNL     1     -11.023  15.083  65.742  1.00  0.00    -0.350 A  
HETATM   21  H1  UNL     1     -12.465  12.319  62.480  1.00  0.00     0.000 HD 
HETATM   22  S   UNL     1     -12.265  15.349  64.583  1.00  0.00     0.070 SA 
HETATM   23  N   UNL     1     -10.992  13.123  64.481  1.00  0.00    -0.352 NA 
ENDBRANCH  15  16
BRANCH  15  24
HETATM   24  N   UNL     1      -8.377  14.030  66.652  1.00  0.00    -0.389 NA 
HETATM   25  H   UNL     1      -7.807  14.450  65.917  1.00  0.00     0.000 HD 
BRANCH  24  26
HETATM   26  O   UNL     1      -8.145  14.219  68.017  1.00  0.00    -0.125 OA 
HETATM   27  O   UNL     1      -6.354  14.227  69.829  1.00  0.00    -0.127 OA 
HETATM   28  O   UNL     1      -6.203  16.460  70.024  1.00  0.00    -0.196 OA 
HETATM   29  C   UNL     1      -6.986  16.244  67.154  1.00  0.00    -0.243 C  
HETATM   30  C   UNL     1      -8.926  16.363  68.791  1.00  0.00    -0.245 C  
HETATM   31  C   UNL     1      -7.714  15.567  68.323  1.00  0.00    -0.115 C  
HETATM   32  C   UNL     1      -6.716  15.343  69.466  1.00  0.00    -0.174 C  
ENDBRANCH  24  26
ENDBRANCH  15  24
ENDBRANCH  13  15
ENDBRANCH   3  11
TORSDOF 5
ENDMDL
MODEL      186
REMARK 921   NORMALIZED FREE ENERGY PREDICTED BY IDOCK:   -4.30 KCAL/MOL
REMARK 922        TOTAL FREE ENERGY PREDICTED BY IDOCK:   -6.70 KCAL/MOL
REMARK 923 INTER-LIGAND FREE ENERGY PREDICTED BY IDOCK:   -5.39 KCAL/MOL
REMARK 924 INTRA-LIGAND FREE ENERGY PREDICTED BY IDOCK:   -1.31 KCAL/MOL
REMARK 927      BINDING AFFINITY PREDICTED BY RF-SCORE:    0.00 PKD
ROOT
HETATM    1  C   UNL     1      -8.603   3.615  69.453  1.00  0.00    -0.108 C  
HETATM    2  C   UNL     1      -9.330   4.502  68.467  1.00  0.00    -0.143 C  
HETATM    3  C   UNL     1      -8.666   5.897  68.244  1.00  0.00    -0.112 C  
HETATM    4  O   UNL     1      -9.595   1.836  66.990  1.00  0.00     0.085 OA 
HETATM    5  C   UNL     1      -8.733   5.495  66.712  1.00  0.00    -0.114 C  
HETATM    6  N   UNL     1      -9.099   4.207  67.056  1.00  0.00    -0.132 N  
HETATM    7  O   UNL     1      -9.712   3.154  64.935  1.00  0.00    -0.149 OA 
HETATM    8  O   UNL     1      -7.525   2.695  65.991  1.00  0.00    -0.066 OA 
HETATM    9  O   UNL     1      -8.536   5.985  65.628  1.00  0.00    -0.142 OA 
HETATM   10  S   UNL     1      -8.965   2.850  66.145  1.00  0.00    -0.135 S  
ENDROOT
BRANCH   3  11
HETATM   11  N   UNL     1      -9.399   7.130  68.669  1.00  0.00    -0.135 N  
HETATM   12  O   UNL     1      -8.456   7.362  70.764  1.00  0.00    -0.128 OA 
HETATM   13  C   UNL     1      -9.158   7.793  69.858  1.00  0.00    -0.147 C  
HETATM   14  H   UNL     1     -10.117   7.502  68.046  1.00  0.00     0.000 HD 
BRANCH  13  15
HETATM   15  C   UNL     1      -9.847   9.139  70.065  1.00  0.00    -0.193 C  
BRANCH  15  16
HETATM   16  C   UNL     1     -11.047   9.213  70.913  1.00  0.00    -0.291 A  
HETATM   17  C   UNL     1     -12.712  10.218  71.963  1.00  0.00    -0.301 A  
HETATM   18  N   UNL     1     -13.463  11.331  72.367  1.00  0.00    -0.442 NA 
HETATM   19  H2  UNL     1     -13.583  11.256  73.377  1.00  0.00     0.000 HD 
HETATM   20  C   UNL     1     -11.731   8.110  71.409  1.00  0.00    -0.285 A  
HETATM   21  H1  UNL     1     -13.217  12.301  72.171  1.00  0.00     0.000 HD 
HETATM   22  S   UNL     1     -13.120   8.611  72.288  1.00  0.00    -0.355 SA 
HETATM   23  N   UNL     1     -11.624  10.435  71.279  1.00  0.00    -0.250 NA 
ENDBRANCH  15  16
BRANCH  15  24
HETATM   24  N   UNL     1      -9.446  10.267  69.550  1.00  0.00    -0.316 NA 
HETATM   25  H   UNL     1      -9.400  11.144  70.070  1.00  0.00     0.000 HD 
BRANCH  24  26
HETATM   26  O   UNL     1      -9.086  10.143  68.205  1.00  0.00    -0.120 OA 
HETATM   27  O   UNL     1      -9.834   9.256  65.937  1.00  0.00    -0.281 OA 
HETATM   28  O   UNL     1     -10.405  11.246  65.064  1.00  0.00    -0.271 OA 
HETATM   29  C   UNL     1     -10.949  11.773  67.948  1.00  0.00    -0.272 C  
HETATM   30  C   UNL     1      -8.573  12.271  67.195  1.00  0.00    -0.187 C  
HETATM   31  C   UNL     1      -9.642  11.200  67.385  1.00  0.00    -0.168 C  
HETATM   32  C   UNL     1      -9.945  10.472  66.070  1.00  0.00    -0.237 C  
ENDBRANCH  24  26
ENDBRANCH  15  24
ENDBRANCH  13  15
ENDBRANCH   3  11
TORSDOF 5
ENDMDL
MODEL      187
REMARK 921   NORMALIZED FREE ENERGY PREDICTED BY IDOCK:   -4.30 KCAL/MOL
REMARK 922        TOTAL FREE ENERGY PREDICTED BY IDOCK:   -6.70 KCAL/MOL
REMARK 923 INTER-LIGAND FREE ENERGY PREDICTED BY IDOCK:   -5.70 KCAL/MOL
REMARK 924 INTRA-LIGAND FREE ENERGY PREDICTED BY IDOCK:   -1.00 KCAL/MOL
REMARK 927      BINDING AFFINITY PREDICTED BY RF-SCORE:    0.00 PKD
ROOT
HETATM    1  C   UNL     1     -10.408   4.989  67.554  1.00  0.00    -0.151 C  
HETATM    2  C   UNL     1      -9.568   6.126  68.090  1.00  0.00    -0.116 C  
HETATM    3  C   UNL     1     -10.348   7.463  68.296  1.00  0.00    -0.194 C  
HETATM    4  O   UNL     1      -8.437   3.855  69.800  1.00  0.00    -0.059 OA 
HETATM    5  C   UNL     1      -9.751   7.388  69.763  1.00  0.00    -0.170 C  
HETATM    6  N   UNL     1      -9.306   6.101  69.526  1.00  0.00    -0.137 N  
HETATM    7  O   UNL     1      -7.912   5.566  71.464  1.00  0.00    -0.111 OA 
HETATM    8  O   UNL     1     -10.212   4.684  71.277  1.00  0.00    -0.192 OA 
HETATM    9  O   UNL     1      -9.684   8.065  70.759  1.00  0.00    -0.165 OA 
HETATM   10  S   UNL     1      -8.934   4.950  70.633  1.00  0.00    -0.130 S  
ENDROOT
BRANCH   3  11
HETATM   11  N   UNL     1      -9.989   8.653  67.462  1.00  0.00    -0.184 N  
HETATM   12  O   UNL     1     -11.558  10.123  68.304  1.00  0.00    -0.193 OA 
HETATM   13  C   UNL     1     -10.576   9.896  67.611  1.00  0.00    -0.270 C  
HETATM   14  H   UNL     1      -9.272   8.540  66.745  1.00  0.00     0.000 HD 
BRANCH  13  15
HETATM   15  C   UNL     1      -9.973  11.056  66.822  1.00  0.00    -0.203 C  
BRANCH  15  16
HETATM   16  C   UNL     1     -10.148  11.104  65.363  1.00  0.00    -0.264 A  
HETATM   17  C   UNL     1     -11.184  11.599  63.474  1.00  0.00    -0.373 A  
HETATM   18  N   UNL     1     -12.238  12.117  62.708  1.00  0.00    -0.245 NA 
HETATM   19  H2  UNL     1     -12.496  11.397  62.034  1.00  0.00     0.000 HD 
HETATM   20  C   UNL     1      -9.191  10.701  64.440  1.00  0.00    -0.234 A  
HETATM   21  H1  UNL     1     -13.108  12.487  63.092  1.00  0.00     0.000 HD 
HETATM   22  S   UNL     1      -9.743  10.987  62.838  1.00  0.00    -0.294 SA 
HETATM   23  N   UNL     1     -11.317  11.596  64.770  1.00  0.00    -0.249 NA 
ENDBRANCH  15  16
BRANCH  15  24
HETATM   24  N   UNL     1      -9.305  12.045  67.347  1.00  0.00    -0.175 NA 
HETATM   25  H   UNL     1      -8.289  12.056  67.442  1.00  0.00     0.000 HD 
BRANCH  24  26
HETATM   26  O   UNL     1     -10.134  13.089  67.765  1.00  0.00    -0.219 OA 
HETATM   27  O   UNL     1     -10.695  14.633  69.714  1.00  0.00    -0.204 OA 
HETATM   28  O   UNL     1      -9.684  16.460  68.886  1.00  0.00    -0.237 OA 
HETATM   29  C   UNL     1      -7.983  14.334  67.670  1.00  0.00    -0.191 C  
HETATM   30  C   UNL     1     -10.016  14.997  66.298  1.00  0.00    -0.300 C  
HETATM   31  C   UNL     1      -9.514  14.387  67.602  1.00  0.00    -0.214 C  
HETATM   32  C   UNL     1     -10.039  15.159  68.820  1.00  0.00    -0.226 C  
ENDBRANCH  24  26
ENDBRANCH  15  24
ENDBRANCH  13  15
ENDBRANCH   3  11
TORSDOF 5
ENDMDL
MODEL      188
REMARK 921   NORMALIZED FREE ENERGY PREDICTED BY IDOCK:   -4.29 KCAL/MOL
REMARK 922        TOTAL FREE ENERGY PREDICTED BY IDOCK:   -6.69 KCAL/MOL
REMARK 923 INTER-LIGAND FREE ENERGY PREDICTED BY IDOCK:   -5.81 KCAL/MOL
REMARK 924 INTRA-LIGAND FREE ENERGY PREDICTED BY IDOCK:   -0.88 KCAL/MOL
REMARK 927      BINDING AFFINITY PREDICTED BY RF-SCORE:    0.00 PKD
ROOT
HETATM    1  C   UNL     1      -7.548  14.850  69.629  1.00  0.00    -0.098 C  
HETATM    2  C   UNL     1      -8.172  14.611  68.272  1.00  0.00    -0.146 C  
HETATM    3  C   UNL     1      -9.169  13.410  68.224  1.00  0.00    -0.198 C  
HETATM    4  O   UNL     1      -8.280  17.669  68.312  1.00  0.00    -0.257 OA 
HETATM    5  C   UNL     1     -10.163  14.481  67.606  1.00  0.00    -0.225 C  
HETATM    6  N   UNL     1      -9.279  15.496  67.917  1.00  0.00    -0.186 N  
HETATM    7  O   UNL     1     -10.200  17.475  66.813  1.00  0.00    -0.306 OA 
HETATM    8  O   UNL     1     -10.486  17.133  69.244  1.00  0.00    -0.337 OA 
HETATM    9  O   UNL     1     -11.256  14.528  67.099  1.00  0.00    -0.310 OA 
HETATM   10  S   UNL     1      -9.606  17.094  68.084  1.00  0.00    -0.280 S  
ENDROOT
BRANCH   3  11
HETATM   11  N   UNL     1      -8.832  12.217  67.388  1.00  0.00    -0.174 N  
HETATM   12  O   UNL     1      -8.930  10.618  69.051  1.00  0.00    -0.167 OA 
HETATM   13  C   UNL     1      -8.830  10.920  67.870  1.00  0.00    -0.134 C  
HETATM   14  H   UNL     1      -8.589  12.367  66.408  1.00  0.00     0.000 HD 
BRANCH  13  15
HETATM   15  C   UNL     1      -8.653   9.794  66.856  1.00  0.00    -0.124 C  
BRANCH  15  16
HETATM   16  C   UNL     1      -8.933  10.051  65.435  1.00  0.00    -0.180 A  
HETATM   17  C   UNL     1     -10.140  10.724  63.710  1.00  0.00    -0.327 A  
HETATM   18  N   UNL     1     -11.290  11.242  63.096  1.00  0.00    -0.836 NA 
HETATM   19  H2  UNL     1     -11.525  10.613  62.329  1.00  0.00     0.000 HD 
HETATM   20  C   UNL     1      -8.009   9.898  64.408  1.00  0.00    -0.146 A  
HETATM   21  H1  UNL     1     -12.161  11.455  63.581  1.00  0.00     0.000 HD 
HETATM   22  S   UNL     1      -8.696  10.371  62.906  1.00  0.00    -0.238 SA 
HETATM   23  N   UNL     1     -10.182  10.504  64.994  1.00  0.00    -0.317 NA 
ENDBRANCH  15  16
BRANCH  15  24
HETATM   24  N   UNL     1      -8.253   8.587  67.146  1.00  0.00    -0.107 NA 
HETATM   25  H   UNL     1      -7.615   8.370  67.912  1.00  0.00     0.000 HD 
BRANCH  24  26
HETATM   26  O   UNL     1      -8.794   7.624  66.291  1.00  0.00    -0.144 OA 
HETATM   27  O   UNL     1      -8.387   6.286  64.160  1.00  0.00    -0.058 OA 
HETATM   28  O   UNL     1      -7.872   4.348  65.173  1.00  0.00    -0.084 OA 
HETATM   29  C   UNL     1      -6.929   6.278  67.242  1.00  0.00    -0.072 C  
HETATM   30  C   UNL     1      -9.366   5.589  67.449  1.00  0.00    -0.115 C  
HETATM   31  C   UNL     1      -8.318   6.289  66.591  1.00  0.00    -0.112 C  
HETATM   32  C   UNL     1      -8.219   5.653  65.198  1.00  0.00    -0.136 C  
ENDBRANCH  24  26
ENDBRANCH  15  24
ENDBRANCH  13  15
ENDBRANCH   3  11
TORSDOF 5
ENDMDL
MODEL      189
REMARK 921   NORMALIZED FREE ENERGY PREDICTED BY IDOCK:   -4.28 KCAL/MOL
REMARK 922        TOTAL FREE ENERGY PREDICTED BY IDOCK:   -6.68 KCAL/MOL
REMARK 923 INTER-LIGAND FREE ENERGY PREDICTED BY IDOCK:   -5.66 KCAL/MOL
REMARK 924 INTRA-LIGAND FREE ENERGY PREDICTED BY IDOCK:   -1.03 KCAL/MOL
REMARK 927      BINDING AFFINITY PREDICTED BY RF-SCORE:    0.00 PKD
ROOT
HETATM    1  C   UNL     1      -8.455  10.472  62.549  1.00  0.00    -0.233 C  
HETATM    2  C   UNL     1      -8.347  10.516  64.056  1.00  0.00    -0.091 C  
HETATM    3  C   UNL     1      -9.719  10.477  64.802  1.00  0.00    -0.305 C  
HETATM    4  O   UNL     1      -6.012   8.628  63.470  1.00  0.00    -0.075 OA 
HETATM    5  C   UNL     1      -9.064   9.266  65.588  1.00  0.00    -0.216 C  
HETATM    6  N   UNL     1      -8.000   9.255  64.706  1.00  0.00    -0.117 N  
HETATM    7  O   UNL     1      -6.393   7.702  65.700  1.00  0.00    -0.041 OA 
HETATM    8  O   UNL     1      -7.822   7.007  63.807  1.00  0.00    -0.121 OA 
HETATM    9  O   UNL     1      -9.304   8.549  66.528  1.00  0.00    -0.172 OA 
HETATM   10  S   UNL     1      -6.964   8.022  64.401  1.00  0.00    -0.074 S  
ENDROOT
BRANCH   3  11
HETATM   11  N   UNL     1     -10.149  11.668  65.599  1.00  0.00    -0.230 N  
HETATM   12  O   UNL     1     -11.515  10.573  67.104  1.00  0.00    -0.311 OA 
HETATM   13  C   UNL     1     -10.941  11.586  66.730  1.00  0.00    -0.294 C  
HETATM   14  H   UNL     1      -9.842  12.591  65.291  1.00  0.00     0.000 HD 
BRANCH  13  15
HETATM   15  C   UNL     1     -11.138  12.863  67.543  1.00  0.00    -0.269 C  
BRANCH  15  16
HETATM   16  C   UNL     1     -10.399  14.078  67.169  1.00  0.00    -0.265 A  
HETATM   17  C   UNL     1      -8.600  15.318  66.832  1.00  0.00    -0.257 A  
HETATM   18  N   UNL     1      -7.220  15.568  66.824  1.00  0.00    -0.268 NA 
HETATM   19  H2  UNL     1      -7.077  16.451  67.316  1.00  0.00     0.000 HD 
HETATM   20  C   UNL     1     -10.981  15.223  66.639  1.00  0.00    -0.297 A  
HETATM   21  H1  UNL     1      -6.510  14.921  67.167  1.00  0.00     0.000 HD 
HETATM   22  S   UNL     1      -9.776  16.390  66.263  1.00  0.00    -0.328 SA 
HETATM   23  N   UNL     1      -9.008  14.173  67.302  1.00  0.00    -0.203 NA 
ENDBRANCH  15  16
BRANCH  15  24
HETATM   24  N   UNL     1     -11.937  12.977  68.567  1.00  0.00    -0.309 NA 
HETATM   25  H   UNL     1     -12.922  12.710  68.550  1.00  0.00     0.000 HD 
BRANCH  24  26
HETATM   26  O   UNL     1     -11.296  13.505  69.690  1.00  0.00    -0.234 OA 
HETATM   27  O   UNL     1      -9.922  15.468  70.557  1.00  0.00    -0.030 OA 
HETATM   28  O   UNL     1     -11.591  16.466  71.683  1.00  0.00    -0.443 OA 
HETATM   29  C   UNL     1     -13.150  15.154  69.506  1.00  0.00     0.638 C  
HETATM   30  C   UNL     1     -12.783  13.725  71.575  1.00  0.00    -0.432 C  
HETATM   31  C   UNL     1     -12.126  14.451  70.407  1.00  0.00    -0.331 C  
HETATM   32  C   UNL     1     -11.102  15.485  70.894  1.00  0.00    -0.348 C  
ENDBRANCH  24  26
ENDBRANCH  15  24
ENDBRANCH  13  15
ENDBRANCH   3  11
TORSDOF 5
ENDMDL
MODEL      190
REMARK 921   NORMALIZED FREE ENERGY PREDICTED BY IDOCK:   -4.28 KCAL/MOL
REMARK 922        TOTAL FREE ENERGY PREDICTED BY IDOCK:   -6.67 KCAL/MOL
REMARK 923 INTER-LIGAND FREE ENERGY PREDICTED BY IDOCK:   -5.58 KCAL/MOL
REMARK 924 INTRA-LIGAND FREE ENERGY PREDICTED BY IDOCK:   -1.10 KCAL/MOL
REMARK 927      BINDING AFFINITY PREDICTED BY RF-SCORE:    0.00 PKD
ROOT
HETATM    1  C   UNL     1      -8.168  13.983  67.869  1.00  0.00    -0.158 C  
HETATM    2  C   UNL     1      -9.047  12.960  67.185  1.00  0.00    -0.220 C  
HETATM    3  C   UNL     1      -9.511  11.789  68.107  1.00  0.00    -0.193 C  
HETATM    4  O   UNL     1     -10.227  15.500  65.952  1.00  0.00    -0.297 OA 
HETATM    5  C   UNL     1     -10.960  12.194  67.607  1.00  0.00    -0.243 C  
HETATM    6  N   UNL     1     -10.449  13.336  67.020  1.00  0.00    -0.248 N  
HETATM    7  O   UNL     1     -12.309  14.242  65.715  1.00  0.00    -0.426 OA 
HETATM    8  O   UNL     1     -11.696  15.226  67.897  1.00  0.00    -0.328 OA 
HETATM    9  O   UNL     1     -12.096  11.795  67.676  1.00  0.00    -0.598 OA 
HETATM   10  S   UNL     1     -11.260  14.701  66.611  1.00  0.00    -0.353 S  
ENDROOT
BRANCH   3  11
HETATM   11  N   UNL     1      -9.040  10.399  67.813  1.00  0.00    -0.131 N  
HETATM   12  O   UNL     1      -6.976  10.533  68.839  1.00  0.00    -0.061 OA 
HETATM   13  C   UNL     1      -7.849   9.879  68.285  1.00  0.00    -0.085 C  
HETATM   14  H   UNL     1      -9.631   9.803  67.232  1.00  0.00     0.000 HD 
BRANCH  13  15
HETATM   15  C   UNL     1      -7.596   8.390  68.062  1.00  0.00    -0.098 C  
BRANCH  15  16
HETATM   16  C   UNL     1      -7.503   7.871  66.689  1.00  0.00    -0.089 A  
HETATM   17  C   UNL     1      -7.883   7.857  64.512  1.00  0.00    -0.134 A  
HETATM   18  N   UNL     1      -8.436   8.351  63.322  1.00  0.00    -0.403 NA 
HETATM   19  H2  UNL     1      -8.900   7.566  62.863  1.00  0.00     0.000 HD 
HETATM   20  C   UNL     1      -6.724   6.786  66.307  1.00  0.00    -0.052 A  
HETATM   21  H1  UNL     1      -9.074   9.145  63.263  1.00  0.00     0.000 HD 
HETATM   22  S   UNL     1      -6.826   6.542  64.609  1.00  0.00    -0.048 SA 
HETATM   23  N   UNL     1      -8.196   8.460  65.624  1.00  0.00    -0.124 NA 
ENDBRANCH  15  16
BRANCH  15  24
HETATM   24  N   UNL     1      -7.437   7.512  69.013  1.00  0.00    -0.093 NA 
HETATM   25  H   UNL     1      -6.650   7.515  69.663  1.00  0.00     0.000 HD 
BRANCH  24  26
HETATM   26  O   UNL     1      -8.465   6.566  69.044  1.00  0.00    -0.124 OA 
HETATM   27  O   UNL     1      -9.241   4.387  70.113  1.00  0.00    -0.108 OA 
HETATM   28  O   UNL     1     -10.750   5.309  71.498  1.00  0.00    -0.221 OA 
HETATM   29  C   UNL     1      -8.791   7.549  71.306  1.00  0.00    -0.137 C  
HETATM   30  C   UNL     1     -10.608   7.557  69.530  1.00  0.00    -0.239 C  
HETATM   31  C   UNL     1      -9.412   6.813  70.112  1.00  0.00    -0.158 C  
HETATM   32  C   UNL     1      -9.794   5.393  70.548  1.00  0.00    -0.203 C  
ENDBRANCH  24  26
ENDBRANCH  15  24
ENDBRANCH  13  15
ENDBRANCH   3  11
TORSDOF 5
ENDMDL
MODEL      191
REMARK 921   NORMALIZED FREE ENERGY PREDICTED BY IDOCK:   -4.25 KCAL/MOL
REMARK 922        TOTAL FREE ENERGY PREDICTED BY IDOCK:   -6.64 KCAL/MOL
REMARK 923 INTER-LIGAND FREE ENERGY PREDICTED BY IDOCK:   -5.35 KCAL/MOL
REMARK 924 INTRA-LIGAND FREE ENERGY PREDICTED BY IDOCK:   -1.29 KCAL/MOL
REMARK 927      BINDING AFFINITY PREDICTED BY RF-SCORE:    0.00 PKD
ROOT
HETATM    1  C   UNL     1      -9.585  15.613  66.571  1.00  0.00    -0.293 C  
HETATM    2  C   UNL     1      -8.920  14.843  67.690  1.00  0.00    -0.180 C  
HETATM    3  C   UNL     1      -8.118  13.588  67.221  1.00  0.00    -0.130 C  
HETATM    4  O   UNL     1      -8.349  17.685  68.667  1.00  0.00    -0.286 OA 
HETATM    5  C   UNL     1      -6.935  14.247  68.047  1.00  0.00    -0.144 C  
HETATM    6  N   UNL     1      -7.672  15.406  68.196  1.00  0.00    -0.120 N  
HETATM    7  O   UNL     1      -6.391  16.748  69.790  1.00  0.00    -0.227 OA 
HETATM    8  O   UNL     1      -6.314  17.243  67.370  1.00  0.00    -0.133 OA 
HETATM    9  O   UNL     1      -5.818  13.980  68.415  1.00  0.00    -0.087 OA 
HETATM   10  S   UNL     1      -7.115  16.910  68.540  1.00  0.00    -0.209 S  
ENDROOT
BRANCH   3  11
HETATM   11  N   UNL     1      -8.581  12.228  67.640  1.00  0.00    -0.159 N  
HETATM   12  O   UNL     1      -6.983  10.986  66.528  1.00  0.00    -0.130 OA 
HETATM   13  C   UNL     1      -7.913  11.060  67.320  1.00  0.00    -0.126 C  
HETATM   14  H   UNL     1      -9.436  12.159  68.191  1.00  0.00     0.000 HD 
BRANCH  13  15
HETATM   15  C   UNL     1      -8.398   9.771  67.977  1.00  0.00    -0.110 C  
BRANCH  15  16
HETATM   16  C   UNL     1      -9.473   9.832  68.979  1.00  0.00    -0.173 A  
HETATM   17  C   UNL     1     -11.520  10.224  69.716  1.00  0.00    -0.256 A  
HETATM   18  N   UNL     1     -12.852  10.642  69.585  1.00  0.00    -0.550 NA 
HETATM   19  H2  UNL     1     -13.032  11.299  70.345  1.00  0.00     0.000 HD 
HETATM   20  C   UNL     1      -9.363   9.367  70.284  1.00  0.00    -0.252 A  
HETATM   21  H1  UNL     1     -13.253  11.051  68.741  1.00  0.00     0.000 HD 
HETATM   22  S   UNL     1     -10.856   9.546  71.114  1.00  0.00    -0.333 SA 
HETATM   23  N   UNL     1     -10.736  10.358  68.683  1.00  0.00    -0.204 NA 
ENDBRANCH  15  16
BRANCH  15  24
HETATM   24  N   UNL     1      -7.936   8.581  67.711  1.00  0.00    -0.107 NA 
HETATM   25  H   UNL     1      -7.236   8.104  68.281  1.00  0.00     0.000 HD 
BRANCH  24  26
HETATM   26  O   UNL     1      -8.505   8.030  66.560  1.00  0.00    -0.125 OA 
HETATM   27  O   UNL     1      -8.128   6.392  64.645  1.00  0.00    -0.121 OA 
HETATM   28  O   UNL     1      -9.443   4.757  65.450  1.00  0.00    -0.160 OA 
HETATM   29  C   UNL     1      -8.550   6.006  68.006  1.00  0.00    -0.114 C  
HETATM   30  C   UNL     1     -10.649   7.018  66.993  1.00  0.00    -0.412 C  
HETATM   31  C   UNL     1      -9.157   6.763  66.818  1.00  0.00    -0.140 C  
HETATM   32  C   UNL     1      -8.870   5.977  65.531  1.00  0.00    -0.073 C  
ENDBRANCH  24  26
ENDBRANCH  15  24
ENDBRANCH  13  15
ENDBRANCH   3  11
TORSDOF 5
ENDMDL
MODEL      192
REMARK 921   NORMALIZED FREE ENERGY PREDICTED BY IDOCK:   -4.18 KCAL/MOL
REMARK 922        TOTAL FREE ENERGY PREDICTED BY IDOCK:   -6.54 KCAL/MOL
REMARK 923 INTER-LIGAND FREE ENERGY PREDICTED BY IDOCK:   -5.38 KCAL/MOL
REMARK 924 INTRA-LIGAND FREE ENERGY PREDICTED BY IDOCK:   -1.16 KCAL/MOL
REMARK 927      BINDING AFFINITY PREDICTED BY RF-SCORE:    0.00 PKD
ROOT
HETATM    1  C   UNL     1     -13.254  10.696  70.714  1.00  0.00    -0.168 C  
HETATM    2  C   UNL     1     -11.744  10.706  70.789  1.00  0.00    -0.335 C  
HETATM    3  C   UNL     1     -11.079   9.306  70.598  1.00  0.00    -0.276 C  
HETATM    4  O   UNL     1     -12.156  13.277  69.183  1.00  0.00    -0.306 OA 
HETATM    5  C   UNL     1     -10.233  10.050  69.482  1.00  0.00    -0.234 C  
HETATM    6  N   UNL     1     -11.051  11.159  69.586  1.00  0.00    -0.250 N  
HETATM    7  O   UNL     1      -9.936  12.874  68.245  1.00  0.00    -0.228 OA 
HETATM    8  O   UNL     1     -11.895  11.652  67.363  1.00  0.00    -0.603 OA 
HETATM    9  O   UNL     1      -9.295   9.838  68.753  1.00  0.00    -0.143 OA 
HETATM   10  S   UNL     1     -11.271  12.349  68.480  1.00  0.00    -0.303 S  
ENDROOT
BRANCH   3  11
HETATM   11  N   UNL     1     -10.332   8.692  71.739  1.00  0.00    -0.287 N  
HETATM   12  O   UNL     1      -9.505   6.845  70.628  1.00  0.00    -0.165 OA 
HETATM   13  C   UNL     1      -9.544   7.562  71.618  1.00  0.00    -0.150 C  
HETATM   14  H   UNL     1     -10.408   9.132  72.657  1.00  0.00     0.000 HD 
BRANCH  13  15
HETATM   15  C   UNL     1      -8.693   7.167  72.822  1.00  0.00    -0.118 C  
BRANCH  15  16
HETATM   16  C   UNL     1      -7.448   7.899  73.099  1.00  0.00    -0.118 A  
HETATM   17  C   UNL     1      -5.900   9.440  72.758  1.00  0.00     0.153 A  
HETATM   18  N   UNL     1      -5.312  10.511  72.070  1.00  0.00    -0.309 NA 
HETATM   19  H2  UNL     1      -4.335  10.264  71.917  1.00  0.00     0.000 HD 
HETATM   20  C   UNL     1      -6.644   7.696  74.214  1.00  0.00    -0.091 A  
HETATM   21  H1  UNL     1      -5.659  10.898  71.192  1.00  0.00     0.000 HD 
HETATM   22  S   UNL     1      -5.326   8.799  74.213  1.00  0.00    -0.113 SA 
HETATM   23  N   UNL     1      -6.972   8.903  72.247  1.00  0.00    -0.311 NA 
ENDBRANCH  15  16
BRANCH  15  24
HETATM   24  N   UNL     1      -8.989   6.213  73.661  1.00  0.00    -0.127 NA 
HETATM   25  H   UNL     1      -9.555   6.349  74.499  1.00  0.00     0.000 HD 
BRANCH  24  26
HETATM   26  O   UNL     1      -8.443   4.983  73.286  1.00  0.00    -0.110 OA 
HETATM   27  O   UNL     1      -7.296   2.878  74.150  1.00  0.00    -0.041 OA 
HETATM   28  O   UNL     1      -9.092   1.536  74.011  1.00  0.00    -0.060 OA 
HETATM   29  C   UNL     1     -10.438   4.149  74.517  1.00  0.00    -0.275 C  
HETATM   30  C   UNL     1     -10.013   3.617  72.069  1.00  0.00    -0.232 C  
HETATM   31  C   UNL     1      -9.386   3.892  73.431  1.00  0.00    -0.107 C  
HETATM   32  C   UNL     1      -8.484   2.734  73.877  1.00  0.00    -0.072 C  
ENDBRANCH  24  26
ENDBRANCH  15  24
ENDBRANCH  13  15
ENDBRANCH   3  11
TORSDOF 5
ENDMDL
MODEL      193
REMARK 921   NORMALIZED FREE ENERGY PREDICTED BY IDOCK:   -4.15 KCAL/MOL
REMARK 922        TOTAL FREE ENERGY PREDICTED BY IDOCK:   -6.51 KCAL/MOL
REMARK 923 INTER-LIGAND FREE ENERGY PREDICTED BY IDOCK:   -5.72 KCAL/MOL
REMARK 924 INTRA-LIGAND FREE ENERGY PREDICTED BY IDOCK:   -0.78 KCAL/MOL
REMARK 927      BINDING AFFINITY PREDICTED BY RF-SCORE:    0.00 PKD
ROOT
HETATM    1  C   UNL     1      -8.623  13.553  66.642  1.00  0.00     0.054 C  
HETATM    2  C   UNL     1      -9.436  12.281  66.552  1.00  0.00    -0.236 C  
HETATM    3  C   UNL     1      -9.684  11.576  67.923  1.00  0.00    -0.183 C  
HETATM    4  O   UNL     1     -10.995  13.982  64.542  1.00  0.00    -0.389 OA 
HETATM    5  C   UNL     1     -11.207  11.634  67.484  1.00  0.00    -0.293 C  
HETATM    6  N   UNL     1     -10.880  12.456  66.422  1.00  0.00    -0.250 N  
HETATM    7  O   UNL     1     -12.933  12.602  65.102  1.00  0.00    -0.754 OA 
HETATM    8  O   UNL     1     -12.254  14.451  66.595  1.00  0.00    -0.424 OA 
HETATM    9  O   UNL     1     -12.281  11.225  67.851  1.00  0.00    -0.570 OA 
HETATM   10  S   UNL     1     -11.871  13.465  65.593  1.00  0.00    -0.394 S  
ENDROOT
BRANCH   3  11
HETATM   11  N   UNL     1      -9.086  10.227  68.168  1.00  0.00    -0.135 N  
HETATM   12  O   UNL     1     -10.150   9.087  66.465  1.00  0.00    -0.272 OA 
HETATM   13  C   UNL     1      -9.314   9.130  67.358  1.00  0.00    -0.134 C  
HETATM   14  H   UNL     1      -8.476  10.110  68.978  1.00  0.00     0.000 HD 
BRANCH  13  15
HETATM   15  C   UNL     1      -8.486   7.876  67.623  1.00  0.00    -0.127 C  
BRANCH  15  16
HETATM   16  C   UNL     1      -8.845   6.999  68.748  1.00  0.00    -0.129 A  
HETATM   17  C   UNL     1      -9.227   6.494  70.866  1.00  0.00    -0.154 A  
HETATM   18  N   UNL     1      -9.302   6.773  72.238  1.00  0.00    -0.140 NA 
HETATM   19  H2  UNL     1      -8.779   6.039  72.718  1.00  0.00     0.000 HD 
HETATM   20  C   UNL     1      -9.287   5.688  68.617  1.00  0.00    -0.123 A  
HETATM   21  H1  UNL     1      -9.030   7.657  72.668  1.00  0.00     0.000 HD 
HETATM   22  S   UNL     1      -9.677   5.029  70.155  1.00  0.00    -0.231 SA 
HETATM   23  N   UNL     1      -8.788   7.435  70.078  1.00  0.00    -0.141 NA 
ENDBRANCH  15  16
BRANCH  15  24
HETATM   24  N   UNL     1      -7.462   7.495  66.911  1.00  0.00    -0.095 NA 
HETATM   25  H   UNL     1      -6.687   6.943  67.281  1.00  0.00     0.000 HD 
BRANCH  24  26
HETATM   26  O   UNL     1      -7.542   7.927  65.585  1.00  0.00    -0.078 OA 
HETATM   27  O   UNL     1      -8.004   9.937  64.088  1.00  0.00    -0.137 OA 
HETATM   28  O   UNL     1      -5.862  10.346  63.548  1.00  0.00    -0.142 OA 
HETATM   29  C   UNL     1      -5.493   9.166  66.261  1.00  0.00    -0.044 C  
HETATM   30  C   UNL     1      -5.517   7.487  64.354  1.00  0.00    -0.033 C  
HETATM   31  C   UNL     1      -6.309   8.535  65.127  1.00  0.00    -0.056 C  
HETATM   32  C   UNL     1      -6.815   9.649  64.201  1.00  0.00    -0.113 C  
ENDBRANCH  24  26
ENDBRANCH  15  24
ENDBRANCH  13  15
ENDBRANCH   3  11
TORSDOF 5
ENDMDL
MODEL      194
REMARK 921   NORMALIZED FREE ENERGY PREDICTED BY IDOCK:   -4.13 KCAL/MOL
REMARK 922        TOTAL FREE ENERGY PREDICTED BY IDOCK:   -6.48 KCAL/MOL
REMARK 923 INTER-LIGAND FREE ENERGY PREDICTED BY IDOCK:   -5.14 KCAL/MOL
REMARK 924 INTRA-LIGAND FREE ENERGY PREDICTED BY IDOCK:   -1.34 KCAL/MOL
REMARK 927      BINDING AFFINITY PREDICTED BY RF-SCORE:    0.00 PKD
ROOT
HETATM    1  C   UNL     1     -11.950  11.126  69.939  1.00  0.00    -0.439 C  
HETATM    2  C   UNL     1     -10.744  10.580  69.208  1.00  0.00    -0.234 C  
HETATM    3  C   UNL     1     -10.914   9.119  68.683  1.00  0.00     0.047 C  
HETATM    4  O   UNL     1     -10.735  13.424  68.081  1.00  0.00    -0.239 OA 
HETATM    5  C   UNL     1     -10.475   9.747  67.295  1.00  0.00    -0.261 C  
HETATM    6  N   UNL     1     -10.588  11.019  67.824  1.00  0.00    -0.198 N  
HETATM    7  O   UNL     1      -9.636  12.483  66.111  1.00  0.00    -0.249 OA 
HETATM    8  O   UNL     1     -12.084  12.277  66.382  1.00  0.00    -0.623 OA 
HETATM    9  O   UNL     1     -10.186   9.389  66.180  1.00  0.00    -0.279 OA 
HETATM   10  S   UNL     1     -10.778  12.429  67.009  1.00  0.00    -0.246 S  
ENDROOT
BRANCH   3  11
HETATM   11  N   UNL     1     -10.057   8.035  69.255  1.00  0.00    -0.193 N  
HETATM   12  O   UNL     1     -11.697   6.433  69.525  1.00  0.00    -0.366 OA 
HETATM   13  C   UNL     1     -10.519   6.763  69.540  1.00  0.00    -0.220 C  
HETATM   14  H   UNL     1      -9.076   8.245  69.445  1.00  0.00     0.000 HD 
BRANCH  13  15
HETATM   15  C   UNL     1      -9.486   5.712  69.938  1.00  0.00    -0.156 C  
BRANCH  15  16
HETATM   16  C   UNL     1      -9.481   5.188  71.312  1.00  0.00    -0.153 A  
HETATM   17  C   UNL     1     -10.156   5.035  73.411  1.00  0.00    -0.165 A  
HETATM   18  N   UNL     1     -10.944   5.391  74.515  1.00  0.00    -0.256 NA 
HETATM   19  H2  UNL     1     -10.306   5.547  75.296  1.00  0.00     0.000 HD 
HETATM   20  C   UNL     1      -8.707   4.119  71.746  1.00  0.00    -0.112 A  
HETATM   21  H1  UNL     1     -11.616   6.158  74.526  1.00  0.00     0.000 HD 
HETATM   22  S   UNL     1      -9.042   3.764  73.394  1.00  0.00    -0.101 SA 
HETATM   23  N   UNL     1     -10.297   5.726  72.315  1.00  0.00    -0.196 NA 
ENDBRANCH  15  16
BRANCH  15  24
HETATM   24  N   UNL     1      -8.585   5.214  69.137  1.00  0.00    -0.092 NA 
HETATM   25  H   UNL     1      -8.242   4.255  69.197  1.00  0.00     0.000 HD 
BRANCH  24  26
HETATM   26  O   UNL     1      -8.142   6.139  68.189  1.00  0.00    -0.109 OA 
HETATM   27  O   UNL     1      -7.503   8.578  67.818  1.00  0.00    -0.094 OA 
HETATM   28  O   UNL     1      -5.280   8.252  67.778  1.00  0.00    -0.032 OA 
HETATM   29  C   UNL     1      -6.094   6.034  69.597  1.00  0.00    -0.026 C  
HETATM   30  C   UNL     1      -6.093   5.449  67.124  1.00  0.00    -0.030 C  
HETATM   31  C   UNL     1      -6.705   6.315  68.219  1.00  0.00    -0.068 C  
HETATM   32  C   UNL     1      -6.549   7.809  67.903  1.00  0.00    -0.056 C  
ENDBRANCH  24  26
ENDBRANCH  15  24
ENDBRANCH  13  15
ENDBRANCH   3  11
TORSDOF 5
ENDMDL
MODEL      195
REMARK 921   NORMALIZED FREE ENERGY PREDICTED BY IDOCK:   -4.09 KCAL/MOL
REMARK 922        TOTAL FREE ENERGY PREDICTED BY IDOCK:   -6.43 KCAL/MOL
REMARK 923 INTER-LIGAND FREE ENERGY PREDICTED BY IDOCK:   -5.79 KCAL/MOL
REMARK 924 INTRA-LIGAND FREE ENERGY PREDICTED BY IDOCK:   -0.64 KCAL/MOL
REMARK 927      BINDING AFFINITY PREDICTED BY RF-SCORE:    0.00 PKD
ROOT
HETATM    1  C   UNL     1     -11.503  15.210  65.881  1.00  0.00    -0.159 C  
HETATM    2  C   UNL     1     -10.368  14.789  66.788  1.00  0.00    -0.268 C  
HETATM    3  C   UNL     1      -9.172  14.107  66.050  1.00  0.00     0.030 C  
HETATM    4  O   UNL     1     -11.022  17.488  68.070  1.00  0.00    -0.328 OA 
HETATM    5  C   UNL     1      -8.306  15.203  66.802  1.00  0.00    -0.189 C  
HETATM    6  N   UNL     1      -9.458  15.852  67.203  1.00  0.00    -0.211 N  
HETATM    7  O   UNL     1      -8.688  17.545  68.792  1.00  0.00    -0.278 OA 
HETATM    8  O   UNL     1      -9.284  18.162  66.474  1.00  0.00    -0.279 OA 
HETATM    9  O   UNL     1      -7.148  15.486  66.984  1.00  0.00    -0.188 OA 
HETATM   10  S   UNL     1      -9.614  17.413  67.679  1.00  0.00    -0.267 S  
ENDROOT
BRANCH   3  11
HETATM   11  N   UNL     1      -8.866  12.670  66.332  1.00  0.00    -0.425 N  
HETATM   12  O   UNL     1     -11.025  11.856  66.245  1.00  0.00    -0.278 OA 
HETATM   13  C   UNL     1      -9.818  11.667  66.316  1.00  0.00    -0.219 C  
HETATM   14  H   UNL     1      -7.901  12.416  66.547  1.00  0.00     0.000 HD 
BRANCH  13  15
HETATM   15  C   UNL     1      -9.324  10.228  66.432  1.00  0.00    -0.165 C  
BRANCH  15  16
HETATM   16  C   UNL     1      -8.552   9.638  65.328  1.00  0.00    -0.152 A  
HETATM   17  C   UNL     1      -8.259   8.468  63.476  1.00  0.00    -0.133 A  
HETATM   18  N   UNL     1      -8.683   7.664  62.407  1.00  0.00    -0.397 NA 
HETATM   19  H2  UNL     1      -8.055   6.860  62.375  1.00  0.00     0.000 HD 
HETATM   20  C   UNL     1      -7.202   9.872  65.096  1.00  0.00    -0.133 A  
HETATM   21  H1  UNL     1      -9.630   7.304  62.291  1.00  0.00     0.000 HD 
HETATM   22  S   UNL     1      -6.690   9.065  63.668  1.00  0.00    -0.089 SA 
HETATM   23  N   UNL     1      -9.138   8.787  64.383  1.00  0.00     0.181 NA 
ENDBRANCH  15  16
BRANCH  15  24
HETATM   24  N   UNL     1      -9.524   9.453  67.462  1.00  0.00    -0.127 NA 
HETATM   25  H   UNL     1      -9.509   8.434  67.417  1.00  0.00     0.000 HD 
BRANCH  24  26
HETATM   26  O   UNL     1      -9.761  10.174  68.635  1.00  0.00    -0.153 OA 
HETATM   27  O   UNL     1     -11.561  11.301  70.044  1.00  0.00    -0.297 OA 
HETATM   28  O   UNL     1     -11.689   9.701  71.616  1.00  0.00    -0.386 OA 
HETATM   29  C   UNL     1     -10.894   8.050  69.263  1.00  0.00    -0.072 C  
HETATM   30  C   UNL     1      -8.961   9.022  70.596  1.00  0.00    -0.263 C  
HETATM   31  C   UNL     1     -10.179   9.324  69.731  1.00  0.00    -0.211 C  
HETATM   32  C   UNL     1     -11.185  10.214  70.473  1.00  0.00    -0.336 C  
ENDBRANCH  24  26
ENDBRANCH  15  24
ENDBRANCH  13  15
ENDBRANCH   3  11
TORSDOF 5
ENDMDL
MODEL      196
REMARK 921   NORMALIZED FREE ENERGY PREDICTED BY IDOCK:   -4.04 KCAL/MOL
REMARK 922        TOTAL FREE ENERGY PREDICTED BY IDOCK:   -6.37 KCAL/MOL
REMARK 923 INTER-LIGAND FREE ENERGY PREDICTED BY IDOCK:   -5.85 KCAL/MOL
REMARK 924 INTRA-LIGAND FREE ENERGY PREDICTED BY IDOCK:   -0.52 KCAL/MOL
REMARK 927      BINDING AFFINITY PREDICTED BY RF-SCORE:    0.00 PKD
ROOT
HETATM    1  C   UNL     1      -8.917   8.591  65.868  1.00  0.00    -0.235 C  
HETATM    2  C   UNL     1      -8.713   8.961  67.319  1.00  0.00    -0.121 C  
HETATM    3  C   UNL     1     -10.034   9.106  68.140  1.00  0.00    -0.176 C  
HETATM    4  O   UNL     1      -6.421   6.958  67.015  1.00  0.00    -0.043 OA 
HETATM    5  C   UNL     1      -9.331   8.086  69.130  1.00  0.00    -0.151 C  
HETATM    6  N   UNL     1      -8.326   7.868  68.206  1.00  0.00    -0.123 N  
HETATM    7  O   UNL     1      -6.659   6.546  69.413  1.00  0.00    -0.041 OA 
HETATM    8  O   UNL     1      -8.207   5.475  67.811  1.00  0.00    -0.101 OA 
HETATM    9  O   UNL     1      -9.510   7.595  70.217  1.00  0.00    -0.161 OA 
HETATM   10  S   UNL     1      -7.311   6.583  68.114  1.00  0.00    -0.091 S  
ENDROOT
BRANCH   3  11
HETATM   11  N   UNL     1     -10.412  10.448  68.683  1.00  0.00    -0.184 N  
HETATM   12  O   UNL     1     -10.349  11.628  66.699  1.00  0.00    -0.211 OA 
HETATM   13  C   UNL     1     -10.617  11.563  67.891  1.00  0.00    -0.191 C  
HETATM   14  H   UNL     1     -10.524  10.545  69.692  1.00  0.00     0.000 HD 
BRANCH  13  15
HETATM   15  C   UNL     1     -11.183  12.810  68.566  1.00  0.00    -0.279 C  
BRANCH  15  16
HETATM   16  C   UNL     1     -10.746  14.138  68.112  1.00  0.00    -0.245 A  
HETATM   17  C   UNL     1      -9.429  15.912  68.048  1.00  0.00    -0.206 A  
HETATM   18  N   UNL     1      -8.324  16.681  68.440  1.00  0.00    -0.199 NA 
HETATM   19  H2  UNL     1      -8.673  17.616  68.650  1.00  0.00     0.000 HD 
HETATM   20  C   UNL     1     -11.345  14.857  67.084  1.00  0.00    -0.343 A  
HETATM   21  H1  UNL     1      -7.679  16.432  69.191  1.00  0.00     0.000 HD 
HETATM   22  S   UNL     1     -10.496  16.325  66.804  1.00  0.00    -0.258 SA 
HETATM   23  N   UNL     1      -9.647  14.793  68.680  1.00  0.00    -0.213 NA 
ENDBRANCH  15  16
BRANCH  15  24
HETATM   24  N   UNL     1     -12.057  12.800  69.535  1.00  0.00    -0.251 NA 
HETATM   25  H   UNL     1     -12.432  11.947  69.951  1.00  0.00     0.000 HD 
BRANCH  24  26
HETATM   26  O   UNL     1     -12.423  14.086  69.937  1.00  0.00    -0.333 OA 
HETATM   27  O   UNL     1     -14.399  15.599  70.486  1.00  0.00     0.071 OA 
HETATM   28  O   UNL     1     -14.157  15.530  72.719  1.00  0.00    -0.515 OA 
HETATM   29  C   UNL     1     -13.067  12.849  71.998  1.00  0.00    -0.483 C  
HETATM   30  C   UNL     1     -11.364  14.735  72.003  1.00  0.00     0.106 C  
HETATM   31  C   UNL     1     -12.633  14.179  71.368  1.00  0.00    -0.368 C  
HETATM   32  C   UNL     1     -13.793  15.178  71.467  1.00  0.00    -0.508 C  
ENDBRANCH  24  26
ENDBRANCH  15  24
ENDBRANCH  13  15
ENDBRANCH   3  11
TORSDOF 5
ENDMDL
MODEL      197
REMARK 921   NORMALIZED FREE ENERGY PREDICTED BY IDOCK:   -4.04 KCAL/MOL
REMARK 922        TOTAL FREE ENERGY PREDICTED BY IDOCK:   -6.37 KCAL/MOL
REMARK 923 INTER-LIGAND FREE ENERGY PREDICTED BY IDOCK:   -5.64 KCAL/MOL
REMARK 924 INTRA-LIGAND FREE ENERGY PREDICTED BY IDOCK:   -0.73 KCAL/MOL
REMARK 927      BINDING AFFINITY PREDICTED BY RF-SCORE:    0.00 PKD
ROOT
HETATM    1  C   UNL     1     -10.880  13.597  65.268  1.00  0.00    -0.324 C  
HETATM    2  C   UNL     1     -10.598  13.277  66.719  1.00  0.00    -0.276 C  
HETATM    3  C   UNL     1      -9.475  12.214  66.939  1.00  0.00    -0.210 C  
HETATM    4  O   UNL     1     -10.955  16.306  66.962  1.00  0.00    -0.231 OA 
HETATM    5  C   UNL     1      -8.851  13.319  67.890  1.00  0.00    -0.192 C  
HETATM    6  N   UNL     1      -9.771  14.245  67.434  1.00  0.00    -0.231 N  
HETATM    7  O   UNL     1      -9.481  16.176  68.907  1.00  0.00    -0.220 OA 
HETATM    8  O   UNL     1      -8.528  16.169  66.627  1.00  0.00    -0.221 OA 
HETATM    9  O   UNL     1      -7.947  13.442  68.678  1.00  0.00    -0.130 OA 
HETATM   10  S   UNL     1      -9.661  15.880  67.495  1.00  0.00    -0.221 S  
ENDROOT
BRANCH   3  11
HETATM   11  N   UNL     1      -9.829  10.896  67.549  1.00  0.00    -0.167 N  
HETATM   12  O   UNL     1      -9.945   9.658  65.603  1.00  0.00    -0.305 OA 
HETATM   13  C   UNL     1      -9.946   9.723  66.825  1.00  0.00    -0.218 C  
HETATM   14  H   UNL     1      -9.995  10.859  68.556  1.00  0.00     0.000 HD 
BRANCH  13  15
HETATM   15  C   UNL     1     -10.123   8.427  67.610  1.00  0.00    -0.209 C  
BRANCH  15  16
HETATM   16  C   UNL     1      -9.975   8.443  69.074  1.00  0.00    -0.190 A  
HETATM   17  C   UNL     1     -10.671   8.344  71.169  1.00  0.00    -0.230 A  
HETATM   18  N   UNL     1     -11.641   8.229  72.175  1.00  0.00    -0.337 NA 
HETATM   19  H2  UNL     1     -11.481   8.995  72.830  1.00  0.00     0.000 HD 
HETATM   20  C   UNL     1      -8.758   8.486  69.743  1.00  0.00    -0.132 A  
HETATM   21  H1  UNL     1     -12.647   8.188  72.011  1.00  0.00     0.000 HD 
HETATM   22  S   UNL     1      -9.005   8.412  71.442  1.00  0.00    -0.206 SA 
HETATM   23  N   UNL     1     -11.080   8.393  69.933  1.00  0.00    -0.170 NA 
ENDBRANCH  15  16
BRANCH  15  24
HETATM   24  N   UNL     1     -10.415   7.270  67.082  1.00  0.00    -0.293 NA 
HETATM   25  H   UNL     1     -11.182   7.124  66.425  1.00  0.00     0.000 HD 
BRANCH  24  26
HETATM   26  O   UNL     1      -9.560   6.254  67.515  1.00  0.00    -0.115 OA 
HETATM   27  O   UNL     1      -9.465   3.973  68.649  1.00  0.00    -0.152 OA 
HETATM   28  O   UNL     1      -9.094   2.779  66.782  1.00  0.00    -0.154 OA 
HETATM   29  C   UNL     1     -10.664   5.044  65.642  1.00  0.00    -0.055 C  
HETATM   30  C   UNL     1      -8.154   5.422  65.743  1.00  0.00    -0.110 C  
HETATM   31  C   UNL     1      -9.431   5.189  66.542  1.00  0.00    -0.148 C  
HETATM   32  C   UNL     1      -9.315   3.943  67.430  1.00  0.00    -0.191 C  
ENDBRANCH  24  26
ENDBRANCH  15  24
ENDBRANCH  13  15
ENDBRANCH   3  11
TORSDOF 5
ENDMDL
MODEL      198
REMARK 921   NORMALIZED FREE ENERGY PREDICTED BY IDOCK:   -4.04 KCAL/MOL
REMARK 922        TOTAL FREE ENERGY PREDICTED BY IDOCK:   -6.37 KCAL/MOL
REMARK 923 INTER-LIGAND FREE ENERGY PREDICTED BY IDOCK:   -5.17 KCAL/MOL
REMARK 924 INTRA-LIGAND FREE ENERGY PREDICTED BY IDOCK:   -1.19 KCAL/MOL
REMARK 927      BINDING AFFINITY PREDICTED BY RF-SCORE:    0.00 PKD
ROOT
HETATM    1  C   UNL     1      -5.445   8.277  70.733  1.00  0.00    -0.028 C  
HETATM    2  C   UNL     1      -6.879   7.852  70.504  1.00  0.00    -0.041 C  
HETATM    3  C   UNL     1      -7.518   8.420  69.198  1.00  0.00    -0.089 C  
HETATM    4  O   UNL     1      -5.757   5.198  71.531  1.00  0.00    -0.014 OA 
HETATM    5  C   UNL     1      -7.861   6.899  68.907  1.00  0.00    -0.111 C  
HETATM    6  N   UNL     1      -7.065   6.507  69.967  1.00  0.00    -0.072 N  
HETATM    7  O   UNL     1      -7.516   4.117  70.223  1.00  0.00    -0.045 OA 
HETATM    8  O   UNL     1      -5.453   4.904  69.114  1.00  0.00    -0.007 OA 
HETATM    9  O   UNL     1      -8.487   6.238  68.116  1.00  0.00    -0.114 OA 
HETATM   10  S   UNL     1      -6.389   5.035  70.222  1.00  0.00    -0.027 S  
ENDROOT
BRANCH   3  11
HETATM   11  N   UNL     1      -8.662   9.379  69.303  1.00  0.00    -0.138 N  
HETATM   12  O   UNL     1      -8.849   9.906  67.063  1.00  0.00    -0.133 OA 
HETATM   13  C   UNL     1      -9.273   9.964  68.209  1.00  0.00    -0.129 C  
HETATM   14  H   UNL     1      -9.010   9.614  70.233  1.00  0.00     0.000 HD 
BRANCH  13  15
HETATM   15  C   UNL     1     -10.545  10.769  68.462  1.00  0.00    -0.195 C  
BRANCH  15  16
HETATM   16  C   UNL     1     -10.884  11.884  67.565  1.00  0.00    -0.238 A  
HETATM   17  C   UNL     1     -11.970  12.891  65.925  1.00  0.00    -0.448 A  
HETATM   18  N   UNL     1     -12.899  12.956  64.876  1.00  0.00    -0.783 NA 
HETATM   19  H2  UNL     1     -12.410  13.349  64.072  1.00  0.00     0.000 HD 
HETATM   20  C   UNL     1     -10.370  13.171  67.678  1.00  0.00    -0.223 A  
HETATM   21  H1  UNL     1     -13.444  12.165  64.533  1.00  0.00     0.000 HD 
HETATM   22  S   UNL     1     -11.068  14.202  66.494  1.00  0.00    -0.325 SA 
HETATM   23  N   UNL     1     -11.794  11.741  66.511  1.00  0.00    -0.515 NA 
ENDBRANCH  15  16
BRANCH  15  24
HETATM   24  N   UNL     1     -11.392  10.539  69.427  1.00  0.00    -0.254 NA 
HETATM   25  H   UNL     1     -12.181  11.148  69.646  1.00  0.00     0.000 HD 
BRANCH  24  26
HETATM   26  O   UNL     1     -11.099   9.367  70.128  1.00  0.00    -0.238 OA 
HETATM   27  O   UNL     1      -9.891   8.419  72.163  1.00  0.00    -0.243 OA 
HETATM   28  O   UNL     1     -11.727   8.095  73.417  1.00  0.00     0.028 OA 
HETATM   29  C   UNL     1     -12.621  10.426  71.786  1.00  0.00    -0.468 C  
HETATM   30  C   UNL     1     -13.085   8.152  70.752  1.00  0.00     0.363 C  
HETATM   31  C   UNL     1     -12.018   9.134  71.223  1.00  0.00    -0.325 C  
HETATM   32  C   UNL     1     -11.109   8.505  72.288  1.00  0.00    -0.360 C  
ENDBRANCH  24  26
ENDBRANCH  15  24
ENDBRANCH  13  15
ENDBRANCH   3  11
TORSDOF 5
ENDMDL
MODEL      199
REMARK 921   NORMALIZED FREE ENERGY PREDICTED BY IDOCK:   -3.97 KCAL/MOL
REMARK 922        TOTAL FREE ENERGY PREDICTED BY IDOCK:   -6.28 KCAL/MOL
REMARK 923 INTER-LIGAND FREE ENERGY PREDICTED BY IDOCK:   -5.62 KCAL/MOL
REMARK 924 INTRA-LIGAND FREE ENERGY PREDICTED BY IDOCK:   -0.66 KCAL/MOL
REMARK 927      BINDING AFFINITY PREDICTED BY RF-SCORE:    0.00 PKD
ROOT
HETATM    1  C   UNL     1     -10.730  12.495  63.717  1.00  0.00    -0.483 C  
HETATM    2  C   UNL     1     -10.744  12.223  65.204  1.00  0.00    -0.293 C  
HETATM    3  C   UNL     1      -9.423  11.601  65.758  1.00  0.00    -0.226 C  
HETATM    4  O   UNL     1     -12.171  14.929  65.205  1.00  0.00    -0.247 OA 
HETATM    5  C   UNL     1      -9.488  12.806  66.787  1.00  0.00    -0.243 C  
HETATM    6  N   UNL     1     -10.517  13.380  66.065  1.00  0.00    -0.289 N  
HETATM    7  O   UNL     1     -11.304  15.221  67.471  1.00  0.00    -0.331 OA 
HETATM    8  O   UNL     1      -9.847  15.651  65.522  1.00  0.00    -0.328 OA 
HETATM    9  O   UNL     1      -8.920  13.194  67.778  1.00  0.00    -0.174 OA 
HETATM   10  S   UNL     1     -10.996  14.949  66.077  1.00  0.00    -0.337 S  
ENDROOT
BRANCH   3  11
HETATM   11  N   UNL     1      -9.449  10.213  66.316  1.00  0.00    -0.172 N  
HETATM   12  O   UNL     1      -8.993   9.071  64.362  1.00  0.00    -0.137 OA 
HETATM   13  C   UNL     1      -9.145   9.085  65.576  1.00  0.00    -0.214 C  
HETATM   14  H   UNL     1      -9.705  10.092  67.296  1.00  0.00     0.000 HD 
BRANCH  13  15
HETATM   15  C   UNL     1      -9.027   7.762  66.327  1.00  0.00    -0.174 C  
BRANCH  15  16
HETATM   16  C   UNL     1      -9.435   7.695  67.739  1.00  0.00    -0.142 A  
HETATM   17  C   UNL     1     -10.721   7.107  69.438  1.00  0.00    -0.231 A  
HETATM   18  N   UNL     1     -11.838   6.497  70.026  1.00  0.00    -0.599 NA 
HETATM   19  H2  UNL     1     -12.266   7.191  70.640  1.00  0.00     0.000 HD 
HETATM   20  C   UNL     1      -8.682   8.179  68.802  1.00  0.00    -0.138 A  
HETATM   21  H1  UNL     1     -12.598   6.053  69.509  1.00  0.00     0.000 HD 
HETATM   22  S   UNL     1      -9.463   7.842  70.295  1.00  0.00    -0.159 SA 
HETATM   23  N   UNL     1     -10.639   7.102  68.137  1.00  0.00    -0.204 NA 
ENDBRANCH  15  16
BRANCH  15  24
HETATM   24  N   UNL     1      -8.594   6.647  65.808  1.00  0.00    -0.163 NA 
HETATM   25  H   UNL     1      -8.938   6.259  64.929  1.00  0.00     0.000 HD 
BRANCH  24  26
HETATM   26  O   UNL     1      -7.607   6.042  66.589  1.00  0.00    -0.092 OA 
HETATM   27  O   UNL     1      -6.980   3.920  67.854  1.00  0.00    -0.053 OA 
HETATM   28  O   UNL     1      -5.523   3.140  66.332  1.00  0.00    -0.015 OA 
HETATM   29  C   UNL     1      -7.381   4.640  64.546  1.00  0.00    -0.070 C  
HETATM   30  C   UNL     1      -5.461   6.010  65.491  1.00  0.00    -0.013 C  
HETATM   31  C   UNL     1      -6.718   5.207  65.807  1.00  0.00    -0.053 C  
HETATM   32  C   UNL     1      -6.416   4.052  66.771  1.00  0.00    -0.041 C  
ENDBRANCH  24  26
ENDBRANCH  15  24
ENDBRANCH  13  15
ENDBRANCH   3  11
TORSDOF 5
ENDMDL
MODEL      200
REMARK 921   NORMALIZED FREE ENERGY PREDICTED BY IDOCK:   -3.96 KCAL/MOL
REMARK 922        TOTAL FREE ENERGY PREDICTED BY IDOCK:   -6.27 KCAL/MOL
REMARK 923 INTER-LIGAND FREE ENERGY PREDICTED BY IDOCK:   -5.66 KCAL/MOL
REMARK 924 INTRA-LIGAND FREE ENERGY PREDICTED BY IDOCK:   -0.61 KCAL/MOL
REMARK 927      BINDING AFFINITY PREDICTED BY RF-SCORE:    0.00 PKD
ROOT
HETATM    1  C   UNL     1      -9.716  15.068  65.611  1.00  0.00    -0.344 C  
HETATM    2  C   UNL     1      -9.919  13.574  65.487  1.00  0.00    -0.219 C  
HETATM    3  C   UNL     1      -9.736  12.785  66.822  1.00  0.00    -0.243 C  
HETATM    4  O   UNL     1     -12.206  14.515  63.686  1.00  0.00    -0.566 OA 
HETATM    5  C   UNL     1     -11.171  12.204  66.477  1.00  0.00    -0.328 C  
HETATM    6  N   UNL     1     -11.308  13.122  65.453  1.00  0.00    -0.294 N  
HETATM    7  O   UNL     1     -13.329  12.423  64.266  1.00  0.00    -0.716 OA 
HETATM    8  O   UNL     1     -13.378  14.333  65.834  1.00  0.00    -0.256 OA 
HETATM    9  O   UNL     1     -11.937  11.364  66.878  1.00  0.00    -0.440 OA 
HETATM   10  S   UNL     1     -12.696  13.639  64.750  1.00  0.00    -0.144 S  
ENDROOT
BRANCH   3  11
HETATM   11  N   UNL     1      -8.606  11.812  66.944  1.00  0.00    -0.172 N  
HETATM   12  O   UNL     1      -9.378  10.650  68.784  1.00  0.00    -0.165 OA 
HETATM   13  C   UNL     1      -8.580  10.781  67.865  1.00  0.00    -0.125 C  
HETATM   14  H   UNL     1      -7.811  11.916  66.313  1.00  0.00     0.000 HD 
BRANCH  13  15
HETATM   15  C   UNL     1      -7.454   9.758  67.743  1.00  0.00    -0.090 C  
BRANCH  15  16
HETATM   16  C   UNL     1      -7.226   9.086  66.454  1.00  0.00    -0.087 A  
HETATM   17  C   UNL     1      -7.711   8.481  64.385  1.00  0.00    -0.128 A  
HETATM   18  N   UNL     1      -8.520   8.426  63.240  1.00  0.00    -0.403 NA 
HETATM   19  H2  UNL     1      -8.582   7.445  62.969  1.00  0.00     0.000 HD 
HETATM   20  C   UNL     1      -6.052   8.430  66.104  1.00  0.00    -0.048 A  
HETATM   21  H1  UNL     1      -9.463   8.810  63.176  1.00  0.00     0.000 HD 
HETATM   22  S   UNL     1      -6.149   7.846  64.491  1.00  0.00    -0.049 SA 
HETATM   23  N   UNL     1      -8.192   9.074  65.441  1.00  0.00    -0.122 NA 
ENDBRANCH  15  16
BRANCH  15  24
HETATM   24  N   UNL     1      -6.644   9.424  68.709  1.00  0.00    -0.052 NA 
HETATM   25  H   UNL     1      -5.658   9.200  68.569  1.00  0.00     0.000 HD 
BRANCH  24  26
HETATM   26  O   UNL     1      -7.275   9.407  69.955  1.00  0.00    -0.064 OA 
HETATM   27  O   UNL     1      -9.440   8.834  71.170  1.00  0.00    -0.194 OA 
HETATM   28  O   UNL     1      -8.713   6.919  72.092  1.00  0.00    -0.127 OA 
HETATM   29  C   UNL     1      -7.067   6.953  69.605  1.00  0.00    -0.068 C  
HETATM   30  C   UNL     1      -6.033   8.150  71.594  1.00  0.00    -0.037 C  
HETATM   31  C   UNL     1      -7.188   8.113  70.600  1.00  0.00    -0.052 C  
HETATM   32  C   UNL     1      -8.540   8.012  71.319  1.00  0.00    -0.126 C  
ENDBRANCH  24  26
ENDBRANCH  15  24
ENDBRANCH  13  15
ENDBRANCH   3  11
TORSDOF 5
ENDMDL
MODEL      201
REMARK 921   NORMALIZED FREE ENERGY PREDICTED BY IDOCK:   -3.94 KCAL/MOL
REMARK 922        TOTAL FREE ENERGY PREDICTED BY IDOCK:   -6.25 KCAL/MOL
REMARK 923 INTER-LIGAND FREE ENERGY PREDICTED BY IDOCK:   -5.74 KCAL/MOL
REMARK 924 INTRA-LIGAND FREE ENERGY PREDICTED BY IDOCK:   -0.51 KCAL/MOL
REMARK 927      BINDING AFFINITY PREDICTED BY RF-SCORE:    0.00 PKD
ROOT
HETATM    1  C   UNL     1      -7.736  15.924  68.246  1.00  0.00    -0.137 C  
HETATM    2  C   UNL     1      -8.619  15.133  67.307  1.00  0.00    -0.198 C  
HETATM    3  C   UNL     1      -9.619  14.169  68.021  1.00  0.00    -0.218 C  
HETATM    4  O   UNL     1      -8.684  17.827  65.860  1.00  0.00    -0.514 OA 
HETATM    5  C   UNL     1     -10.704  14.912  67.135  1.00  0.00    -0.296 C  
HETATM    6  N   UNL     1      -9.764  15.851  66.755  1.00  0.00    -0.230 N  
HETATM    7  O   UNL     1     -10.865  17.144  64.994  1.00  0.00    -0.684 OA 
HETATM    8  O   UNL     1     -10.667  18.041  67.288  1.00  0.00    -0.372 OA 
HETATM    9  O   UNL     1     -11.875  14.826  66.861  1.00  0.00    -0.354 OA 
HETATM   10  S   UNL     1     -10.034  17.358  66.168  1.00  0.00    -0.232 S  
ENDROOT
BRANCH   3  11
HETATM   11  N   UNL     1      -9.466  12.692  67.835  1.00  0.00    -0.198 N  
HETATM   12  O   UNL     1      -7.272  12.503  68.530  1.00  0.00    -0.099 OA 
HETATM   13  C   UNL     1      -8.330  11.989  68.191  1.00  0.00    -0.165 C  
HETATM   14  H   UNL     1     -10.244  12.176  67.423  1.00  0.00     0.000 HD 
BRANCH  13  15
HETATM   15  C   UNL     1      -8.394  10.466  68.119  1.00  0.00    -0.117 C  
BRANCH  15  16
HETATM   16  C   UNL     1      -9.135   9.725  69.152  1.00  0.00    -0.165 A  
HETATM   17  C   UNL     1      -9.427   8.759  71.118  1.00  0.00    -0.240 A  
HETATM   18  N   UNL     1      -9.023   8.346  72.396  1.00  0.00    -0.227 NA 
HETATM   19  H2  UNL     1      -9.265   7.358  72.478  1.00  0.00     0.000 HD 
HETATM   20  C   UNL     1     -10.475   9.370  69.059  1.00  0.00    -0.217 A  
HETATM   21  H1  UNL     1      -8.081   8.451  72.770  1.00  0.00     0.000 HD 
HETATM   22  S   UNL     1     -10.990   8.585  70.499  1.00  0.00    -0.240 SA 
HETATM   23  N   UNL     1      -8.537   9.327  70.353  1.00  0.00    -0.201 NA 
ENDBRANCH  15  16
BRANCH  15  24
HETATM   24  N   UNL     1      -7.842   9.741  67.187  1.00  0.00    -0.099 NA 
HETATM   25  H   UNL     1      -7.529  10.113  66.289  1.00  0.00     0.000 HD 
BRANCH  24  26
HETATM   26  O   UNL     1      -7.725   8.397  67.552  1.00  0.00    -0.096 OA 
HETATM   27  O   UNL     1      -8.764   6.084  67.293  1.00  0.00    -0.107 OA 
HETATM   28  O   UNL     1      -7.241   5.286  65.847  1.00  0.00    -0.070 OA 
HETATM   29  C   UNL     1      -7.154   8.181  65.141  1.00  0.00    -0.067 C  
HETATM   30  C   UNL     1      -5.566   7.481  66.997  1.00  0.00    -0.031 C  
HETATM   31  C   UNL     1      -7.020   7.613  66.559  1.00  0.00    -0.067 C  
HETATM   32  C   UNL     1      -7.750   6.265  66.625  1.00  0.00    -0.100 C  
ENDBRANCH  24  26
ENDBRANCH  15  24
ENDBRANCH  13  15
ENDBRANCH   3  11
TORSDOF 5
ENDMDL
MODEL      202
REMARK 921   NORMALIZED FREE ENERGY PREDICTED BY IDOCK:   -3.94 KCAL/MOL
REMARK 922        TOTAL FREE ENERGY PREDICTED BY IDOCK:   -6.24 KCAL/MOL
REMARK 923 INTER-LIGAND FREE ENERGY PREDICTED BY IDOCK:   -5.16 KCAL/MOL
REMARK 924 INTRA-LIGAND FREE ENERGY PREDICTED BY IDOCK:   -1.09 KCAL/MOL
REMARK 927      BINDING AFFINITY PREDICTED BY RF-SCORE:    0.00 PKD
ROOT
HETATM    1  C   UNL     1      -8.218   3.807  67.908  1.00  0.00    -0.092 C  
HETATM    2  C   UNL     1      -8.795   5.071  67.312  1.00  0.00    -0.102 C  
HETATM    3  C   UNL     1      -8.096   6.385  67.786  1.00  0.00    -0.115 C  
HETATM    4  O   UNL     1      -8.870   3.297  64.821  1.00  0.00    -0.112 OA 
HETATM    5  C   UNL     1      -7.953   6.669  66.233  1.00  0.00    -0.108 C  
HETATM    6  N   UNL     1      -8.372   5.383  65.949  1.00  0.00    -0.118 N  
HETATM    7  O   UNL     1      -8.691   5.360  63.524  1.00  0.00    -0.064 OA 
HETATM    8  O   UNL     1      -6.676   4.359  64.545  1.00  0.00    -0.042 OA 
HETATM    9  O   UNL     1      -7.603   7.556  65.494  1.00  0.00    -0.084 OA 
HETATM   10  S   UNL     1      -8.122   4.529  64.572  1.00  0.00    -0.107 S  
ENDROOT
BRANCH   3  11
HETATM   11  N   UNL     1      -8.873   7.370  68.601  1.00  0.00    -0.127 N  
HETATM   12  O   UNL     1     -10.745   7.499  67.255  1.00  0.00    -0.307 OA 
HETATM   13  C   UNL     1     -10.163   7.766  68.298  1.00  0.00    -0.201 C  
HETATM   14  H   UNL     1      -8.426   7.772  69.426  1.00  0.00     0.000 HD 
BRANCH  13  15
HETATM   15  C   UNL     1     -10.893   8.628  69.325  1.00  0.00    -0.065 C  
BRANCH  15  16
HETATM   16  C   UNL     1     -11.072  10.064  69.064  1.00  0.00    -0.180 A  
HETATM   17  C   UNL     1     -11.582  12.155  69.571  1.00  0.00    -0.315 A  
HETATM   18  N   UNL     1     -12.019  13.178  70.425  1.00  0.00    -0.511 NA 
HETATM   19  H2  UNL     1     -12.747  13.689  69.924  1.00  0.00     0.000 HD 
HETATM   20  C   UNL     1     -10.726  10.701  67.878  1.00  0.00    -0.248 A  
HETATM   21  H1  UNL     1     -12.359  13.036  71.376  1.00  0.00     0.000 HD 
HETATM   22  S   UNL     1     -11.018  12.390  67.996  1.00  0.00    -0.241 SA 
HETATM   23  N   UNL     1     -11.601  10.933  70.027  1.00  0.00    -0.312 NA 
ENDBRANCH  15  16
BRANCH  15  24
HETATM   24  N   UNL     1     -11.399   8.186  70.443  1.00  0.00    -0.397 NA 
HETATM   25  H   UNL     1     -11.951   8.760  71.081  1.00  0.00     0.000 HD 
BRANCH  24  26
HETATM   26  O   UNL     1     -11.100   6.841  70.671  1.00  0.00    -0.257 OA 
HETATM   27  O   UNL     1      -9.207   5.177  71.051  1.00  0.00    -0.140 OA 
HETATM   28  O   UNL     1      -9.515   4.947  73.264  1.00  0.00    -0.124 OA 
HETATM   29  C   UNL     1     -10.469   7.748  72.900  1.00  0.00    -0.412 C  
HETATM   30  C   UNL     1     -12.249   5.960  72.598  1.00  0.00     0.036 C  
HETATM   31  C   UNL     1     -10.939   6.541  72.079  1.00  0.00    -0.247 C  
HETATM   32  C   UNL     1      -9.825   5.486  72.066  1.00  0.00    -0.166 C  
ENDBRANCH  24  26
ENDBRANCH  15  24
ENDBRANCH  13  15
ENDBRANCH   3  11
TORSDOF 5
ENDMDL
MODEL      203
REMARK 921   NORMALIZED FREE ENERGY PREDICTED BY IDOCK:   -3.93 KCAL/MOL
REMARK 922        TOTAL FREE ENERGY PREDICTED BY IDOCK:   -6.23 KCAL/MOL
REMARK 923 INTER-LIGAND FREE ENERGY PREDICTED BY IDOCK:   -5.60 KCAL/MOL
REMARK 924 INTRA-LIGAND FREE ENERGY PREDICTED BY IDOCK:   -0.63 KCAL/MOL
REMARK 927      BINDING AFFINITY PREDICTED BY RF-SCORE:    0.00 PKD
ROOT
HETATM    1  C   UNL     1      -9.292  10.091  64.060  1.00  0.00    -0.324 C  
HETATM    2  C   UNL     1     -10.209  10.119  65.262  1.00  0.00    -0.191 C  
HETATM    3  C   UNL     1      -9.475  10.295  66.629  1.00  0.00    -0.166 C  
HETATM    4  O   UNL     1     -11.894  11.801  63.341  1.00  0.00    -0.453 OA 
HETATM    5  C   UNL     1     -10.491  11.497  66.826  1.00  0.00    -0.239 C  
HETATM    6  N   UNL     1     -10.895  11.384  65.509  1.00  0.00    -0.253 N  
HETATM    7  O   UNL     1     -12.831  12.869  65.330  1.00  0.00    -0.668 OA 
HETATM    8  O   UNL     1     -10.619  13.564  64.474  1.00  0.00    -0.406 OA 
HETATM    9  O   UNL     1     -10.830  12.277  67.681  1.00  0.00    -0.213 OA 
HETATM   10  S   UNL     1     -11.630  12.522  64.586  1.00  0.00    -0.362 S  
ENDROOT
BRANCH   3  11
HETATM   11  N   UNL     1      -9.517   9.182  67.628  1.00  0.00    -0.138 N  
HETATM   12  O   UNL     1      -7.916   7.824  66.666  1.00  0.00    -0.103 OA 
HETATM   13  C   UNL     1      -8.668   8.092  67.594  1.00  0.00    -0.126 C  
HETATM   14  H   UNL     1     -10.211   9.231  68.375  1.00  0.00     0.000 HD 
BRANCH  13  15
HETATM   15  C   UNL     1      -8.702   7.137  68.785  1.00  0.00    -0.124 C  
BRANCH  15  16
HETATM   16  C   UNL     1      -8.083   7.546  70.055  1.00  0.00    -0.127 A  
HETATM   17  C   UNL     1      -8.061   8.179  72.173  1.00  0.00    -0.138 A  
HETATM   18  N   UNL     1      -8.656   8.534  73.393  1.00  0.00    -0.357 NA 
HETATM   19  H2  UNL     1      -8.229   9.413  73.685  1.00  0.00     0.000 HD 
HETATM   20  C   UNL     1      -6.715   7.560  70.298  1.00  0.00    -0.047 A  
HETATM   21  H1  UNL     1      -9.660   8.628  73.544  1.00  0.00     0.000 HD 
HETATM   22  S   UNL     1      -6.398   8.022  71.922  1.00  0.00    -0.049 SA 
HETATM   23  N   UNL     1      -8.847   7.944  71.159  1.00  0.00    -0.135 NA 
ENDBRANCH  15  16
BRANCH  15  24
HETATM   24  N   UNL     1      -9.259   5.958  68.779  1.00  0.00    -0.115 NA 
HETATM   25  H   UNL     1      -9.745   5.565  67.972  1.00  0.00     0.000 HD 
BRANCH  24  26
HETATM   26  O   UNL     1      -9.118   5.293  69.999  1.00  0.00    -0.123 OA 
HETATM   27  O   UNL     1     -10.337   3.897  71.748  1.00  0.00    -0.100 OA 
HETATM   28  O   UNL     1      -9.446   1.921  71.159  1.00  0.00    -0.116 OA 
HETATM   29  C   UNL     1      -9.405   3.312  68.522  1.00  0.00    -0.237 C  
HETATM   30  C   UNL     1      -7.338   3.669  69.956  1.00  0.00    -0.041 C  
HETATM   31  C   UNL     1      -8.842   3.881  69.830  1.00  0.00    -0.087 C  
HETATM   32  C   UNL     1      -9.596   3.254  71.010  1.00  0.00    -0.164 C  
ENDBRANCH  24  26
ENDBRANCH  15  24
ENDBRANCH  13  15
ENDBRANCH   3  11
TORSDOF 5
ENDMDL
MODEL      204
REMARK 921   NORMALIZED FREE ENERGY PREDICTED BY IDOCK:   -3.88 KCAL/MOL
REMARK 922        TOTAL FREE ENERGY PREDICTED BY IDOCK:   -6.16 KCAL/MOL
REMARK 923 INTER-LIGAND FREE ENERGY PREDICTED BY IDOCK:   -5.10 KCAL/MOL
REMARK 924 INTRA-LIGAND FREE ENERGY PREDICTED BY IDOCK:   -1.07 KCAL/MOL
REMARK 927      BINDING AFFINITY PREDICTED BY RF-SCORE:    0.00 PKD
ROOT
HETATM    1  C   UNL     1     -10.654   4.457  65.381  1.00  0.00    -0.192 C  
HETATM    2  C   UNL     1      -9.362   5.085  65.853  1.00  0.00    -0.159 C  
HETATM    3  C   UNL     1      -9.031   4.827  67.357  1.00  0.00    -0.109 C  
HETATM    4  O   UNL     1      -8.434   4.101  63.108  1.00  0.00    -0.087 OA 
HETATM    5  C   UNL     1      -7.642   4.314  66.787  1.00  0.00    -0.085 C  
HETATM    6  N   UNL     1      -8.139   4.368  65.499  1.00  0.00    -0.104 N  
HETATM    7  O   UNL     1      -6.191   3.984  64.071  1.00  0.00    -0.021 OA 
HETATM    8  O   UNL     1      -7.821   2.177  64.502  1.00  0.00    -0.071 OA 
HETATM    9  O   UNL     1      -6.564   3.956  67.192  1.00  0.00    -0.044 OA 
HETATM   10  S   UNL     1      -7.583   3.576  64.176  1.00  0.00    -0.076 S  
ENDROOT
BRANCH   3  11
HETATM   11  N   UNL     1      -9.005   5.982  68.307  1.00  0.00    -0.114 N  
HETATM   12  O   UNL     1     -11.271   6.099  68.736  1.00  0.00    -0.367 OA 
HETATM   13  C   UNL     1     -10.123   6.451  68.972  1.00  0.00    -0.165 C  
HETATM   14  H   UNL     1      -8.113   6.450  68.472  1.00  0.00     0.000 HD 
BRANCH  13  15
HETATM   15  C   UNL     1      -9.906   7.510  70.050  1.00  0.00    -0.180 C  
BRANCH  15  16
HETATM   16  C   UNL     1      -9.855   7.101  71.462  1.00  0.00    -0.171 A  
HETATM   17  C   UNL     1      -8.943   6.220  73.272  1.00  0.00    -0.128 A  
HETATM   18  N   UNL     1      -7.924   5.574  73.988  1.00  0.00    -0.106 NA 
HETATM   19  H2  UNL     1      -8.359   4.795  74.483  1.00  0.00     0.000 HD 
HETATM   20  C   UNL     1     -10.836   7.391  72.403  1.00  0.00    -0.263 A  
HETATM   21  H1  UNL     1      -7.061   5.218  73.578  1.00  0.00     0.000 HD 
HETATM   22  S   UNL     1     -10.372   6.811  73.953  1.00  0.00    -0.321 SA 
HETATM   23  N   UNL     1      -8.773   6.387  71.991  1.00  0.00    -0.134 NA 
ENDBRANCH  15  16
BRANCH  15  24
HETATM   24  N   UNL     1      -9.746   8.783  69.821  1.00  0.00    -0.174 NA 
HETATM   25  H   UNL     1      -9.009   9.347  70.245  1.00  0.00     0.000 HD 
BRANCH  24  26
HETATM   26  O   UNL     1     -10.697   9.291  68.933  1.00  0.00    -0.215 OA 
HETATM   27  O   UNL     1     -12.049  11.358  68.306  1.00  0.00    -0.606 OA 
HETATM   28  O   UNL     1     -10.826  11.923  66.508  1.00  0.00    -0.254 OA 
HETATM   29  C   UNL     1      -8.728  10.602  68.165  1.00  0.00    -0.130 C  
HETATM   30  C   UNL     1     -10.024   9.045  66.632  1.00  0.00    -0.349 C  
HETATM   31  C   UNL     1     -10.094   9.996  67.821  1.00  0.00    -0.183 C  
HETATM   32  C   UNL     1     -11.093  11.133  67.570  1.00  0.00    -0.291 C  
ENDBRANCH  24  26
ENDBRANCH  15  24
ENDBRANCH  13  15
ENDBRANCH   3  11
TORSDOF 5
ENDMDL
MODEL      205
REMARK 921   NORMALIZED FREE ENERGY PREDICTED BY IDOCK:   -3.86 KCAL/MOL
REMARK 922        TOTAL FREE ENERGY PREDICTED BY IDOCK:   -6.14 KCAL/MOL
REMARK 923 INTER-LIGAND FREE ENERGY PREDICTED BY IDOCK:   -4.98 KCAL/MOL
REMARK 924 INTRA-LIGAND FREE ENERGY PREDICTED BY IDOCK:   -1.16 KCAL/MOL
REMARK 927      BINDING AFFINITY PREDICTED BY RF-SCORE:    0.00 PKD
ROOT
HETATM    1  C   UNL     1     -10.033   9.087  66.427  1.00  0.00    -0.370 C  
HETATM    2  C   UNL     1     -10.187   8.655  67.868  1.00  0.00    -0.219 C  
HETATM    3  C   UNL     1      -8.854   8.222  68.557  1.00  0.00    -0.137 C  
HETATM    4  O   UNL     1     -12.095  11.047  67.884  1.00  0.00    -0.600 OA 
HETATM    5  C   UNL     1      -9.281   9.277  69.662  1.00  0.00    -0.175 C  
HETATM    6  N   UNL     1     -10.299   9.734  68.846  1.00  0.00    -0.201 N  
HETATM    7  O   UNL     1     -11.600  11.239  70.270  1.00  0.00    -0.311 OA 
HETATM    8  O   UNL     1     -10.014  12.132  68.599  1.00  0.00    -0.202 OA 
HETATM    9  O   UNL     1      -8.931   9.649  70.754  1.00  0.00    -0.187 OA 
HETATM   10  S   UNL     1     -11.068  11.180  68.918  1.00  0.00    -0.261 S  
ENDROOT
BRANCH   3  11
HETATM   11  N   UNL     1      -8.684   6.800  68.987  1.00  0.00    -0.130 N  
HETATM   12  O   UNL     1     -10.865   6.393  69.629  1.00  0.00    -0.252 OA 
HETATM   13  C   UNL     1      -9.730   5.996  69.402  1.00  0.00    -0.142 C  
HETATM   14  H   UNL     1      -7.745   6.401  68.973  1.00  0.00     0.000 HD 
BRANCH  13  15
HETATM   15  C   UNL     1      -9.433   4.515  69.625  1.00  0.00    -0.174 C  
BRANCH  15  16
HETATM   16  C   UNL     1      -9.299   4.006  70.999  1.00  0.00    -0.149 A  
HETATM   17  C   UNL     1     -10.020   3.348  72.982  1.00  0.00    -0.143 A  
HETATM   18  N   UNL     1     -11.002   3.101  73.952  1.00  0.00    -0.209 NA 
HETATM   19  H2  UNL     1     -10.688   3.550  74.812  1.00  0.00     0.000 HD 
HETATM   20  C   UNL     1      -8.107   3.570  71.566  1.00  0.00    -0.061 A  
HETATM   21  H1  UNL     1     -11.992   3.323  73.847  1.00  0.00     0.000 HD 
HETATM   22  S   UNL     1      -8.380   2.979  73.156  1.00  0.00    -0.080 SA 
HETATM   23  N   UNL     1     -10.397   3.895  71.860  1.00  0.00    -0.067 NA 
ENDBRANCH  15  16
BRANCH  15  24
HETATM   24  N   UNL     1      -9.293   3.632  68.676  1.00  0.00    -0.161 NA 
HETATM   25  H   UNL     1      -9.114   2.642  68.845  1.00  0.00     0.000 HD 
BRANCH  24  26
HETATM   26  O   UNL     1      -9.415   4.192  67.402  1.00  0.00    -0.163 OA 
HETATM   27  O   UNL     1      -8.516   5.992  65.838  1.00  0.00    -0.131 OA 
HETATM   28  O   UNL     1      -7.293   4.617  64.549  1.00  0.00    -0.067 OA 
HETATM   29  C   UNL     1      -7.178   3.137  67.136  1.00  0.00    -0.058 C  
HETATM   30  C   UNL     1      -9.157   2.555  65.653  1.00  0.00    -0.108 C  
HETATM   31  C   UNL     1      -8.460   3.642  66.462  1.00  0.00    -0.107 C  
HETATM   32  C   UNL     1      -8.118   4.857  65.590  1.00  0.00    -0.112 C  
ENDBRANCH  24  26
ENDBRANCH  15  24
ENDBRANCH  13  15
ENDBRANCH   3  11
TORSDOF 5
ENDMDL
MODEL      206
REMARK 921   NORMALIZED FREE ENERGY PREDICTED BY IDOCK:   -3.84 KCAL/MOL
REMARK 922        TOTAL FREE ENERGY PREDICTED BY IDOCK:   -6.11 KCAL/MOL
REMARK 923 INTER-LIGAND FREE ENERGY PREDICTED BY IDOCK:   -5.36 KCAL/MOL
REMARK 924 INTRA-LIGAND FREE ENERGY PREDICTED BY IDOCK:   -0.75 KCAL/MOL
REMARK 927      BINDING AFFINITY PREDICTED BY RF-SCORE:    0.00 PKD
ROOT
HETATM    1  C   UNL     1     -10.507  15.562  70.271  1.00  0.00    -0.282 C  
HETATM    2  C   UNL     1     -11.525  14.524  69.854  1.00  0.00    -0.270 C  
HETATM    3  C   UNL     1     -10.935  13.095  69.633  1.00  0.00     0.180 C  
HETATM    4  O   UNL     1     -13.191  16.008  71.947  1.00  0.00    -0.389 OA 
HETATM    5  C   UNL     1     -12.078  12.653  70.640  1.00  0.00    -0.226 C  
HETATM    6  N   UNL     1     -12.351  13.977  70.927  1.00  0.00    -0.352 N  
HETATM    7  O   UNL     1     -14.399  13.907  72.262  1.00  0.00    -0.576 OA 
HETATM    8  O   UNL     1     -12.200  14.245  73.336  1.00  0.00    -0.091 OA 
HETATM    9  O   UNL     1     -12.565  11.642  71.083  1.00  0.00    -0.385 OA 
HETATM   10  S   UNL     1     -13.110  14.579  72.250  1.00  0.00    -0.408 S  
ENDROOT
BRANCH   3  11
HETATM   11  N   UNL     1     -10.956  12.503  68.259  1.00  0.00    -0.227 N  
HETATM   12  O   UNL     1      -8.682  12.188  68.009  1.00  0.00    -0.165 OA 
HETATM   13  C   UNL     1      -9.829  12.026  67.614  1.00  0.00    -0.189 C  
HETATM   14  H   UNL     1     -11.850  12.448  67.772  1.00  0.00     0.000 HD 
BRANCH  13  15
HETATM   15  C   UNL     1     -10.035  11.278  66.300  1.00  0.00    -0.221 C  
BRANCH  15  16
HETATM   16  C   UNL     1     -10.785  11.924  65.212  1.00  0.00    -0.283 A  
HETATM   17  C   UNL     1     -12.319  12.057  63.626  1.00  0.00    -0.539 A  
HETATM   18  N   UNL     1     -13.365  11.562  62.834  1.00  0.00    -0.335 NA 
HETATM   19  H2  UNL     1     -13.117  11.754  61.863  1.00  0.00     0.000 HD 
HETATM   20  C   UNL     1     -10.632  13.251  64.827  1.00  0.00    -0.386 A  
HETATM   21  H1  UNL     1     -13.715  10.605  62.865  1.00  0.00     0.000 HD 
HETATM   22  S   UNL     1     -11.741  13.644  63.575  1.00  0.00     0.112 SA 
HETATM   23  N   UNL     1     -11.757  11.240  64.471  1.00  0.00     0.120 NA 
ENDBRANCH  15  16
BRANCH  15  24
HETATM   24  N   UNL     1      -9.580  10.083  66.044  1.00  0.00    -0.205 NA 
HETATM   25  H   UNL     1      -9.707   9.283  66.666  1.00  0.00     0.000 HD 
BRANCH  24  26
HETATM   26  O   UNL     1      -8.901  10.018  64.826  1.00  0.00    -0.164 OA 
HETATM   27  O   UNL     1      -6.964  10.986  63.482  1.00  0.00     0.394 OA 
HETATM   28  O   UNL     1      -5.571   9.244  63.758  1.00  0.00    -0.068 OA 
HETATM   29  C   UNL     1      -7.133   9.063  66.292  1.00  0.00    -0.086 C  
HETATM   30  C   UNL     1      -8.123   7.792  64.328  1.00  0.00    -0.079 C  
HETATM   31  C   UNL     1      -7.738   9.157  64.886  1.00  0.00    -0.110 C  
HETATM   32  C   UNL     1      -6.745   9.878  63.965  1.00  0.00    -0.126 C  
ENDBRANCH  24  26
ENDBRANCH  15  24
ENDBRANCH  13  15
ENDBRANCH   3  11
TORSDOF 5
ENDMDL
MODEL      207
REMARK 921   NORMALIZED FREE ENERGY PREDICTED BY IDOCK:   -3.84 KCAL/MOL
REMARK 922        TOTAL FREE ENERGY PREDICTED BY IDOCK:   -6.11 KCAL/MOL
REMARK 923 INTER-LIGAND FREE ENERGY PREDICTED BY IDOCK:   -5.28 KCAL/MOL
REMARK 924 INTRA-LIGAND FREE ENERGY PREDICTED BY IDOCK:   -0.83 KCAL/MOL
REMARK 927      BINDING AFFINITY PREDICTED BY RF-SCORE:    0.00 PKD
ROOT
HETATM    1  C   UNL     1     -10.641   4.153  65.041  1.00  0.00    -0.158 C  
HETATM    2  C   UNL     1      -9.578   5.060  65.622  1.00  0.00    -0.123 C  
HETATM    3  C   UNL     1      -9.501   5.046  67.181  1.00  0.00    -0.136 C  
HETATM    4  O   UNL     1      -8.004   3.946  63.246  1.00  0.00    -0.077 OA 
HETATM    5  C   UNL     1      -7.966   4.734  66.932  1.00  0.00    -0.103 C  
HETATM    6  N   UNL     1      -8.213   4.543  65.586  1.00  0.00    -0.109 N  
HETATM    7  O   UNL     1      -5.994   4.358  64.573  1.00  0.00    -0.017 OA 
HETATM    8  O   UNL     1      -7.366   2.346  64.994  1.00  0.00    -0.057 OA 
HETATM    9  O   UNL     1      -6.940   4.631  67.559  1.00  0.00    -0.058 OA 
HETATM   10  S   UNL     1      -7.297   3.716  64.506  1.00  0.00    -0.068 S  
ENDROOT
BRANCH   3  11
HETATM   11  N   UNL     1      -9.840   6.291  67.939  1.00  0.00    -0.121 N  
HETATM   12  O   UNL     1      -8.668   7.793  66.634  1.00  0.00    -0.128 OA 
HETATM   13  C   UNL     1      -9.458   7.558  67.538  1.00  0.00    -0.139 C  
HETATM   14  H   UNL     1     -10.382   6.199  68.798  1.00  0.00     0.000 HD 
BRANCH  13  15
HETATM   15  C   UNL     1     -10.038   8.742  68.307  1.00  0.00    -0.188 C  
BRANCH  15  16
HETATM   16  C   UNL     1     -10.310   8.606  69.746  1.00  0.00    -0.212 A  
HETATM   17  C   UNL     1     -11.435   7.943  71.529  1.00  0.00    -0.265 A  
HETATM   18  N   UNL     1     -12.500   7.314  72.190  1.00  0.00    -0.492 NA 
HETATM   19  H2  UNL     1     -12.856   7.979  72.877  1.00  0.00     0.000 HD 
HETATM   20  C   UNL     1      -9.451   9.027  70.754  1.00  0.00    -0.251 A  
HETATM   21  H1  UNL     1     -13.311   6.905  71.728  1.00  0.00     0.000 HD 
HETATM   22  S   UNL     1     -10.091   8.620  72.296  1.00  0.00    -0.238 SA 
HETATM   23  N   UNL     1     -11.479   8.004  70.228  1.00  0.00    -0.147 NA 
ENDBRANCH  15  16
BRANCH  15  24
HETATM   24  N   UNL     1     -10.314   9.905  67.785  1.00  0.00    -0.205 NA 
HETATM   25  H   UNL     1      -9.792  10.317  67.010  1.00  0.00     0.000 HD 
BRANCH  24  26
HETATM   26  O   UNL     1     -11.401  10.526  68.405  1.00  0.00    -0.282 OA 
HETATM   27  O   UNL     1     -12.282  11.430  70.618  1.00  0.00    -0.358 OA 
HETATM   28  O   UNL     1     -11.977  13.604  70.142  1.00  0.00    -0.318 OA 
HETATM   29  C   UNL     1      -9.777  12.407  68.522  1.00  0.00    -0.140 C  
HETATM   30  C   UNL     1     -12.012  12.593  67.327  1.00  0.00    -0.321 C  
HETATM   31  C   UNL     1     -11.245  11.964  68.484  1.00  0.00    -0.256 C  
HETATM   32  C   UNL     1     -11.898  12.292  69.833  1.00  0.00    -0.311 C  
ENDBRANCH  24  26
ENDBRANCH  15  24
ENDBRANCH  13  15
ENDBRANCH   3  11
TORSDOF 5
ENDMDL
MODEL      208
REMARK 921   NORMALIZED FREE ENERGY PREDICTED BY IDOCK:   -3.83 KCAL/MOL
REMARK 922        TOTAL FREE ENERGY PREDICTED BY IDOCK:   -6.10 KCAL/MOL
REMARK 923 INTER-LIGAND FREE ENERGY PREDICTED BY IDOCK:   -5.05 KCAL/MOL
REMARK 924 INTRA-LIGAND FREE ENERGY PREDICTED BY IDOCK:   -1.05 KCAL/MOL
REMARK 927      BINDING AFFINITY PREDICTED BY RF-SCORE:    0.00 PKD
ROOT
HETATM    1  C   UNL     1     -10.429  11.593  63.642  1.00  0.00    -0.483 C  
HETATM    2  C   UNL     1      -9.425  11.753  64.762  1.00  0.00    -0.011 C  
HETATM    3  C   UNL     1     -10.058  11.846  66.186  1.00  0.00    -0.228 C  
HETATM    4  O   UNL     1      -7.916   9.706  63.062  1.00  0.00    -0.123 OA 
HETATM    5  C   UNL     1      -9.050  10.670  66.525  1.00  0.00    -0.162 C  
HETATM    6  N   UNL     1      -8.744  10.533  65.184  1.00  0.00    -0.182 N  
HETATM    7  O   UNL     1      -6.852   8.983  65.140  1.00  0.00    -0.075 OA 
HETATM    8  O   UNL     1      -9.133   8.212  64.582  1.00  0.00     0.331 OA 
HETATM    9  O   UNL     1      -8.661  10.045  67.481  1.00  0.00    -0.125 OA 
HETATM   10  S   UNL     1      -8.098   9.227  64.432  1.00  0.00    -0.152 S  
ENDROOT
BRANCH   3  11
HETATM   11  N   UNL     1      -9.923  13.118  66.962  1.00  0.00    -0.239 N  
HETATM   12  O   UNL     1     -12.106  13.846  66.772  1.00  0.00    -0.423 OA 
HETATM   13  C   UNL     1     -10.986  13.954  67.253  1.00  0.00    -0.290 C  
HETATM   14  H   UNL     1      -8.996  13.384  67.295  1.00  0.00     0.000 HD 
BRANCH  13  15
HETATM   15  C   UNL     1     -10.727  15.112  68.213  1.00  0.00    -0.251 C  
BRANCH  15  16
HETATM   16  C   UNL     1      -9.356  15.614  68.385  1.00  0.00    -0.195 A  
HETATM   17  C   UNL     1      -7.305  15.630  69.210  1.00  0.00    -0.207 A  
HETATM   18  N   UNL     1      -6.266  15.155  70.024  1.00  0.00    -0.148 NA 
HETATM   19  H2  UNL     1      -5.900  15.959  70.534  1.00  0.00     0.000 HD 
HETATM   20  C   UNL     1      -8.799  16.655  67.652  1.00  0.00    -0.201 A  
HETATM   21  H1  UNL     1      -6.356  14.394  70.697  1.00  0.00     0.000 HD 
HETATM   22  S   UNL     1      -7.155  16.890  68.094  1.00  0.00    -0.170 SA 
HETATM   23  N   UNL     1      -8.470  15.053  69.312  1.00  0.00    -0.193 NA 
ENDBRANCH  15  16
BRANCH  15  24
HETATM   24  N   UNL     1     -11.647  15.722  68.908  1.00  0.00    -0.379 NA 
HETATM   25  H   UNL     1     -12.468  16.165  68.496  1.00  0.00     0.000 HD 
BRANCH  24  26
HETATM   26  O   UNL     1     -11.382  15.701  70.280  1.00  0.00    -0.281 OA 
HETATM   27  O   UNL     1     -11.919  16.814  72.509  1.00  0.00    -0.373 OA 
HETATM   28  O   UNL     1     -13.283  15.201  73.273  1.00  0.00    -0.478 OA 
HETATM   29  C   UNL     1     -13.742  14.917  70.340  1.00  0.00     0.374 C  
HETATM   30  C   UNL     1     -11.814  13.543  71.263  1.00  0.00     0.388 C  
HETATM   31  C   UNL     1     -12.368  14.942  71.022  1.00  0.00    -0.324 C  
HETATM   32  C   UNL     1     -12.478  15.735  72.331  1.00  0.00    -0.453 C  
ENDBRANCH  24  26
ENDBRANCH  15  24
ENDBRANCH  13  15
ENDBRANCH   3  11
TORSDOF 5
ENDMDL
MODEL      209
REMARK 921   NORMALIZED FREE ENERGY PREDICTED BY IDOCK:   -3.82 KCAL/MOL
REMARK 922        TOTAL FREE ENERGY PREDICTED BY IDOCK:   -6.08 KCAL/MOL
REMARK 923 INTER-LIGAND FREE ENERGY PREDICTED BY IDOCK:   -4.77 KCAL/MOL
REMARK 924 INTRA-LIGAND FREE ENERGY PREDICTED BY IDOCK:   -1.31 KCAL/MOL
REMARK 927      BINDING AFFINITY PREDICTED BY RF-SCORE:    0.00 PKD
ROOT
HETATM    1  C   UNL     1     -12.375  11.905  68.729  1.00  0.00     0.227 C  
HETATM    2  C   UNL     1     -11.083  11.719  67.967  1.00  0.00    -0.242 C  
HETATM    3  C   UNL     1     -10.858  10.273  67.421  1.00  0.00    -0.277 C  
HETATM    4  O   UNL     1     -11.877  14.470  66.888  1.00  0.00    -0.392 OA 
HETATM    5  C   UNL     1     -10.638  11.013  66.036  1.00  0.00    -0.213 C  
HETATM    6  N   UNL     1     -11.083  12.200  66.588  1.00  0.00    -0.289 N  
HETATM    7  O   UNL     1     -10.606  13.888  64.883  1.00  0.00    -0.372 OA 
HETATM    8  O   UNL     1     -12.897  13.016  65.195  1.00  0.00    -0.656 OA 
HETATM    9  O   UNL     1     -10.286  10.761  64.910  1.00  0.00    -0.312 OA 
HETATM   10  S   UNL     1     -11.669  13.513  65.801  1.00  0.00    -0.364 S  
ENDROOT
BRANCH   3  11
HETATM   11  N   UNL     1      -9.724   9.459  67.959  1.00  0.00    -0.142 N  
HETATM   12  O   UNL     1     -10.591   7.365  67.515  1.00  0.00    -0.247 OA 
HETATM   13  C   UNL     1      -9.665   8.080  67.874  1.00  0.00    -0.160 C  
HETATM   14  H   UNL     1      -8.953   9.948  68.413  1.00  0.00     0.000 HD 
BRANCH  13  15
HETATM   15  C   UNL     1      -8.361   7.406  68.294  1.00  0.00    -0.125 C  
BRANCH  15  16
HETATM   16  C   UNL     1      -8.351   6.526  69.472  1.00  0.00    -0.130 A  
HETATM   17  C   UNL     1      -7.761   4.758  70.660  1.00  0.00    -0.065 A  
HETATM   18  N   UNL     1      -7.091   3.545  70.874  1.00  0.00    -0.033 NA 
HETATM   19  H2  UNL     1      -7.781   2.884  71.231  1.00  0.00     0.000 HD 
HETATM   20  C   UNL     1      -8.971   6.818  70.681  1.00  0.00    -0.151 A  
HETATM   21  H1  UNL     1      -6.546   3.049  70.169  1.00  0.00     0.000 HD 
HETATM   22  S   UNL     1      -8.663   5.578  71.830  1.00  0.00    -0.136 SA 
HETATM   23  N   UNL     1      -7.677   5.299  69.477  1.00  0.00    -0.072 NA 
ENDBRANCH  15  16
BRANCH  15  24
HETATM   24  N   UNL     1      -7.222   7.537  67.673  1.00  0.00    -0.088 NA 
HETATM   25  H   UNL     1      -6.437   6.894  67.787  1.00  0.00     0.000 HD 
BRANCH  24  26
HETATM   26  O   UNL     1      -7.194   8.654  66.835  1.00  0.00    -0.074 OA 
HETATM   27  O   UNL     1      -5.696  10.460  65.842  1.00  0.00    -0.073 OA 
HETATM   28  O   UNL     1      -5.545   9.562  63.788  1.00  0.00    -0.069 OA 
HETATM   29  C   UNL     1      -5.892   7.084  65.411  1.00  0.00    -0.036 C  
HETATM   30  C   UNL     1      -8.054   8.171  64.635  1.00  0.00    -0.148 C  
HETATM   31  C   UNL     1      -6.796   8.321  65.483  1.00  0.00    -0.066 C  
HETATM   32  C   UNL     1      -5.984   9.554  65.065  1.00  0.00    -0.068 C  
ENDBRANCH  24  26
ENDBRANCH  15  24
ENDBRANCH  13  15
ENDBRANCH   3  11
TORSDOF 5
ENDMDL
MODEL      210
REMARK 921   NORMALIZED FREE ENERGY PREDICTED BY IDOCK:   -3.79 KCAL/MOL
REMARK 922        TOTAL FREE ENERGY PREDICTED BY IDOCK:   -6.05 KCAL/MOL
REMARK 923 INTER-LIGAND FREE ENERGY PREDICTED BY IDOCK:   -4.95 KCAL/MOL
REMARK 924 INTRA-LIGAND FREE ENERGY PREDICTED BY IDOCK:   -1.10 KCAL/MOL
REMARK 927      BINDING AFFINITY PREDICTED BY RF-SCORE:    0.00 PKD
ROOT
HETATM    1  C   UNL     1     -10.308  13.589  68.519  1.00  0.00    -0.242 C  
HETATM    2  C   UNL     1      -9.746  12.574  67.549  1.00  0.00    -0.196 C  
HETATM    3  C   UNL     1     -10.351  11.142  67.691  1.00  0.00    -0.192 C  
HETATM    4  O   UNL     1      -9.962  14.968  65.657  1.00  0.00    -0.316 OA 
HETATM    5  C   UNL     1     -10.628  11.289  66.136  1.00  0.00    -0.258 C  
HETATM    6  N   UNL     1     -10.282  12.626  66.192  1.00  0.00    -0.253 N  
HETATM    7  O   UNL     1     -10.188  13.335  63.853  1.00  0.00    -0.322 OA 
HETATM    8  O   UNL     1     -12.134  13.896  65.269  1.00  0.00    -0.368 OA 
HETATM    9  O   UNL     1     -11.013  10.622  65.209  1.00  0.00    -0.014 OA 
HETATM   10  S   UNL     1     -10.687  13.811  65.133  1.00  0.00    -0.381 S  
ENDROOT
BRANCH   3  11
HETATM   11  N   UNL     1      -9.469  10.017  68.134  1.00  0.00    -0.138 N  
HETATM   12  O   UNL     1     -10.854   8.267  67.542  1.00  0.00    -0.192 OA 
HETATM   13  C   UNL     1      -9.773   8.683  67.936  1.00  0.00    -0.161 C  
HETATM   14  H   UNL     1      -8.596  10.248  68.608  1.00  0.00     0.000 HD 
BRANCH  13  15
HETATM   15  C   UNL     1      -8.691   7.659  68.268  1.00  0.00    -0.123 C  
BRANCH  15  16
HETATM   16  C   UNL     1      -7.793   7.186  67.203  1.00  0.00    -0.110 A  
HETATM   17  C   UNL     1      -6.728   5.676  65.990  1.00  0.00    -0.056 A  
HETATM   18  N   UNL     1      -6.358   4.370  65.637  1.00  0.00    -0.035 NA 
HETATM   19  H2  UNL     1      -5.340   4.361  65.565  1.00  0.00     0.000 HD 
HETATM   20  C   UNL     1      -7.198   8.005  66.251  1.00  0.00    -0.071 A  
HETATM   21  H1  UNL     1      -6.624   3.531  66.152  1.00  0.00     0.000 HD 
HETATM   22  S   UNL     1      -6.287   7.066  65.137  1.00  0.00    -0.037 SA 
HETATM   23  N   UNL     1      -7.475   5.831  67.047  1.00  0.00    -0.080 NA 
ENDBRANCH  15  16
BRANCH  15  24
HETATM   24  N   UNL     1      -8.478   7.159  69.454  1.00  0.00    -0.133 NA 
HETATM   25  H   UNL     1      -8.070   6.238  69.616  1.00  0.00     0.000 HD 
BRANCH  24  26
HETATM   26  O   UNL     1      -8.871   8.024  70.478  1.00  0.00    -0.134 OA 
HETATM   27  O   UNL     1     -10.450   8.305  72.458  1.00  0.00    -0.311 OA 
HETATM   28  O   UNL     1      -8.915   7.943  74.058  1.00  0.00    -0.267 OA 
HETATM   29  C   UNL     1      -7.779   6.272  71.865  1.00  0.00    -0.097 C  
HETATM   30  C   UNL     1      -7.021   8.697  71.869  1.00  0.00    -0.091 C  
HETATM   31  C   UNL     1      -8.199   7.740  71.729  1.00  0.00    -0.111 C  
HETATM   32  C   UNL     1      -9.291   8.042  72.765  1.00  0.00    -0.263 C  
ENDBRANCH  24  26
ENDBRANCH  15  24
ENDBRANCH  13  15
ENDBRANCH   3  11
TORSDOF 5
ENDMDL
MODEL      211
REMARK 921   NORMALIZED FREE ENERGY PREDICTED BY IDOCK:   -3.78 KCAL/MOL
REMARK 922        TOTAL FREE ENERGY PREDICTED BY IDOCK:   -6.03 KCAL/MOL
REMARK 923 INTER-LIGAND FREE ENERGY PREDICTED BY IDOCK:   -5.19 KCAL/MOL
REMARK 924 INTRA-LIGAND FREE ENERGY PREDICTED BY IDOCK:   -0.85 KCAL/MOL
REMARK 927      BINDING AFFINITY PREDICTED BY RF-SCORE:    0.00 PKD
ROOT
HETATM    1  C   UNL     1     -10.500  14.116  65.419  1.00  0.00    -0.372 C  
HETATM    2  C   UNL     1      -9.888  14.055  66.800  1.00  0.00    -0.273 C  
HETATM    3  C   UNL     1      -8.661  13.096  66.919  1.00  0.00    -0.148 C  
HETATM    4  O   UNL     1     -10.429  17.063  66.655  1.00  0.00    -0.307 OA 
HETATM    5  C   UNL     1      -7.939  14.371  67.526  1.00  0.00    -0.192 C  
HETATM    6  N   UNL     1      -9.007  15.165  67.155  1.00  0.00    -0.201 N  
HETATM    7  O   UNL     1      -8.565  17.325  68.214  1.00  0.00    -0.231 OA 
HETATM    8  O   UNL     1      -8.129  16.983  65.806  1.00  0.00    -0.460 OA 
HETATM    9  O   UNL     1      -6.899  14.664  68.062  1.00  0.00    -0.112 OA 
HETATM   10  S   UNL     1      -9.021  16.790  66.941  1.00  0.00    -0.236 S  
ENDROOT
BRANCH   3  11
HETATM   11  N   UNL     1      -8.767  11.882  67.787  1.00  0.00    -0.151 N  
HETATM   12  O   UNL     1      -9.210  10.337  66.129  1.00  0.00    -0.151 OA 
HETATM   13  C   UNL     1      -8.946  10.602  67.294  1.00  0.00    -0.136 C  
HETATM   14  H   UNL     1      -8.703  12.005  68.798  1.00  0.00     0.000 HD 
BRANCH  13  15
HETATM   15  C   UNL     1      -8.844   9.446  68.285  1.00  0.00    -0.128 C  
BRANCH  15  16
HETATM   16  C   UNL     1      -7.743   9.428  69.261  1.00  0.00    -0.083 A  
HETATM   17  C   UNL     1      -6.827   9.208  71.261  1.00  0.00    -0.063 A  
HETATM   18  N   UNL     1      -6.852   8.986  72.645  1.00  0.00    -0.314 NA 
HETATM   19  H2  UNL     1      -6.318   9.741  73.076  1.00  0.00     0.000 HD 
HETATM   20  C   UNL     1      -6.397   9.544  68.934  1.00  0.00    -0.043 A  
HETATM   21  H1  UNL     1      -7.700   8.871  73.200  1.00  0.00     0.000 HD 
HETATM   22  S   UNL     1      -5.422   9.398  70.341  1.00  0.00    -0.034 SA 
HETATM   23  N   UNL     1      -7.968   9.265  70.633  1.00  0.00    -0.154 NA 
ENDBRANCH  15  16
BRANCH  15  24
HETATM   24  N   UNL     1      -9.679   8.447  68.353  1.00  0.00    -0.152 NA 
HETATM   25  H   UNL     1     -10.685   8.558  68.485  1.00  0.00     0.000 HD 
BRANCH  24  26
HETATM   26  O   UNL     1      -9.044   7.210  68.227  1.00  0.00    -0.135 OA 
HETATM   27  O   UNL     1      -8.127   5.212  69.517  1.00  0.00    -0.081 OA 
HETATM   28  O   UNL     1      -9.818   3.810  69.046  1.00  0.00    -0.096 OA 
HETATM   29  C   UNL     1     -11.274   6.412  68.989  1.00  0.00    -0.402 C  
HETATM   30  C   UNL     1     -10.246   5.708  66.774  1.00  0.00    -0.276 C  
HETATM   31  C   UNL     1      -9.982   6.105  68.222  1.00  0.00    -0.143 C  
HETATM   32  C   UNL     1      -9.208   5.012  68.970  1.00  0.00    -0.114 C  
ENDBRANCH  24  26
ENDBRANCH  15  24
ENDBRANCH  13  15
ENDBRANCH   3  11
TORSDOF 5
ENDMDL
MODEL      212
REMARK 921   NORMALIZED FREE ENERGY PREDICTED BY IDOCK:   -3.76 KCAL/MOL
REMARK 922        TOTAL FREE ENERGY PREDICTED BY IDOCK:   -6.00 KCAL/MOL
REMARK 923 INTER-LIGAND FREE ENERGY PREDICTED BY IDOCK:   -5.05 KCAL/MOL
REMARK 924 INTRA-LIGAND FREE ENERGY PREDICTED BY IDOCK:   -0.95 KCAL/MOL
REMARK 927      BINDING AFFINITY PREDICTED BY RF-SCORE:    0.00 PKD
ROOT
HETATM    1  C   UNL     1     -12.027  12.470  69.269  1.00  0.00    -0.304 C  
HETATM    2  C   UNL     1     -10.665  11.938  68.885  1.00  0.00    -0.199 C  
HETATM    3  C   UNL     1     -10.702  10.666  67.980  1.00  0.00    -0.233 C  
HETATM    4  O   UNL     1     -10.101  14.931  68.596  1.00  0.00    -0.223 OA 
HETATM    5  C   UNL     1      -9.752  11.517  67.038  1.00  0.00    -0.184 C  
HETATM    6  N   UNL     1      -9.988  12.644  67.801  1.00  0.00    -0.212 N  
HETATM    7  O   UNL     1      -8.402  14.303  66.955  1.00  0.00    -0.195 OA 
HETATM    8  O   UNL     1     -10.785  14.383  66.304  1.00  0.00    -0.297 OA 
HETATM    9  O   UNL     1      -9.090  11.376  66.039  1.00  0.00    -0.205 OA 
HETATM   10  S   UNL     1      -9.796  14.212  67.359  1.00  0.00    -0.243 S  
ENDROOT
BRANCH   3  11
HETATM   11  N   UNL     1     -10.169   9.374  68.516  1.00  0.00    -0.192 N  
HETATM   12  O   UNL     1     -11.131   7.960  66.965  1.00  0.00    -0.078 OA 
HETATM   13  C   UNL     1     -10.367   8.151  67.901  1.00  0.00    -0.220 C  
HETATM   14  H   UNL     1      -9.630   9.398  69.382  1.00  0.00     0.000 HD 
BRANCH  13  15
HETATM   15  C   UNL     1      -9.604   6.953  68.459  1.00  0.00    -0.131 C  
BRANCH  15  16
HETATM   16  C   UNL     1      -9.954   6.430  69.788  1.00  0.00    -0.166 A  
HETATM   17  C   UNL     1      -9.587   5.389  71.704  1.00  0.00    -0.150 A  
HETATM   18  N   UNL     1      -8.809   4.671  72.624  1.00  0.00    -0.114 NA 
HETATM   19  H2  UNL     1      -9.360   3.861  72.908  1.00  0.00     0.000 HD 
HETATM   20  C   UNL     1     -11.165   6.656  70.432  1.00  0.00    -0.344 A  
HETATM   21  H1  UNL     1      -7.862   4.337  72.448  1.00  0.00     0.000 HD 
HETATM   22  S   UNL     1     -11.156   5.944  71.996  1.00  0.00    -0.268 SA 
HETATM   23  N   UNL     1      -9.061   5.658  70.542  1.00  0.00    -0.143 NA 
ENDBRANCH  15  16
BRANCH  15  24
HETATM   24  N   UNL     1      -8.646   6.325  67.836  1.00  0.00    -0.116 NA 
HETATM   25  H   UNL     1      -7.654   6.466  68.033  1.00  0.00     0.000 HD 
BRANCH  24  26
HETATM   26  O   UNL     1      -9.127   5.439  66.869  1.00  0.00    -0.113 OA 
HETATM   27  O   UNL     1      -8.762   4.558  64.506  1.00  0.00    -0.136 OA 
HETATM   28  O   UNL     1      -7.853   2.593  65.107  1.00  0.00    -0.079 OA 
HETATM   29  C   UNL     1      -6.988   4.287  67.405  1.00  0.00    -0.063 C  
HETATM   30  C   UNL     1      -9.255   3.175  67.685  1.00  0.00    -0.237 C  
HETATM   31  C   UNL     1      -8.426   4.172  66.884  1.00  0.00    -0.100 C  
HETATM   32  C   UNL     1      -8.387   3.799  65.396  1.00  0.00    -0.105 C  
ENDBRANCH  24  26
ENDBRANCH  15  24
ENDBRANCH  13  15
ENDBRANCH   3  11
TORSDOF 5
ENDMDL
MODEL      213
REMARK 921   NORMALIZED FREE ENERGY PREDICTED BY IDOCK:   -3.75 KCAL/MOL
REMARK 922        TOTAL FREE ENERGY PREDICTED BY IDOCK:   -5.99 KCAL/MOL
REMARK 923 INTER-LIGAND FREE ENERGY PREDICTED BY IDOCK:   -5.45 KCAL/MOL
REMARK 924 INTRA-LIGAND FREE ENERGY PREDICTED BY IDOCK:   -0.55 KCAL/MOL
REMARK 927      BINDING AFFINITY PREDICTED BY RF-SCORE:    0.00 PKD
ROOT
HETATM    1  C   UNL     1      -7.556  11.425  67.416  1.00  0.00    -0.124 C  
HETATM    2  C   UNL     1      -8.783  10.630  67.801  1.00  0.00    -0.129 C  
HETATM    3  C   UNL     1      -8.852  10.241  69.312  1.00  0.00    -0.177 C  
HETATM    4  O   UNL     1     -10.095  12.634  65.897  1.00  0.00    -0.257 OA 
HETATM    5  C   UNL     1     -10.288  10.912  69.244  1.00  0.00    -0.187 C  
HETATM    6  N   UNL     1     -10.010  11.402  67.982  1.00  0.00    -0.177 N  
HETATM    7  O   UNL     1     -12.143  12.296  67.186  1.00  0.00    -0.560 OA 
HETATM    8  O   UNL     1     -10.378  13.802  68.036  1.00  0.00    -0.235 OA 
HETATM    9  O   UNL     1     -11.267  11.047  69.935  1.00  0.00    -0.270 OA 
HETATM   10  S   UNL     1     -10.735  12.655  67.212  1.00  0.00    -0.241 S  
ENDROOT
BRANCH   3  11
HETATM   11  N   UNL     1      -8.780   8.797  69.696  1.00  0.00    -0.133 N  
HETATM   12  O   UNL     1     -10.450   8.009  68.309  1.00  0.00    -0.204 OA 
HETATM   13  C   UNL     1      -9.531   7.806  69.092  1.00  0.00    -0.151 C  
HETATM   14  H   UNL     1      -8.143   8.529  70.446  1.00  0.00     0.000 HD 
BRANCH  13  15
HETATM   15  C   UNL     1      -9.211   6.359  69.458  1.00  0.00    -0.144 C  
BRANCH  15  16
HETATM   16  C   UNL     1      -9.475   5.886  70.825  1.00  0.00    -0.165 A  
HETATM   17  C   UNL     1     -10.731   5.344  72.562  1.00  0.00    -0.237 A  
HETATM   18  N   UNL     1     -11.946   5.196  73.246  1.00  0.00    -0.421 NA 
HETATM   19  H2  UNL     1     -11.832   5.650  74.153  1.00  0.00     0.000 HD 
HETATM   20  C   UNL     1      -8.506   5.387  71.688  1.00  0.00    -0.127 A  
HETATM   21  H1  UNL     1     -12.855   5.483  72.885  1.00  0.00     0.000 HD 
HETATM   22  S   UNL     1      -9.224   4.867  73.160  1.00  0.00    -0.117 SA 
HETATM   23  N   UNL     1     -10.763   5.879  71.374  1.00  0.00    -0.251 NA 
ENDBRANCH  15  16
BRANCH  15  24
HETATM   24  N   UNL     1      -8.718   5.475  68.636  1.00  0.00    -0.108 NA 
HETATM   25  H   UNL     1      -8.338   4.575  68.932  1.00  0.00     0.000 HD 
BRANCH  24  26
HETATM   26  O   UNL     1      -8.769   5.895  67.305  1.00  0.00    -0.110 OA 
HETATM   27  O   UNL     1      -7.533   5.863  65.076  1.00  0.00    -0.073 OA 
HETATM   28  O   UNL     1      -8.826   4.311  64.093  1.00  0.00    -0.130 OA 
HETATM   29  C   UNL     1      -9.062   3.451  66.939  1.00  0.00    -0.188 C  
HETATM   30  C   UNL     1     -10.779   5.169  66.191  1.00  0.00    -0.247 C  
HETATM   31  C   UNL     1      -9.301   4.876  66.423  1.00  0.00    -0.145 C  
HETATM   32  C   UNL     1      -8.481   5.085  65.144  1.00  0.00    -0.143 C  
ENDBRANCH  24  26
ENDBRANCH  15  24
ENDBRANCH  13  15
ENDBRANCH   3  11
TORSDOF 5
ENDMDL
MODEL      214
REMARK 921   NORMALIZED FREE ENERGY PREDICTED BY IDOCK:   -3.75 KCAL/MOL
REMARK 922        TOTAL FREE ENERGY PREDICTED BY IDOCK:   -5.99 KCAL/MOL
REMARK 923 INTER-LIGAND FREE ENERGY PREDICTED BY IDOCK:   -4.98 KCAL/MOL
REMARK 924 INTRA-LIGAND FREE ENERGY PREDICTED BY IDOCK:   -1.02 KCAL/MOL
REMARK 927      BINDING AFFINITY PREDICTED BY RF-SCORE:    0.00 PKD
ROOT
HETATM    1  C   UNL     1     -12.227  11.029  69.999  1.00  0.00    -0.418 C  
HETATM    2  C   UNL     1     -10.880  10.602  69.460  1.00  0.00    -0.259 C  
HETATM    3  C   UNL     1     -10.841   9.144  68.902  1.00  0.00    -0.070 C  
HETATM    4  O   UNL     1     -10.939  13.462  68.375  1.00  0.00    -0.247 OA 
HETATM    5  C   UNL     1     -10.247   9.838  67.606  1.00  0.00    -0.213 C  
HETATM    6  N   UNL     1     -10.549  11.084  68.122  1.00  0.00    -0.180 N  
HETATM    7  O   UNL     1      -9.472  12.660  66.593  1.00  0.00    -0.233 OA 
HETATM    8  O   UNL     1     -11.905  12.245  66.476  1.00  0.00    -0.539 OA 
HETATM    9  O   UNL     1      -9.759   9.530  66.547  1.00  0.00    -0.189 OA 
HETATM   10  S   UNL     1     -10.731  12.491  67.301  1.00  0.00    -0.238 S  
ENDROOT
BRANCH   3  11
HETATM   11  N   UNL     1      -9.993   8.122  69.591  1.00  0.00    -0.189 N  
HETATM   12  O   UNL     1     -11.165   6.241  68.946  1.00  0.00    -0.370 OA 
HETATM   13  C   UNL     1     -10.190   6.759  69.473  1.00  0.00    -0.184 C  
HETATM   14  H   UNL     1      -9.226   8.450  70.180  1.00  0.00     0.000 HD 
BRANCH  13  15
HETATM   15  C   UNL     1      -9.131   5.841  70.078  1.00  0.00    -0.142 C  
BRANCH  15  16
HETATM   16  C   UNL     1      -8.253   5.066  69.187  1.00  0.00    -0.083 A  
HETATM   17  C   UNL     1      -7.322   3.236  68.370  1.00  0.00    -0.050 A  
HETATM   18  N   UNL     1      -7.090   1.854  68.311  1.00  0.00    -0.039 NA 
HETATM   19  H2  UNL     1      -6.078   1.724  68.304  1.00  0.00     0.000 HD 
HETATM   20  C   UNL     1      -7.533   5.604  68.126  1.00  0.00    -0.074 A  
HETATM   21  H1  UNL     1      -7.470   1.172  68.967  1.00  0.00     0.000 HD 
HETATM   22  S   UNL     1      -6.693   4.365  67.282  1.00  0.00    -0.048 SA 
HETATM   23  N   UNL     1      -8.086   3.683  69.326  1.00  0.00    -0.054 NA 
ENDBRANCH  15  16
BRANCH  15  24
HETATM   24  N   UNL     1      -8.921   5.686  71.355  1.00  0.00    -0.139 NA 
HETATM   25  H   UNL     1      -9.532   5.144  71.969  1.00  0.00     0.000 HD 
BRANCH  24  26
HETATM   26  O   UNL     1      -7.769   6.343  71.792  1.00  0.00    -0.094 OA 
HETATM   27  O   UNL     1      -6.682   8.627  72.105  1.00  0.00    -0.087 OA 
HETATM   28  O   UNL     1      -6.962   8.737  74.331  1.00  0.00    -0.318 OA 
HETATM   29  C   UNL     1      -9.322   7.068  73.596  1.00  0.00    -0.226 C  
HETATM   30  C   UNL     1      -7.189   5.767  74.060  1.00  0.00    -0.082 C  
HETATM   31  C   UNL     1      -7.876   6.792  73.165  1.00  0.00    -0.096 C  
HETATM   32  C   UNL     1      -7.104   8.118  73.139  1.00  0.00    -0.118 C  
ENDBRANCH  24  26
ENDBRANCH  15  24
ENDBRANCH  13  15
ENDBRANCH   3  11
TORSDOF 5
ENDMDL
MODEL      215
REMARK 921   NORMALIZED FREE ENERGY PREDICTED BY IDOCK:   -3.69 KCAL/MOL
REMARK 922        TOTAL FREE ENERGY PREDICTED BY IDOCK:   -5.91 KCAL/MOL
REMARK 923 INTER-LIGAND FREE ENERGY PREDICTED BY IDOCK:   -6.28 KCAL/MOL
REMARK 924 INTRA-LIGAND FREE ENERGY PREDICTED BY IDOCK:    0.37 KCAL/MOL
REMARK 927      BINDING AFFINITY PREDICTED BY RF-SCORE:    0.00 PKD
ROOT
HETATM    1  C   UNL     1      -6.538   9.371  68.419  1.00  0.00    -0.054 C  
HETATM    2  C   UNL     1      -7.731   9.924  69.165  1.00  0.00    -0.098 C  
HETATM    3  C   UNL     1      -8.833  10.546  68.250  1.00  0.00    -0.139 C  
HETATM    4  O   UNL     1      -7.290   7.377  70.801  1.00  0.00    -0.068 OA 
HETATM    5  C   UNL     1      -9.800   9.568  69.040  1.00  0.00    -0.176 C  
HETATM    6  N   UNL     1      -8.712   8.941  69.616  1.00  0.00    -0.136 N  
HETATM    7  O   UNL     1      -9.678   7.466  71.311  1.00  0.00    -0.166 OA 
HETATM    8  O   UNL     1      -8.906   6.567  69.142  1.00  0.00    -0.128 OA 
HETATM    9  O   UNL     1     -10.980   9.339  69.147  1.00  0.00    -0.175 OA 
HETATM   10  S   UNL     1      -8.655   7.442  70.278  1.00  0.00    -0.146 S  
ENDROOT
BRANCH   3  11
HETATM   11  N   UNL     1      -9.111  12.013  68.336  1.00  0.00    -0.263 N  
HETATM   12  O   UNL     1      -7.158  12.770  67.364  1.00  0.00    -0.148 OA 
HETATM   13  C   UNL     1      -8.280  12.982  67.804  1.00  0.00    -0.168 C  
HETATM   14  H   UNL     1      -9.960  12.316  68.815  1.00  0.00     0.000 HD 
BRANCH  13  15
HETATM   15  C   UNL     1      -8.789  14.421  67.802  1.00  0.00    -0.186 C  
BRANCH  15  16
HETATM   16  C   UNL     1      -9.708  14.860  66.741  1.00  0.00    -0.251 A  
HETATM   17  C   UNL     1     -10.710  16.325  65.424  1.00  0.00    -0.327 A  
HETATM   18  N   UNL     1     -10.985  17.614  64.946  1.00  0.00    -0.765 NA 
HETATM   19  H2  UNL     1     -12.000  17.713  64.929  1.00  0.00     0.000 HD 
HETATM   20  C   UNL     1     -10.434  14.004  65.922  1.00  0.00    -0.309 A  
HETATM   21  H1  UNL     1     -10.612  18.475  65.346  1.00  0.00     0.000 HD 
HETATM   22  S   UNL     1     -11.329  14.899  64.760  1.00  0.00    -0.376 SA 
HETATM   23  N   UNL     1      -9.913  16.214  66.449  1.00  0.00    -0.281 NA 
ENDBRANCH  15  16
BRANCH  15  24
HETATM   24  N   UNL     1      -8.479  15.321  68.694  1.00  0.00    -0.158 NA 
HETATM   25  H   UNL     1      -8.266  15.105  69.668  1.00  0.00     0.000 HD 
BRANCH  24  26
HETATM   26  O   UNL     1      -8.472  16.615  68.167  1.00  0.00    -0.188 OA 
HETATM   27  O   UNL     1      -8.846  19.075  68.717  1.00  0.00    -0.349 OA 
HETATM   28  O   UNL     1      -6.676  19.650  68.788  1.00  0.00    -0.282 OA 
HETATM   29  C   UNL     1      -6.483  16.802  69.649  1.00  0.00    -0.189 C  
HETATM   30  C   UNL     1      -6.366  17.174  67.138  1.00  0.00    -0.207 C  
HETATM   31  C   UNL     1      -7.216  17.299  68.397  1.00  0.00    -0.220 C  
HETATM   32  C   UNL     1      -7.666  18.747  68.627  1.00  0.00    -0.326 C  
ENDBRANCH  24  26
ENDBRANCH  15  24
ENDBRANCH  13  15
ENDBRANCH   3  11
TORSDOF 5
ENDMDL
MODEL      216
REMARK 921   NORMALIZED FREE ENERGY PREDICTED BY IDOCK:   -3.66 KCAL/MOL
REMARK 922        TOTAL FREE ENERGY PREDICTED BY IDOCK:   -5.87 KCAL/MOL
REMARK 923 INTER-LIGAND FREE ENERGY PREDICTED BY IDOCK:   -4.83 KCAL/MOL
REMARK 924 INTRA-LIGAND FREE ENERGY PREDICTED BY IDOCK:   -1.04 KCAL/MOL
REMARK 927      BINDING AFFINITY PREDICTED BY RF-SCORE:    0.00 PKD
ROOT
HETATM    1  C   UNL     1     -12.125  11.964  69.068  1.00  0.00    -0.245 C  
HETATM    2  C   UNL     1     -10.935  11.804  68.150  1.00  0.00    -0.228 C  
HETATM    3  C   UNL     1     -10.891  10.445  67.381  1.00  0.00    -0.286 C  
HETATM    4  O   UNL     1     -11.589  14.736  67.571  1.00  0.00    -0.347 OA 
HETATM    5  C   UNL     1     -10.744  11.370  66.100  1.00  0.00    -0.267 C  
HETATM    6  N   UNL     1     -11.028  12.487  66.862  1.00  0.00    -0.249 N  
HETATM    7  O   UNL     1     -10.576  14.376  65.376  1.00  0.00    -0.320 OA 
HETATM    8  O   UNL     1     -12.892  13.633  65.809  1.00  0.00    -0.456 OA 
HETATM    9  O   UNL     1     -10.528  11.267  64.918  1.00  0.00    -0.288 OA 
HETATM   10  S   UNL     1     -11.573  13.943  66.341  1.00  0.00    -0.386 S  
ENDROOT
BRANCH   3  11
HETATM   11  N   UNL     1      -9.784   9.480  67.668  1.00  0.00    -0.149 N  
HETATM   12  O   UNL     1     -10.881   7.541  67.061  1.00  0.00    -0.348 OA 
HETATM   13  C   UNL     1      -9.861   8.126  67.397  1.00  0.00    -0.184 C  
HETATM   14  H   UNL     1      -8.927   9.841  68.087  1.00  0.00     0.000 HD 
BRANCH  13  15
HETATM   15  C   UNL     1      -8.586   7.303  67.567  1.00  0.00    -0.122 C  
BRANCH  15  16
HETATM   16  C   UNL     1      -7.916   6.758  66.376  1.00  0.00    -0.106 A  
HETATM   17  C   UNL     1      -7.084   5.169  65.084  1.00  0.00    -0.063 A  
HETATM   18  N   UNL     1      -6.759   3.844  64.759  1.00  0.00    -0.047 NA 
HETATM   19  H2  UNL     1      -5.779   3.841  64.478  1.00  0.00     0.000 HD 
HETATM   20  C   UNL     1      -7.553   7.506  65.263  1.00  0.00    -0.097 A  
HETATM   21  H1  UNL     1      -6.891   3.045  65.379  1.00  0.00     0.000 HD 
HETATM   22  S   UNL     1      -6.866   6.493  64.056  1.00  0.00    -0.047 SA 
HETATM   23  N   UNL     1      -7.601   5.399  66.258  1.00  0.00    -0.087 NA 
ENDBRANCH  15  16
BRANCH  15  24
HETATM   24  N   UNL     1      -8.016   7.042  68.709  1.00  0.00    -0.118 NA 
HETATM   25  H   UNL     1      -8.409   6.410  69.408  1.00  0.00     0.000 HD 
BRANCH  24  26
HETATM   26  O   UNL     1      -6.806   7.722  68.872  1.00  0.00    -0.055 OA 
HETATM   27  O   UNL     1      -5.705  10.020  68.848  1.00  0.00    -0.036 OA 
HETATM   28  O   UNL     1      -5.531  10.239  71.077  1.00  0.00    -0.078 OA 
HETATM   29  C   UNL     1      -7.971   8.532  70.916  1.00  0.00    -0.120 C  
HETATM   30  C   UNL     1      -5.773   7.259  70.999  1.00  0.00    -0.031 C  
HETATM   31  C   UNL     1      -6.638   8.238  70.215  1.00  0.00    -0.036 C  
HETATM   32  C   UNL     1      -5.904   9.562  69.969  1.00  0.00    -0.036 C  
ENDBRANCH  24  26
ENDBRANCH  15  24
ENDBRANCH  13  15
ENDBRANCH   3  11
TORSDOF 5
ENDMDL
MODEL      217
REMARK 921   NORMALIZED FREE ENERGY PREDICTED BY IDOCK:   -3.65 KCAL/MOL
REMARK 922        TOTAL FREE ENERGY PREDICTED BY IDOCK:   -5.86 KCAL/MOL
REMARK 923 INTER-LIGAND FREE ENERGY PREDICTED BY IDOCK:   -5.64 KCAL/MOL
REMARK 924 INTRA-LIGAND FREE ENERGY PREDICTED BY IDOCK:   -0.22 KCAL/MOL
REMARK 927      BINDING AFFINITY PREDICTED BY RF-SCORE:    0.00 PKD
ROOT
HETATM    1  C   UNL     1     -10.180  11.036  63.389  1.00  0.00    -0.404 C  
HETATM    2  C   UNL     1     -10.595  11.111  64.841  1.00  0.00    -0.289 C  
HETATM    3  C   UNL     1      -9.464  11.578  65.811  1.00  0.00    -0.234 C  
HETATM    4  O   UNL     1     -13.128  12.259  63.564  1.00  0.00    -0.766 OA 
HETATM    5  C   UNL     1     -10.539  12.647  66.277  1.00  0.00    -0.252 C  
HETATM    6  N   UNL     1     -11.361  12.294  65.223  1.00  0.00    -0.328 N  
HETATM    7  O   UNL     1     -13.463  13.463  65.665  1.00  0.00    -0.325 OA 
HETATM    8  O   UNL     1     -11.867  14.321  63.985  1.00  0.00    -0.352 OA 
HETATM    9  O   UNL     1     -10.682  13.488  67.129  1.00  0.00    -0.275 OA 
HETATM   10  S   UNL     1     -12.568  13.179  64.554  1.00  0.00    -0.226 S  
ENDROOT
BRANCH   3  11
HETATM   11  N   UNL     1      -8.947  10.623  66.840  1.00  0.00    -0.137 N  
HETATM   12  O   UNL     1     -10.936  10.229  67.946  1.00  0.00    -0.267 OA 
HETATM   13  C   UNL     1      -9.754   9.974  67.757  1.00  0.00    -0.150 C  
HETATM   14  H   UNL     1      -7.943  10.441  66.868  1.00  0.00     0.000 HD 
BRANCH  13  15
HETATM   15  C   UNL     1      -9.111   8.888  68.615  1.00  0.00    -0.137 C  
BRANCH  15  16
HETATM   16  C   UNL     1      -9.198   7.483  68.187  1.00  0.00    -0.137 A  
HETATM   17  C   UNL     1      -8.554   5.661  67.116  1.00  0.00    -0.109 A  
HETATM   18  N   UNL     1      -7.716   4.922  66.267  1.00  0.00    -0.091 NA 
HETATM   19  H2  UNL     1      -8.319   4.459  65.587  1.00  0.00     0.000 HD 
HETATM   20  C   UNL     1     -10.135   6.572  68.659  1.00  0.00    -0.161 A  
HETATM   21  H1  UNL     1      -6.928   5.309  65.748  1.00  0.00     0.000 HD 
HETATM   22  S   UNL     1      -9.859   5.019  67.977  1.00  0.00    -0.133 SA 
HETATM   23  N   UNL     1      -8.305   6.932  67.261  1.00  0.00    -0.121 NA 
ENDBRANCH  15  16
BRANCH  15  24
HETATM   24  N   UNL     1      -8.460   9.104  69.724  1.00  0.00    -0.128 NA 
HETATM   25  H   UNL     1      -8.139  10.026  70.023  1.00  0.00     0.000 HD 
BRANCH  24  26
HETATM   26  O   UNL     1      -8.251   7.934  70.458  1.00  0.00    -0.114 OA 
HETATM   27  O   UNL     1      -6.664   5.973  70.818  1.00  0.00    -0.053 OA 
HETATM   28  O   UNL     1      -5.770   6.721  72.739  1.00  0.00    -0.038 OA 
HETATM   29  C   UNL     1      -6.426   9.319  71.429  1.00  0.00    -0.039 C  
HETATM   30  C   UNL     1      -8.293   8.325  72.836  1.00  0.00    -0.245 C  
HETATM   31  C   UNL     1      -7.402   8.150  71.612  1.00  0.00    -0.083 C  
HETATM   32  C   UNL     1      -6.603   6.842  71.684  1.00  0.00    -0.049 C  
ENDBRANCH  24  26
ENDBRANCH  15  24
ENDBRANCH  13  15
ENDBRANCH   3  11
TORSDOF 5
ENDMDL
MODEL      218
REMARK 921   NORMALIZED FREE ENERGY PREDICTED BY IDOCK:   -3.65 KCAL/MOL
REMARK 922        TOTAL FREE ENERGY PREDICTED BY IDOCK:   -5.86 KCAL/MOL
REMARK 923 INTER-LIGAND FREE ENERGY PREDICTED BY IDOCK:   -4.97 KCAL/MOL
REMARK 924 INTRA-LIGAND FREE ENERGY PREDICTED BY IDOCK:   -0.89 KCAL/MOL
REMARK 927      BINDING AFFINITY PREDICTED BY RF-SCORE:    0.00 PKD
ROOT
HETATM    1  C   UNL     1      -8.756   7.624  69.004  1.00  0.00    -0.136 C  
HETATM    2  C   UNL     1      -9.114   8.706  69.998  1.00  0.00    -0.156 C  
HETATM    3  C   UNL     1     -10.515   9.356  69.766  1.00  0.00    -0.226 C  
HETATM    4  O   UNL     1      -7.812   6.712  71.918  1.00  0.00    -0.097 OA 
HETATM    5  C   UNL     1     -10.749   8.989  71.291  1.00  0.00    -0.309 C  
HETATM    6  N   UNL     1      -9.586   8.242  71.300  1.00  0.00    -0.161 N  
HETATM    7  O   UNL     1      -9.237   7.676  73.654  1.00  0.00    -0.240 OA 
HETATM    8  O   UNL     1     -10.159   6.013  72.075  1.00  0.00    -0.183 OA 
HETATM    9  O   UNL     1     -11.562   9.176  72.162  1.00  0.00    -0.342 OA 
HETATM   10  S   UNL     1      -9.170   7.048  72.344  1.00  0.00    -0.131 S  
ENDROOT
BRANCH   3  11
HETATM   11  N   UNL     1     -10.594  10.800  69.382  1.00  0.00    -0.260 N  
HETATM   12  O   UNL     1     -12.875  11.072  69.613  1.00  0.00    -0.168 OA 
HETATM   13  C   UNL     1     -11.760  11.541  69.427  1.00  0.00    -0.346 C  
HETATM   14  H   UNL     1      -9.740  11.263  69.069  1.00  0.00     0.000 HD 
BRANCH  13  15
HETATM   15  C   UNL     1     -11.647  13.045  69.190  1.00  0.00    -0.316 C  
BRANCH  15  16
HETATM   16  C   UNL     1     -12.313  13.974  70.116  1.00  0.00    -0.345 A  
HETATM   17  C   UNL     1     -13.183  14.618  72.043  1.00  0.00    -0.351 A  
HETATM   18  N   UNL     1     -13.556  14.443  73.383  1.00  0.00    -0.237 NA 
HETATM   19  H2  UNL     1     -14.529  14.738  73.460  1.00  0.00     0.000 HD 
HETATM   20  C   UNL     1     -12.619  15.297  69.822  1.00  0.00    -0.115 A  
HETATM   21  H1  UNL     1     -13.473  13.567  73.900  1.00  0.00     0.000 HD 
HETATM   22  S   UNL     1     -13.321  16.069  71.187  1.00  0.00     1.103 SA 
HETATM   23  N   UNL     1     -12.683  13.593  71.411  1.00  0.00    -0.356 NA 
ENDBRANCH  15  16
BRANCH  15  24
HETATM   24  N   UNL     1     -10.981  13.597  68.214  1.00  0.00    -0.245 NA 
HETATM   25  H   UNL     1     -11.344  13.696  67.265  1.00  0.00     0.000 HD 
BRANCH  24  26
HETATM   26  O   UNL     1      -9.716  14.036  68.610  1.00  0.00    -0.223 OA 
HETATM   27  O   UNL     1      -7.222  13.525  68.510  1.00  0.00    -0.097 OA 
HETATM   28  O   UNL     1      -6.708  15.078  66.970  1.00  0.00    -0.211 OA 
HETATM   29  C   UNL     1      -9.514  14.465  66.168  1.00  0.00    -0.271 C  
HETATM   30  C   UNL     1      -9.272  16.299  67.910  1.00  0.00    -0.201 C  
HETATM   31  C   UNL     1      -9.059  14.825  67.588  1.00  0.00    -0.185 C  
HETATM   32  C   UNL     1      -7.588  14.422  67.755  1.00  0.00    -0.164 C  
ENDBRANCH  24  26
ENDBRANCH  15  24
ENDBRANCH  13  15
ENDBRANCH   3  11
TORSDOF 5
ENDMDL
MODEL      219
REMARK 921   NORMALIZED FREE ENERGY PREDICTED BY IDOCK:   -3.63 KCAL/MOL
REMARK 922        TOTAL FREE ENERGY PREDICTED BY IDOCK:   -5.84 KCAL/MOL
REMARK 923 INTER-LIGAND FREE ENERGY PREDICTED BY IDOCK:   -5.05 KCAL/MOL
REMARK 924 INTRA-LIGAND FREE ENERGY PREDICTED BY IDOCK:   -0.79 KCAL/MOL
REMARK 927      BINDING AFFINITY PREDICTED BY RF-SCORE:    0.00 PKD
ROOT
HETATM    1  C   UNL     1      -7.680  15.806  68.306  1.00  0.00    -0.132 C  
HETATM    2  C   UNL     1      -8.524  14.764  67.606  1.00  0.00    -0.177 C  
HETATM    3  C   UNL     1      -9.398  13.893  68.563  1.00  0.00    -0.164 C  
HETATM    4  O   UNL     1      -8.901  17.078  65.640  1.00  0.00    -0.480 OA 
HETATM    5  C   UNL     1     -10.584  14.340  67.609  1.00  0.00    -0.253 C  
HETATM    6  N   UNL     1      -9.753  15.252  66.987  1.00  0.00    -0.223 N  
HETATM    7  O   UNL     1     -11.043  16.049  65.068  1.00  0.00    -0.390 OA 
HETATM    8  O   UNL     1     -10.835  17.423  67.111  1.00  0.00    -0.238 OA 
HETATM    9  O   UNL     1     -11.753  14.101  67.430  1.00  0.00    -0.349 OA 
HETATM   10  S   UNL     1     -10.188  16.574  66.120  1.00  0.00    -0.352 S  
ENDROOT
BRANCH   3  11
HETATM   11  N   UNL     1      -9.116  12.428  68.677  1.00  0.00    -0.392 N  
HETATM   12  O   UNL     1      -6.889  12.573  69.270  1.00  0.00    -0.091 OA 
HETATM   13  C   UNL     1      -7.906  11.913  69.105  1.00  0.00     0.212 C  
HETATM   14  H   UNL     1      -9.857  11.774  68.424  1.00  0.00     0.000 HD 
BRANCH  13  15
HETATM   15  C   UNL     1      -7.831  10.409  69.352  1.00  0.00    -0.161 C  
BRANCH  15  16
HETATM   16  C   UNL     1      -7.888   9.486  68.208  1.00  0.00    -0.086 A  
HETATM   17  C   UNL     1      -8.878   8.253  66.664  1.00  0.00    -0.144 A  
HETATM   18  N   UNL     1      -9.986   7.709  65.998  1.00  0.00    -0.376 NA 
HETATM   19  H2  UNL     1      -9.828   6.704  65.933  1.00  0.00     0.000 HD 
HETATM   20  C   UNL     1      -6.781   9.044  67.494  1.00  0.00    -0.069 A  
HETATM   21  H1  UNL     1     -10.957   7.837  66.285  1.00  0.00     0.000 HD 
HETATM   22  S   UNL     1      -7.270   8.041  66.187  1.00  0.00    -0.071 SA 
HETATM   23  N   UNL     1      -9.100   8.982  67.721  1.00  0.00    -0.134 NA 
ENDBRANCH  15  16
BRANCH  15  24
HETATM   24  N   UNL     1      -7.704   9.852  70.525  1.00  0.00    -0.369 NA 
HETATM   25  H   UNL     1      -7.291  10.320  71.332  1.00  0.00     0.000 HD 
BRANCH  24  26
HETATM   26  O   UNL     1      -8.198   8.546  70.553  1.00  0.00    -0.100 OA 
HETATM   27  O   UNL     1      -7.900   6.200  69.601  1.00  0.00    -0.098 OA 
HETATM   28  O   UNL     1      -6.915   5.315  71.416  1.00  0.00    -0.050 OA 
HETATM   29  C   UNL     1      -6.009   8.145  71.666  1.00  0.00    -0.037 C  
HETATM   30  C   UNL     1      -8.232   7.628  72.781  1.00  0.00    -0.158 C  
HETATM   31  C   UNL     1      -7.462   7.697  71.468  1.00  0.00    -0.079 C  
HETATM   32  C   UNL     1      -7.470   6.345  70.742  1.00  0.00    -0.087 C  
ENDBRANCH  24  26
ENDBRANCH  15  24
ENDBRANCH  13  15
ENDBRANCH   3  11
TORSDOF 5
ENDMDL
MODEL      220
REMARK 921   NORMALIZED FREE ENERGY PREDICTED BY IDOCK:   -3.55 KCAL/MOL
REMARK 922        TOTAL FREE ENERGY PREDICTED BY IDOCK:   -5.74 KCAL/MOL
REMARK 923 INTER-LIGAND FREE ENERGY PREDICTED BY IDOCK:   -4.61 KCAL/MOL
REMARK 924 INTRA-LIGAND FREE ENERGY PREDICTED BY IDOCK:   -1.13 KCAL/MOL
REMARK 927      BINDING AFFINITY PREDICTED BY RF-SCORE:    0.00 PKD
ROOT
HETATM    1  C   UNL     1     -10.088  13.278  68.406  1.00  0.00    -0.237 C  
HETATM    2  C   UNL     1      -9.733  12.277  67.330  1.00  0.00    -0.195 C  
HETATM    3  C   UNL     1     -10.561  10.954  67.382  1.00  0.00    -0.243 C  
HETATM    4  O   UNL     1      -9.618  14.834  65.654  1.00  0.00    -0.312 OA 
HETATM    5  C   UNL     1     -10.862  11.282  65.860  1.00  0.00    -0.202 C  
HETATM    6  N   UNL     1     -10.300  12.536  66.009  1.00  0.00    -0.251 N  
HETATM    7  O   UNL     1     -10.171  13.427  63.734  1.00  0.00    -0.116 OA 
HETATM    8  O   UNL     1     -11.949  14.165  65.284  1.00  0.00    -0.351 OA 
HETATM    9  O   UNL     1     -11.384  10.771  64.900  1.00  0.00     0.255 OA 
HETATM   10  S   UNL     1     -10.541  13.860  65.072  1.00  0.00    -0.424 S  
ENDROOT
BRANCH   3  11
HETATM   11  N   UNL     1      -9.861   9.667  67.686  1.00  0.00    -0.157 N  
HETATM   12  O   UNL     1      -9.087  10.212  69.793  1.00  0.00    -0.203 OA 
HETATM   13  C   UNL     1      -9.264   9.391  68.903  1.00  0.00    -0.140 C  
HETATM   14  H   UNL     1      -9.822   8.955  66.957  1.00  0.00     0.000 HD 
BRANCH  13  15
HETATM   15  C   UNL     1      -8.758   7.969  69.130  1.00  0.00    -0.137 C  
BRANCH  15  16
HETATM   16  C   UNL     1      -9.288   7.186  70.256  1.00  0.00    -0.155 A  
HETATM   17  C   UNL     1      -9.208   5.697  71.889  1.00  0.00    -0.145 A  
HETATM   18  N   UNL     1      -8.589   4.714  72.674  1.00  0.00    -0.114 NA 
HETATM   19  H2  UNL     1      -9.224   3.916  72.703  1.00  0.00     0.000 HD 
HETATM   20  C   UNL     1     -10.543   7.370  70.824  1.00  0.00    -0.223 A  
HETATM   21  H1  UNL     1      -7.655   4.341  72.508  1.00  0.00     0.000 HD 
HETATM   22  S   UNL     1     -10.757   6.315  72.164  1.00  0.00    -0.243 SA 
HETATM   23  N   UNL     1      -8.540   6.179  70.878  1.00  0.00    -0.131 NA 
ENDBRANCH  15  16
BRANCH  15  24
HETATM   24  N   UNL     1      -7.877   7.364  68.383  1.00  0.00    -0.120 NA 
HETATM   25  H   UNL     1      -7.062   6.872  68.752  1.00  0.00     0.000 HD 
BRANCH  24  26
HETATM   26  O   UNL     1      -8.171   7.464  67.021  1.00  0.00    -0.117 OA 
HETATM   27  O   UNL     1      -7.191   7.303  64.674  1.00  0.00    -0.065 OA 
HETATM   28  O   UNL     1      -8.046   5.285  64.181  1.00  0.00    -0.109 OA 
HETATM   29  C   UNL     1      -7.754   5.014  67.137  1.00  0.00    -0.092 C  
HETATM   30  C   UNL     1      -9.966   5.995  66.362  1.00  0.00    -0.145 C  
HETATM   31  C   UNL     1      -8.453   6.176  66.421  1.00  0.00    -0.123 C  
HETATM   32  C   UNL     1      -7.853   6.328  65.017  1.00  0.00    -0.111 C  
ENDBRANCH  24  26
ENDBRANCH  15  24
ENDBRANCH  13  15
ENDBRANCH   3  11
TORSDOF 5
ENDMDL
MODEL      221
REMARK 921   NORMALIZED FREE ENERGY PREDICTED BY IDOCK:   -3.55 KCAL/MOL
REMARK 922        TOTAL FREE ENERGY PREDICTED BY IDOCK:   -5.73 KCAL/MOL
REMARK 923 INTER-LIGAND FREE ENERGY PREDICTED BY IDOCK:   -4.72 KCAL/MOL
REMARK 924 INTRA-LIGAND FREE ENERGY PREDICTED BY IDOCK:   -1.02 KCAL/MOL
REMARK 927      BINDING AFFINITY PREDICTED BY RF-SCORE:    0.00 PKD
ROOT
HETATM    1  C   UNL     1     -10.031   9.899  65.799  1.00  0.00    -0.347 C  
HETATM    2  C   UNL     1     -10.254   9.039  67.023  1.00  0.00    -0.266 C  
HETATM    3  C   UNL     1      -8.958   8.386  67.597  1.00  0.00    -0.135 C  
HETATM    4  O   UNL     1     -12.149  11.341  67.710  1.00  0.00    -0.631 OA 
HETATM    5  C   UNL     1      -9.431   9.048  68.958  1.00  0.00    -0.155 C  
HETATM    6  N   UNL     1     -10.407   9.757  68.285  1.00  0.00    -0.188 N  
HETATM    7  O   UNL     1     -11.766  10.763  70.053  1.00  0.00    -0.277 OA 
HETATM    8  O   UNL     1     -10.098  12.106  68.819  1.00  0.00    -0.184 OA 
HETATM    9  O   UNL     1      -9.131   9.051  70.127  1.00  0.00    -0.160 OA 
HETATM   10  S   UNL     1     -11.171  11.123  68.776  1.00  0.00    -0.281 S  
ENDROOT
BRANCH   3  11
HETATM   11  N   UNL     1      -8.815   6.897  67.564  1.00  0.00    -0.119 N  
HETATM   12  O   UNL     1      -6.508   6.793  67.550  1.00  0.00    -0.042 OA 
HETATM   13  C   UNL     1      -7.599   6.243  67.631  1.00  0.00    -0.097 C  
HETATM   14  H   UNL     1      -9.662   6.334  67.488  1.00  0.00     0.000 HD 
BRANCH  13  15
HETATM   15  C   UNL     1      -7.624   4.724  67.779  1.00  0.00    -0.082 C  
BRANCH  15  16
HETATM   16  C   UNL     1      -7.789   3.885  66.583  1.00  0.00    -0.089 A  
HETATM   17  C   UNL     1      -8.913   2.711  65.085  1.00  0.00    -0.133 A  
HETATM   18  N   UNL     1     -10.072   2.153  64.527  1.00  0.00    -0.342 NA 
HETATM   19  H2  UNL     1      -9.875   1.165  64.362  1.00  0.00     0.000 HD 
HETATM   20  C   UNL     1      -6.766   3.562  65.699  1.00  0.00    -0.045 A  
HETATM   21  H1  UNL     1     -11.001   2.201  64.946  1.00  0.00     0.000 HD 
HETATM   22  S   UNL     1      -7.375   2.630  64.390  1.00  0.00    -0.063 SA 
HETATM   23  N   UNL     1      -9.028   3.347  66.217  1.00  0.00    -0.139 NA 
ENDBRANCH  15  16
BRANCH  15  24
HETATM   24  N   UNL     1      -7.499   4.084  68.909  1.00  0.00    -0.054 NA 
HETATM   25  H   UNL     1      -6.600   3.822  69.315  1.00  0.00     0.000 HD 
BRANCH  24  26
HETATM   26  O   UNL     1      -8.731   3.797  69.501  1.00  0.00    -0.070 OA 
HETATM   27  O   UNL     1      -9.931   2.258  71.140  1.00  0.00    -0.097 OA 
HETATM   28  O   UNL     1     -10.047   3.732  72.831  1.00  0.00    -0.143 OA 
HETATM   29  C   UNL     1      -7.541   4.661  71.508  1.00  0.00    -0.082 C  
HETATM   30  C   UNL     1      -9.678   5.712  70.619  1.00  0.00    -0.232 C  
HETATM   31  C   UNL     1      -8.880   4.425  70.798  1.00  0.00    -0.097 C  
HETATM   32  C   UNL     1      -9.679   3.376  71.582  1.00  0.00    -0.164 C  
ENDBRANCH  24  26
ENDBRANCH  15  24
ENDBRANCH  13  15
ENDBRANCH   3  11
TORSDOF 5
ENDMDL
MODEL      222
REMARK 921   NORMALIZED FREE ENERGY PREDICTED BY IDOCK:   -3.53 KCAL/MOL
REMARK 922        TOTAL FREE ENERGY PREDICTED BY IDOCK:   -5.70 KCAL/MOL
REMARK 923 INTER-LIGAND FREE ENERGY PREDICTED BY IDOCK:   -5.29 KCAL/MOL
REMARK 924 INTRA-LIGAND FREE ENERGY PREDICTED BY IDOCK:   -0.41 KCAL/MOL
REMARK 927      BINDING AFFINITY PREDICTED BY RF-SCORE:    0.00 PKD
ROOT
HETATM    1  C   UNL     1     -10.213  11.547  64.856  1.00  0.00    -0.324 C  
HETATM    2  C   UNL     1     -10.062  11.698  66.353  1.00  0.00    -0.214 C  
HETATM    3  C   UNL     1      -8.627  11.393  66.890  1.00  0.00    -0.154 C  
HETATM    4  O   UNL     1     -11.825  14.138  65.806  1.00  0.00    -0.355 OA 
HETATM    5  C   UNL     1      -8.759  12.823  67.562  1.00  0.00    -0.185 C  
HETATM    6  N   UNL     1      -9.914  13.066  66.842  1.00  0.00    -0.238 N  
HETATM    7  O   UNL     1     -10.809  15.134  67.794  1.00  0.00    -0.275 OA 
HETATM    8  O   UNL     1      -9.597  15.152  65.640  1.00  0.00    -0.334 OA 
HETATM    9  O   UNL     1      -8.163  13.527  68.339  1.00  0.00    -0.150 OA 
HETATM   10  S   UNL     1     -10.591  14.518  66.495  1.00  0.00    -0.304 S  
ENDROOT
BRANCH   3  11
HETATM   11  N   UNL     1      -8.422  10.219  67.795  1.00  0.00    -0.114 N  
HETATM   12  O   UNL     1     -10.542   9.318  67.641  1.00  0.00    -0.263 OA 
HETATM   13  C   UNL     1      -9.379   9.246  68.014  1.00  0.00    -0.133 C  
HETATM   14  H   UNL     1      -7.527  10.133  68.277  1.00  0.00     0.000 HD 
BRANCH  13  15
HETATM   15  C   UNL     1      -8.958   8.013  68.809  1.00  0.00    -0.141 C  
BRANCH  15  16
HETATM   16  C   UNL     1      -9.294   7.926  70.238  1.00  0.00    -0.159 A  
HETATM   17  C   UNL     1      -8.869   7.778  72.402  1.00  0.00    -0.142 A  
HETATM   18  N   UNL     1      -8.030   7.673  73.522  1.00  0.00    -0.127 NA 
HETATM   19  H2  UNL     1      -8.386   6.902  74.087  1.00  0.00     0.000 HD 
HETATM   20  C   UNL     1     -10.580   8.034  70.754  1.00  0.00    -0.214 A  
HETATM   21  H1  UNL     1      -7.017   7.565  73.481  1.00  0.00     0.000 HD 
HETATM   22  S   UNL     1     -10.547   7.958  72.471  1.00  0.00    -0.343 SA 
HETATM   23  N   UNL     1      -8.315   7.745  71.223  1.00  0.00    -0.101 NA 
ENDBRANCH  15  16
BRANCH  15  24
HETATM   24  N   UNL     1      -8.315   6.992  68.314  1.00  0.00    -0.123 NA 
HETATM   25  H   UNL     1      -7.309   6.985  68.142  1.00  0.00     0.000 HD 
BRANCH  24  26
HETATM   26  O   UNL     1      -9.155   5.909  68.047  1.00  0.00    -0.118 OA 
HETATM   27  O   UNL     1      -9.816   4.187  66.289  1.00  0.00    -0.203 OA 
HETATM   28  O   UNL     1      -8.733   2.451  67.216  1.00  0.00    -0.104 OA 
HETATM   29  C   UNL     1      -6.986   4.692  68.121  1.00  0.00    -0.056 C  
HETATM   30  C   UNL     1      -8.923   4.145  69.674  1.00  0.00    -0.160 C  
HETATM   31  C   UNL     1      -8.510   4.635  68.290  1.00  0.00    -0.097 C  
HETATM   32  C   UNL     1      -9.099   3.750  67.185  1.00  0.00    -0.159 C  
ENDBRANCH  24  26
ENDBRANCH  15  24
ENDBRANCH  13  15
ENDBRANCH   3  11
TORSDOF 5
ENDMDL
MODEL      223
REMARK 921   NORMALIZED FREE ENERGY PREDICTED BY IDOCK:   -3.52 KCAL/MOL
REMARK 922        TOTAL FREE ENERGY PREDICTED BY IDOCK:   -5.70 KCAL/MOL
REMARK 923 INTER-LIGAND FREE ENERGY PREDICTED BY IDOCK:   -5.22 KCAL/MOL
REMARK 924 INTRA-LIGAND FREE ENERGY PREDICTED BY IDOCK:   -0.49 KCAL/MOL
REMARK 927      BINDING AFFINITY PREDICTED BY RF-SCORE:    0.00 PKD
ROOT
HETATM    1  C   UNL     1      -5.872   5.892  66.647  1.00  0.00    -0.018 C  
HETATM    2  C   UNL     1      -7.127   6.541  66.110  1.00  0.00    -0.067 C  
HETATM    3  C   UNL     1      -6.875   7.820  65.250  1.00  0.00    -0.051 C  
HETATM    4  O   UNL     1      -7.887   3.610  65.676  1.00  0.00    -0.090 OA 
HETATM    5  C   UNL     1      -7.764   7.065  64.175  1.00  0.00    -0.117 C  
HETATM    6  N   UNL     1      -7.716   5.910  64.932  1.00  0.00    -0.091 N  
HETATM    7  O   UNL     1      -9.311   4.400  63.854  1.00  0.00    -0.155 OA 
HETATM    8  O   UNL     1      -6.879   4.135  63.502  1.00  0.00    -0.041 OA 
HETATM    9  O   UNL     1      -8.281   7.275  63.106  1.00  0.00    -0.064 OA 
HETATM   10  S   UNL     1      -7.976   4.371  64.430  1.00  0.00    -0.094 S  
ENDROOT
BRANCH   3  11
HETATM   11  N   UNL     1      -7.366   9.142  65.748  1.00  0.00    -0.089 N  
HETATM   12  O   UNL     1      -9.472   8.473  66.421  1.00  0.00    -0.197 OA 
HETATM   13  C   UNL     1      -8.591   9.320  66.366  1.00  0.00    -0.131 C  
HETATM   14  H   UNL     1      -6.765   9.957  65.624  1.00  0.00     0.000 HD 
BRANCH  13  15
HETATM   15  C   UNL     1      -8.871  10.685  66.990  1.00  0.00    -0.137 C  
BRANCH  15  16
HETATM   16  C   UNL     1      -7.772  11.426  67.628  1.00  0.00    -0.121 A  
HETATM   17  C   UNL     1      -6.513  12.107  69.312  1.00  0.00    -0.111 A  
HETATM   18  N   UNL     1      -6.140  12.181  70.662  1.00  0.00    -0.523 NA 
HETATM   19  H2  UNL     1      -6.032  13.171  70.885  1.00  0.00     0.000 HD 
HETATM   20  C   UNL     1      -6.804  12.148  66.940  1.00  0.00     0.007 A  
HETATM   21  H1  UNL     1      -6.659  11.761  71.433  1.00  0.00     0.000 HD 
HETATM   22  S   UNL     1      -5.653  12.803  68.036  1.00  0.00    -0.108 SA 
HETATM   23  N   UNL     1      -7.597  11.445  69.017  1.00  0.00    -0.114 NA 
ENDBRANCH  15  16
BRANCH  15  24
HETATM   24  N   UNL     1     -10.034  11.275  66.998  1.00  0.00    -0.195 NA 
HETATM   25  H   UNL     1     -10.668  11.267  67.797  1.00  0.00     0.000 HD 
BRANCH  24  26
HETATM   26  O   UNL     1     -10.314  11.920  65.791  1.00  0.00    -0.232 OA 
HETATM   27  O   UNL     1     -12.046  12.184  63.940  1.00  0.00    -0.437 OA 
HETATM   28  O   UNL     1     -12.808  14.194  64.592  1.00  0.00    -0.663 OA 
HETATM   29  C   UNL     1     -11.984  13.074  67.230  1.00  0.00    -0.379 C  
HETATM   30  C   UNL     1     -10.158  14.318  65.975  1.00  0.00    -0.333 C  
HETATM   31  C   UNL     1     -11.102  13.121  65.976  1.00  0.00    -0.280 C  
HETATM   32  C   UNL     1     -12.004  13.119  64.735  1.00  0.00    -0.388 C  
ENDBRANCH  24  26
ENDBRANCH  15  24
ENDBRANCH  13  15
ENDBRANCH   3  11
TORSDOF 5
ENDMDL
MODEL      224
REMARK 921   NORMALIZED FREE ENERGY PREDICTED BY IDOCK:   -3.48 KCAL/MOL
REMARK 922        TOTAL FREE ENERGY PREDICTED BY IDOCK:   -5.65 KCAL/MOL
REMARK 923 INTER-LIGAND FREE ENERGY PREDICTED BY IDOCK:   -4.46 KCAL/MOL
REMARK 924 INTRA-LIGAND FREE ENERGY PREDICTED BY IDOCK:   -1.18 KCAL/MOL
REMARK 927      BINDING AFFINITY PREDICTED BY RF-SCORE:    0.00 PKD
ROOT
HETATM    1  C   UNL     1      -8.792  14.629  68.206  1.00  0.00    -0.176 C  
HETATM    2  C   UNL     1      -9.907  13.611  68.126  1.00  0.00    -0.236 C  
HETATM    3  C   UNL     1      -9.582  12.243  68.806  1.00  0.00     0.062 C  
HETATM    4  O   UNL     1     -11.584  16.105  68.700  1.00  0.00    -0.376 OA 
HETATM    5  C   UNL     1     -10.945  12.495  69.576  1.00  0.00     0.093 C  
HETATM    6  N   UNL     1     -10.997  13.785  69.082  1.00  0.00    -0.237 N  
HETATM    7  O   UNL     1     -13.218  14.595  69.711  1.00  0.00     0.268 OA 
HETATM    8  O   UNL     1     -11.214  15.282  70.982  1.00  0.00    -0.330 OA 
HETATM    9  O   UNL     1     -11.691  11.917  70.327  1.00  0.00    -0.303 OA 
HETATM   10  S   UNL     1     -11.839  15.055  69.686  1.00  0.00    -0.338 S  
ENDROOT
BRANCH   3  11
HETATM   11  N   UNL     1      -9.482  11.014  67.959  1.00  0.00    -0.162 N  
HETATM   12  O   UNL     1      -7.317  11.311  67.212  1.00  0.00    -0.107 OA 
HETATM   13  C   UNL     1      -8.324  10.623  67.311  1.00  0.00    -0.120 C  
HETATM   14  H   UNL     1     -10.314  10.432  67.854  1.00  0.00     0.000 HD 
BRANCH  13  15
HETATM   15  C   UNL     1      -8.322   9.250  66.644  1.00  0.00    -0.122 C  
BRANCH  15  16
HETATM   16  C   UNL     1      -8.410   9.160  65.178  1.00  0.00    -0.154 A  
HETATM   17  C   UNL     1      -8.510   8.128  63.227  1.00  0.00     0.096 A  
HETATM   18  N   UNL     1      -8.522   7.001  62.391  1.00  0.00    -0.356 NA 
HETATM   19  H2  UNL     1      -7.829   7.168  61.661  1.00  0.00     0.000 HD 
HETATM   20  C   UNL     1      -8.603  10.245  64.331  1.00  0.00    -0.187 A  
HETATM   21  H1  UNL     1      -8.390   6.041  62.708  1.00  0.00     0.000 HD 
HETATM   22  S   UNL     1      -8.729   9.719  62.700  1.00  0.00    -0.246 SA 
HETATM   23  N   UNL     1      -8.327   7.937  64.503  1.00  0.00    -0.073 NA 
ENDBRANCH  15  16
BRANCH  15  24
HETATM   24  N   UNL     1      -8.234   8.114  67.278  1.00  0.00    -0.120 NA 
HETATM   25  H   UNL     1      -7.428   7.491  67.216  1.00  0.00     0.000 HD 
BRANCH  24  26
HETATM   26  O   UNL     1      -9.366   7.844  68.051  1.00  0.00    -0.144 OA 
HETATM   27  O   UNL     1     -11.183   6.123  68.529  1.00  0.00    -0.341 OA 
HETATM   28  O   UNL     1     -10.321   5.377  70.465  1.00  0.00    -0.243 OA 
HETATM   29  C   UNL     1      -7.816   6.180  69.060  1.00  0.00    -0.100 C  
HETATM   30  C   UNL     1      -8.925   8.022  70.414  1.00  0.00    -0.146 C  
HETATM   31  C   UNL     1      -9.055   7.067  69.233  1.00  0.00    -0.137 C  
HETATM   32  C   UNL     1     -10.292   6.170  69.373  1.00  0.00    -0.227 C  
ENDBRANCH  24  26
ENDBRANCH  15  24
ENDBRANCH  13  15
ENDBRANCH   3  11
TORSDOF 5
ENDMDL
MODEL      225
REMARK 921   NORMALIZED FREE ENERGY PREDICTED BY IDOCK:   -3.47 KCAL/MOL
REMARK 922        TOTAL FREE ENERGY PREDICTED BY IDOCK:   -5.63 KCAL/MOL
REMARK 923 INTER-LIGAND FREE ENERGY PREDICTED BY IDOCK:   -5.95 KCAL/MOL
REMARK 924 INTRA-LIGAND FREE ENERGY PREDICTED BY IDOCK:    0.31 KCAL/MOL
REMARK 927      BINDING AFFINITY PREDICTED BY RF-SCORE:    0.00 PKD
ROOT
HETATM    1  C   UNL     1      -9.750  10.918  63.654  1.00  0.00    -0.374 C  
HETATM    2  C   UNL     1     -10.298  11.134  65.047  1.00  0.00    -0.301 C  
HETATM    3  C   UNL     1      -9.245  11.637  66.084  1.00  0.00    -0.219 C  
HETATM    4  O   UNL     1     -12.638  12.269  63.435  1.00  0.00    -0.682 OA 
HETATM    5  C   UNL     1     -10.306  12.784  66.351  1.00  0.00    -0.258 C  
HETATM    6  N   UNL     1     -11.039  12.376  65.253  1.00  0.00    -0.294 N  
HETATM    7  O   UNL     1     -13.115  13.662  65.385  1.00  0.00    -0.704 OA 
HETATM    8  O   UNL     1     -11.325  14.308  63.809  1.00  0.00     0.153 OA 
HETATM    9  O   UNL     1     -10.489  13.701  67.113  1.00  0.00    -0.261 OA 
HETATM   10  S   UNL     1     -12.132  13.248  64.397  1.00  0.00    -0.420 S  
ENDROOT
BRANCH   3  11
HETATM   11  N   UNL     1      -8.875  10.754  67.234  1.00  0.00    -0.133 N  
HETATM   12  O   UNL     1     -10.574   9.206  67.012  1.00  0.00    -0.253 OA 
HETATM   13  C   UNL     1      -9.529   9.573  67.533  1.00  0.00    -0.130 C  
HETATM   14  H   UNL     1      -8.098  11.040  67.830  1.00  0.00     0.000 HD 
BRANCH  13  15
HETATM   15  C   UNL     1      -8.920   8.687  68.616  1.00  0.00    -0.142 C  
BRANCH  15  16
HETATM   16  C   UNL     1      -9.775   7.725  69.327  1.00  0.00    -0.165 A  
HETATM   17  C   UNL     1     -11.456   7.093  70.616  1.00  0.00    -0.308 A  
HETATM   18  N   UNL     1     -12.571   7.313  71.438  1.00  0.00    -0.373 NA 
HETATM   19  H2  UNL     1     -12.419   6.776  72.292  1.00  0.00     0.000 HD 
HETATM   20  C   UNL     1      -9.667   6.343  69.220  1.00  0.00    -0.136 A  
HETATM   21  H1  UNL     1     -12.911   8.231  71.723  1.00  0.00     0.000 HD 
HETATM   22  S   UNL     1     -10.894   5.572  70.143  1.00  0.00    -0.124 SA 
HETATM   23  N   UNL     1     -10.810   8.136  70.176  1.00  0.00    -0.245 NA 
ENDBRANCH  15  16
BRANCH  15  24
HETATM   24  N   UNL     1      -7.665   8.701  68.970  1.00  0.00    -0.094 NA 
HETATM   25  H   UNL     1      -6.983   9.372  68.616  1.00  0.00     0.000 HD 
BRANCH  24  26
HETATM   26  O   UNL     1      -7.357   7.693  69.887  1.00  0.00    -0.077 OA 
HETATM   27  O   UNL     1      -5.484   6.222  70.794  1.00  0.00    -0.017 OA 
HETATM   28  O   UNL     1      -5.188   7.347  72.716  1.00  0.00    -0.037 OA 
HETATM   29  C   UNL     1      -6.119   9.568  70.957  1.00  0.00    -0.080 C  
HETATM   30  C   UNL     1      -7.968   8.289  72.141  1.00  0.00    -0.186 C  
HETATM   31  C   UNL     1      -6.830   8.220  71.130  1.00  0.00    -0.052 C  
HETATM   32  C   UNL     1      -5.794   7.159  71.525  1.00  0.00    -0.037 C  
ENDBRANCH  24  26
ENDBRANCH  15  24
ENDBRANCH  13  15
ENDBRANCH   3  11
TORSDOF 5
ENDMDL
MODEL      226
REMARK 921   NORMALIZED FREE ENERGY PREDICTED BY IDOCK:   -3.46 KCAL/MOL
REMARK 922        TOTAL FREE ENERGY PREDICTED BY IDOCK:   -5.61 KCAL/MOL
REMARK 923 INTER-LIGAND FREE ENERGY PREDICTED BY IDOCK:   -4.82 KCAL/MOL
REMARK 924 INTRA-LIGAND FREE ENERGY PREDICTED BY IDOCK:   -0.79 KCAL/MOL
REMARK 927      BINDING AFFINITY PREDICTED BY RF-SCORE:    0.00 PKD
ROOT
HETATM    1  C   UNL     1      -9.132  10.245  64.040  1.00  0.00    -0.283 C  
HETATM    2  C   UNL     1      -9.997  10.290  65.279  1.00  0.00    -0.317 C  
HETATM    3  C   UNL     1      -9.205  10.204  66.622  1.00  0.00    -0.155 C  
HETATM    4  O   UNL     1     -11.446  12.407  63.613  1.00  0.00    -0.414 OA 
HETATM    5  C   UNL     1     -10.009  11.523  66.984  1.00  0.00    -0.200 C  
HETATM    6  N   UNL     1     -10.464  11.614  65.682  1.00  0.00    -0.259 N  
HETATM    7  O   UNL     1     -12.141  13.393  65.739  1.00  0.00    -0.386 OA 
HETATM    8  O   UNL     1      -9.872  13.820  64.856  1.00  0.00    -0.212 OA 
HETATM    9  O   UNL     1     -10.193  12.252  67.926  1.00  0.00    -0.191 OA 
HETATM   10  S   UNL     1     -11.034  12.943  64.910  1.00  0.00    -0.317 S  
ENDROOT
BRANCH   3  11
HETATM   11  N   UNL     1      -9.395   9.013  67.507  1.00  0.00    -0.135 N  
HETATM   12  O   UNL     1      -7.525   7.825  66.857  1.00  0.00    -0.090 OA 
HETATM   13  C   UNL     1      -8.486   7.975  67.600  1.00  0.00    -0.131 C  
HETATM   14  H   UNL     1     -10.243   8.964  68.073  1.00  0.00     0.000 HD 
BRANCH  13  15
HETATM   15  C   UNL     1      -8.724   6.927  68.683  1.00  0.00    -0.122 C  
BRANCH  15  16
HETATM   16  C   UNL     1      -8.697   7.331  70.097  1.00  0.00    -0.140 A  
HETATM   17  C   UNL     1      -9.497   7.542  72.147  1.00  0.00    -0.147 A  
HETATM   18  N   UNL     1     -10.473   7.401  73.144  1.00  0.00    -0.319 NA 
HETATM   19  H2  UNL     1     -10.575   8.314  73.588  1.00  0.00     0.000 HD 
HETATM   20  C   UNL     1      -7.591   7.871  70.742  1.00  0.00    -0.078 A  
HETATM   21  H1  UNL     1     -11.414   7.041  72.989  1.00  0.00     0.000 HD 
HETATM   22  S   UNL     1      -7.936   8.137  72.405  1.00  0.00    -0.141 SA 
HETATM   23  N   UNL     1      -9.809   7.179  70.935  1.00  0.00    -0.181 NA 
ENDBRANCH  15  16
BRANCH  15  24
HETATM   24  N   UNL     1      -8.969   5.666  68.458  1.00  0.00    -0.115 NA 
HETATM   25  H   UNL     1      -9.796   5.178  68.803  1.00  0.00     0.000 HD 
BRANCH  24  26
HETATM   26  O   UNL     1      -7.972   5.057  67.691  1.00  0.00    -0.094 OA 
HETATM   27  O   UNL     1      -6.556   2.954  67.431  1.00  0.00    -0.036 OA 
HETATM   28  O   UNL     1      -7.693   2.098  65.693  1.00  0.00    -0.070 OA 
HETATM   29  C   UNL     1      -9.883   3.596  67.053  1.00  0.00     0.031 C  
HETATM   30  C   UNL     1      -8.555   4.942  65.355  1.00  0.00    -0.138 C  
HETATM   31  C   UNL     1      -8.516   4.179  66.675  1.00  0.00    -0.104 C  
HETATM   32  C   UNL     1      -7.485   3.043  66.634  1.00  0.00    -0.075 C  
ENDBRANCH  24  26
ENDBRANCH  15  24
ENDBRANCH  13  15
ENDBRANCH   3  11
TORSDOF 5
ENDMDL
MODEL      227
REMARK 921   NORMALIZED FREE ENERGY PREDICTED BY IDOCK:   -3.36 KCAL/MOL
REMARK 922        TOTAL FREE ENERGY PREDICTED BY IDOCK:   -5.49 KCAL/MOL
REMARK 923 INTER-LIGAND FREE ENERGY PREDICTED BY IDOCK:   -4.59 KCAL/MOL
REMARK 924 INTRA-LIGAND FREE ENERGY PREDICTED BY IDOCK:   -0.89 KCAL/MOL
REMARK 927      BINDING AFFINITY PREDICTED BY RF-SCORE:    0.00 PKD
ROOT
HETATM    1  C   UNL     1      -9.368  11.104  66.414  1.00  0.00    -0.207 C  
HETATM    2  C   UNL     1      -9.172   9.802  67.156  1.00  0.00    -0.138 C  
HETATM    3  C   UNL     1     -10.466   8.940  67.299  1.00  0.00    -0.277 C  
HETATM    4  O   UNL     1      -6.596   9.798  65.506  1.00  0.00    -0.076 OA 
HETATM    5  C   UNL     1      -9.568   7.794  66.671  1.00  0.00    -0.220 C  
HETATM    6  N   UNL     1      -8.577   8.714  66.386  1.00  0.00    -0.114 N  
HETATM    7  O   UNL     1      -6.671   7.360  65.666  1.00  0.00    -0.047 OA 
HETATM    8  O   UNL     1      -8.082   8.538  64.015  1.00  0.00    -0.153 OA 
HETATM    9  O   UNL     1      -9.623   6.611  66.442  1.00  0.00    -0.161 OA 
HETATM   10  S   UNL     1      -7.370   8.576  65.284  1.00  0.00    -0.086 S  
ENDROOT
BRANCH   3  11
HETATM   11  N   UNL     1     -11.038   8.703  68.661  1.00  0.00    -0.396 N  
HETATM   12  O   UNL     1      -9.251   7.556  69.567  1.00  0.00    -0.147 OA 
HETATM   13  C   UNL     1     -10.336   8.107  69.693  1.00  0.00    -0.221 C  
HETATM   14  H   UNL     1     -11.999   8.998  68.838  1.00  0.00     0.000 HD 
BRANCH  13  15
HETATM   15  C   UNL     1     -10.983   8.107  71.075  1.00  0.00    -0.244 C  
BRANCH  15  16
HETATM   16  C   UNL     1     -10.706   6.999  72.002  1.00  0.00    -0.215 A  
HETATM   17  C   UNL     1      -9.548   5.885  73.519  1.00  0.00    -0.141 A  
HETATM   18  N   UNL     1      -8.451   5.671  74.367  1.00  0.00    -0.108 NA 
HETATM   19  H2  UNL     1      -8.132   4.716  74.202  1.00  0.00     0.000 HD 
HETATM   20  C   UNL     1     -11.587   5.960  72.275  1.00  0.00    -0.282 A  
HETATM   21  H1  UNL     1      -7.618   6.258  74.399  1.00  0.00     0.000 HD 
HETATM   22  S   UNL     1     -10.928   4.911  73.466  1.00  0.00    -0.329 SA 
HETATM   23  N   UNL     1      -9.507   6.913  72.719  1.00  0.00    -0.141 NA 
ENDBRANCH  15  16
BRANCH  15  24
HETATM   24  N   UNL     1     -11.777   9.039  71.525  1.00  0.00    -0.319 NA 
HETATM   25  H   UNL     1     -12.630   8.850  72.053  1.00  0.00     0.000 HD 
BRANCH  24  26
HETATM   26  O   UNL     1     -11.331  10.323  71.205  1.00  0.00    -0.314 OA 
HETATM   27  O   UNL     1     -10.606  11.845  69.294  1.00  0.00    -0.121 OA 
HETATM   28  O   UNL     1     -12.505  13.042  69.191  1.00  0.00    -0.003 OA 
HETATM   29  C   UNL     1     -13.587  10.439  70.163  1.00  0.00     0.845 C  
HETATM   30  C   UNL     1     -12.833  12.037  71.989  1.00  0.00    -0.251 C  
HETATM   31  C   UNL     1     -12.410  11.196  70.790  1.00  0.00    -0.406 C  
HETATM   32  C   UNL     1     -11.742  12.057  69.710  1.00  0.00    -0.319 C  
ENDBRANCH  24  26
ENDBRANCH  15  24
ENDBRANCH  13  15
ENDBRANCH   3  11
TORSDOF 5
ENDMDL
MODEL      228
REMARK 921   NORMALIZED FREE ENERGY PREDICTED BY IDOCK:   -3.35 KCAL/MOL
REMARK 922        TOTAL FREE ENERGY PREDICTED BY IDOCK:   -5.48 KCAL/MOL
REMARK 923 INTER-LIGAND FREE ENERGY PREDICTED BY IDOCK:   -4.68 KCAL/MOL
REMARK 924 INTRA-LIGAND FREE ENERGY PREDICTED BY IDOCK:   -0.80 KCAL/MOL
REMARK 927      BINDING AFFINITY PREDICTED BY RF-SCORE:    0.00 PKD
ROOT
HETATM    1  C   UNL     1      -8.028  15.688  67.309  1.00  0.00    -0.227 C  
HETATM    2  C   UNL     1      -9.035  15.057  66.374  1.00  0.00    -0.251 C  
HETATM    3  C   UNL     1     -10.024  14.065  67.065  1.00  0.00    -0.257 C  
HETATM    4  O   UNL     1      -9.067  17.903  65.253  1.00  0.00     0.548 OA 
HETATM    5  C   UNL     1     -11.136  14.959  66.374  1.00  0.00    -0.342 C  
HETATM    6  N   UNL     1     -10.180  15.890  66.016  1.00  0.00    -0.312 N  
HETATM    7  O   UNL     1     -11.352  17.433  64.523  1.00  0.00    -0.947 OA 
HETATM    8  O   UNL     1     -10.902  18.043  66.875  1.00  0.00    -0.254 OA 
HETATM    9  O   UNL     1     -12.330  14.963  66.203  1.00  0.00    -0.041 OA 
HETATM   10  S   UNL     1     -10.411  17.467  65.631  1.00  0.00    -0.005 S  
ENDROOT
BRANCH   3  11
HETATM   11  N   UNL     1      -9.976  12.615  66.700  1.00  0.00    -0.237 N  
HETATM   12  O   UNL     1      -7.693  12.313  66.876  1.00  0.00    -0.118 OA 
HETATM   13  C   UNL     1      -8.819  11.858  66.726  1.00  0.00    -0.193 C  
HETATM   14  H   UNL     1     -10.844  12.160  66.417  1.00  0.00     0.000 HD 
BRANCH  13  15
HETATM   15  C   UNL     1      -8.960  10.352  66.514  1.00  0.00    -0.145 C  
BRANCH  15  16
HETATM   16  C   UNL     1      -9.197   9.480  67.674  1.00  0.00    -0.124 A  
HETATM   17  C   UNL     1      -9.774   9.008  69.755  1.00  0.00    -0.175 A  
HETATM   18  N   UNL     1     -10.200   9.328  71.052  1.00  0.00    -0.297 NA 
HETATM   19  H2  UNL     1      -9.555   8.870  71.697  1.00  0.00     0.000 HD 
HETATM   20  C   UNL     1      -9.121   8.092  67.646  1.00  0.00    -0.134 A  
HETATM   21  H1  UNL     1     -10.341  10.276  71.401  1.00  0.00     0.000 HD 
HETATM   22  S   UNL     1      -9.542   7.437  69.178  1.00  0.00    -0.157 SA 
HETATM   23  N   UNL     1      -9.549   9.991  68.929  1.00  0.00    -0.173 NA 
ENDBRANCH  15  16
BRANCH  15  24
HETATM   24  N   UNL     1      -8.897   9.754  65.357  1.00  0.00    -0.157 NA 
HETATM   25  H   UNL     1      -9.621   9.128  65.003  1.00  0.00     0.000 HD 
BRANCH  24  26
HETATM   26  O   UNL     1      -7.729  10.066  64.657  1.00  0.00    -0.138 OA 
HETATM   27  O   UNL     1      -5.203   9.738  64.595  1.00  0.00    -0.055 OA 
HETATM   28  O   UNL     1      -5.184   8.233  62.927  1.00  0.00    -0.061 OA 
HETATM   29  C   UNL     1      -7.847   7.637  64.130  1.00  0.00    -0.133 C  
HETATM   30  C   UNL     1      -7.859   9.434  62.334  1.00  0.00    -0.122 C  
HETATM   31  C   UNL     1      -7.357   9.030  63.715  1.00  0.00    -0.101 C  
HETATM   32  C   UNL     1      -5.824   9.057  63.784  1.00  0.00    -0.072 C  
ENDBRANCH  24  26
ENDBRANCH  15  24
ENDBRANCH  13  15
ENDBRANCH   3  11
TORSDOF 5
ENDMDL
MODEL      229
REMARK 921   NORMALIZED FREE ENERGY PREDICTED BY IDOCK:   -3.34 KCAL/MOL
REMARK 922        TOTAL FREE ENERGY PREDICTED BY IDOCK:   -5.46 KCAL/MOL
REMARK 923 INTER-LIGAND FREE ENERGY PREDICTED BY IDOCK:   -4.93 KCAL/MOL
REMARK 924 INTRA-LIGAND FREE ENERGY PREDICTED BY IDOCK:   -0.53 KCAL/MOL
REMARK 927      BINDING AFFINITY PREDICTED BY RF-SCORE:    0.00 PKD
ROOT
HETATM    1  C   UNL     1     -10.356  13.991  65.934  1.00  0.00    -0.327 C  
HETATM    2  C   UNL     1      -9.819  13.585  67.288  1.00  0.00    -0.237 C  
HETATM    3  C   UNL     1      -8.261  13.529  67.373  1.00  0.00    -0.181 C  
HETATM    4  O   UNL     1     -12.093  15.411  68.210  1.00  0.00    -0.191 OA 
HETATM    5  C   UNL     1      -8.466  14.478  68.628  1.00  0.00    -0.161 C  
HETATM    6  N   UNL     1      -9.801  14.632  68.305  1.00  0.00    -0.216 N  
HETATM    7  O   UNL     1     -10.765  15.804  70.223  1.00  0.00    -0.315 OA 
HETATM    8  O   UNL     1     -10.238  17.015  68.134  1.00  0.00    -0.288 OA 
HETATM    9  O   UNL     1      -7.818  14.964  69.521  1.00  0.00    -0.174 OA 
HETATM   10  S   UNL     1     -10.811  15.837  68.770  1.00  0.00    -0.294 S  
ENDROOT
BRANCH   3  11
HETATM   11  N   UNL     1      -7.590  12.212  67.603  1.00  0.00    -0.129 N  
HETATM   12  O   UNL     1      -9.319  11.158  68.714  1.00  0.00    -0.181 OA 
HETATM   13  C   UNL     1      -8.219  11.123  68.178  1.00  0.00    -0.131 C  
HETATM   14  H   UNL     1      -6.614  12.113  67.322  1.00  0.00     0.000 HD 
BRANCH  13  15
HETATM   15  C   UNL     1      -7.468   9.794  68.172  1.00  0.00    -0.081 C  
BRANCH  15  16
HETATM   16  C   UNL     1      -7.106   9.164  69.451  1.00  0.00    -0.053 A  
HETATM   17  C   UNL     1      -7.321   8.708  71.603  1.00  0.00    -0.093 A  
HETATM   18  N   UNL     1      -7.926   8.814  72.864  1.00  0.00    -0.385 NA 
HETATM   19  H2  UNL     1      -7.183   9.019  73.532  1.00  0.00     0.000 HD 
HETATM   20  C   UNL     1      -6.093   8.226  69.610  1.00  0.00    -0.029 A  
HETATM   21  H1  UNL     1      -8.702   9.437  73.086  1.00  0.00     0.000 HD 
HETATM   22  S   UNL     1      -6.036   7.674  71.236  1.00  0.00    -0.035 SA 
HETATM   23  N   UNL     1      -7.787   9.452  70.640  1.00  0.00    -0.183 NA 
ENDBRANCH  15  16
BRANCH  15  24
HETATM   24  N   UNL     1      -7.117   9.142  67.099  1.00  0.00    -0.082 NA 
HETATM   25  H   UNL     1      -6.751   8.189  67.109  1.00  0.00     0.000 HD 
BRANCH  24  26
HETATM   26  O   UNL     1      -7.298   9.891  65.934  1.00  0.00    -0.099 OA 
HETATM   27  O   UNL     1      -6.631  10.101  63.483  1.00  0.00    -0.133 OA 
HETATM   28  O   UNL     1      -8.541   9.280  62.631  1.00  0.00    -0.197 OA 
HETATM   29  C   UNL     1      -8.457   7.808  65.224  1.00  0.00    -0.099 C  
HETATM   30  C   UNL     1      -9.619  10.066  65.308  1.00  0.00    -0.355 C  
HETATM   31  C   UNL     1      -8.309   9.326  65.064  1.00  0.00    -0.154 C  
HETATM   32  C   UNL     1      -7.748   9.626  63.668  1.00  0.00    -0.129 C  
ENDBRANCH  24  26
ENDBRANCH  15  24
ENDBRANCH  13  15
ENDBRANCH   3  11
TORSDOF 5
ENDMDL
MODEL      230
REMARK 921   NORMALIZED FREE ENERGY PREDICTED BY IDOCK:   -3.32 KCAL/MOL
REMARK 922        TOTAL FREE ENERGY PREDICTED BY IDOCK:   -5.44 KCAL/MOL
REMARK 923 INTER-LIGAND FREE ENERGY PREDICTED BY IDOCK:   -4.36 KCAL/MOL
REMARK 924 INTRA-LIGAND FREE ENERGY PREDICTED BY IDOCK:   -1.08 KCAL/MOL
REMARK 927      BINDING AFFINITY PREDICTED BY RF-SCORE:    0.00 PKD
ROOT
HETATM    1  C   UNL     1      -9.198  11.499  66.135  1.00  0.00    -0.230 C  
HETATM    2  C   UNL     1      -9.014  11.415  67.633  1.00  0.00    -0.140 C  
HETATM    3  C   UNL     1      -7.789  10.560  68.086  1.00  0.00    -0.109 C  
HETATM    4  O   UNL     1      -9.783  14.369  67.414  1.00  0.00    -0.215 OA 
HETATM    5  C   UNL     1      -7.405  11.858  68.914  1.00  0.00    -0.080 C  
HETATM    6  N   UNL     1      -8.391  12.576  68.263  1.00  0.00    -0.171 N  
HETATM    7  O   UNL     1      -8.494  14.705  69.463  1.00  0.00     0.014 OA 
HETATM    8  O   UNL     1      -7.338  14.534  67.285  1.00  0.00    -0.189 OA 
HETATM    9  O   UNL     1      -6.603  12.210  69.742  1.00  0.00    -0.091 OA 
HETATM   10  S   UNL     1      -8.500  14.204  68.098  1.00  0.00    -0.182 S  
ENDROOT
BRANCH   3  11
HETATM   11  N   UNL     1      -8.024   9.296  68.851  1.00  0.00    -0.097 N  
HETATM   12  O   UNL     1      -9.424   8.258  67.335  1.00  0.00    -0.144 OA 
HETATM   13  C   UNL     1      -8.753   8.229  68.359  1.00  0.00    -0.133 C  
HETATM   14  H   UNL     1      -7.626   9.218  69.787  1.00  0.00     0.000 HD 
BRANCH  13  15
HETATM   15  C   UNL     1      -8.746   6.938  69.173  1.00  0.00    -0.135 C  
BRANCH  15  16
HETATM   16  C   UNL     1      -8.397   5.671  68.514  1.00  0.00    -0.106 A  
HETATM   17  C   UNL     1      -8.764   3.625  67.759  1.00  0.00    -0.106 A  
HETATM   18  N   UNL     1      -9.539   2.477  67.546  1.00  0.00    -0.397 NA 
HETATM   19  H2  UNL     1      -8.983   1.682  67.861  1.00  0.00     0.000 HD 
HETATM   20  C   UNL     1      -7.191   5.422  67.870  1.00  0.00    -0.072 A  
HETATM   21  H1  UNL     1     -10.483   2.337  67.906  1.00  0.00     0.000 HD 
HETATM   22  S   UNL     1      -7.200   3.856  67.161  1.00  0.00    -0.068 SA 
HETATM   23  N   UNL     1      -9.287   4.591  68.462  1.00  0.00    -0.134 NA 
ENDBRANCH  15  16
BRANCH  15  24
HETATM   24  N   UNL     1      -9.020   6.859  70.446  1.00  0.00    -0.152 NA 
HETATM   25  H   UNL     1      -8.575   6.196  71.082  1.00  0.00     0.000 HD 
BRANCH  24  26
HETATM   26  O   UNL     1      -9.990   7.783  70.842  1.00  0.00    -0.183 OA 
HETATM   27  O   UNL     1     -12.324   8.677  70.341  1.00  0.00     0.168 OA 
HETATM   28  O   UNL     1     -13.362   7.638  72.041  1.00  0.00    -0.261 OA 
HETATM   29  C   UNL     1     -11.163   5.694  71.514  1.00  0.00    -0.182 C  
HETATM   30  C   UNL     1     -10.592   7.540  73.164  1.00  0.00    -0.442 C  
HETATM   31  C   UNL     1     -10.978   7.201  71.728  1.00  0.00    -0.229 C  
HETATM   32  C   UNL     1     -12.264   7.924  71.309  1.00  0.00    -0.294 C  
ENDBRANCH  24  26
ENDBRANCH  15  24
ENDBRANCH  13  15
ENDBRANCH   3  11
TORSDOF 5
ENDMDL
MODEL      231
REMARK 921   NORMALIZED FREE ENERGY PREDICTED BY IDOCK:   -3.29 KCAL/MOL
REMARK 922        TOTAL FREE ENERGY PREDICTED BY IDOCK:   -5.40 KCAL/MOL
REMARK 923 INTER-LIGAND FREE ENERGY PREDICTED BY IDOCK:   -4.51 KCAL/MOL
REMARK 924 INTRA-LIGAND FREE ENERGY PREDICTED BY IDOCK:   -0.89 KCAL/MOL
REMARK 927      BINDING AFFINITY PREDICTED BY RF-SCORE:    0.00 PKD
ROOT
HETATM    1  C   UNL     1      -6.168   6.520  67.601  1.00  0.00    -0.035 C  
HETATM    2  C   UNL     1      -7.318   7.169  66.864  1.00  0.00    -0.088 C  
HETATM    3  C   UNL     1      -6.941   8.485  66.113  1.00  0.00    -0.076 C  
HETATM    4  O   UNL     1      -7.916   4.246  66.191  1.00  0.00    -0.097 OA 
HETATM    5  C   UNL     1      -7.598   7.759  64.865  1.00  0.00    -0.102 C  
HETATM    6  N   UNL     1      -7.664   6.576  65.576  1.00  0.00    -0.091 N  
HETATM    7  O   UNL     1      -8.997   5.086  64.166  1.00  0.00    -0.105 OA 
HETATM    8  O   UNL     1      -6.537   4.873  64.262  1.00  0.00    -0.040 OA 
HETATM    9  O   UNL     1      -7.914   8.004  63.727  1.00  0.00    -0.138 OA 
HETATM   10  S   UNL     1      -7.791   5.054  64.979  1.00  0.00    -0.094 S  
ENDROOT
BRANCH   3  11
HETATM   11  N   UNL     1      -7.546   9.779  66.559  1.00  0.00    -0.098 N  
HETATM   12  O   UNL     1      -5.596  11.002  66.741  1.00  0.00    -0.061 OA 
HETATM   13  C   UNL     1      -6.818  10.939  66.747  1.00  0.00    -0.121 C  
HETATM   14  H   UNL     1      -8.551   9.805  66.734  1.00  0.00     0.000 HD 
BRANCH  13  15
HETATM   15  C   UNL     1      -7.599  12.223  67.017  1.00  0.00    -0.071 C  
BRANCH  15  16
HETATM   16  C   UNL     1      -9.040  12.144  67.302  1.00  0.00    -0.181 A  
HETATM   17  C   UNL     1     -11.196  12.276  66.833  1.00  0.00    -0.312 A  
HETATM   18  N   UNL     1     -12.295  12.528  66.000  1.00  0.00    -0.574 NA 
HETATM   19  H2  UNL     1     -12.918  13.153  66.512  1.00  0.00     0.000 HD 
HETATM   20  C   UNL     1      -9.584  11.689  68.497  1.00  0.00    -0.178 A  
HETATM   21  H1  UNL     1     -12.233  12.889  65.048  1.00  0.00     0.000 HD 
HETATM   22  S   UNL     1     -11.300  11.677  68.410  1.00  0.00    -0.309 SA 
HETATM   23  N   UNL     1     -10.006  12.512  66.357  1.00  0.00    -0.246 NA 
ENDBRANCH  15  16
BRANCH  15  24
HETATM   24  N   UNL     1      -7.083  13.420  67.028  1.00  0.00    -0.376 NA 
HETATM   25  H   UNL     1      -6.741  13.898  66.193  1.00  0.00     0.000 HD 
BRANCH  24  26
HETATM   26  O   UNL     1      -7.048  13.976  68.309  1.00  0.00    -0.089 OA 
HETATM   27  O   UNL     1      -5.603  15.262  69.968  1.00  0.00    -0.114 OA 
HETATM   28  O   UNL     1      -6.615  17.249  69.697  1.00  0.00    -0.227 OA 
HETATM   29  C   UNL     1      -7.034  16.082  66.984  1.00  0.00    -0.209 C  
HETATM   30  C   UNL     1      -8.847  15.537  68.679  1.00  0.00    -0.193 C  
HETATM   31  C   UNL     1      -7.376  15.387  68.308  1.00  0.00    -0.112 C  
HETATM   32  C   UNL     1      -6.462  15.939  69.410  1.00  0.00    -0.167 C  
ENDBRANCH  24  26
ENDBRANCH  15  24
ENDBRANCH  13  15
ENDBRANCH   3  11
TORSDOF 5
ENDMDL
MODEL      232
REMARK 921   NORMALIZED FREE ENERGY PREDICTED BY IDOCK:   -3.24 KCAL/MOL
REMARK 922        TOTAL FREE ENERGY PREDICTED BY IDOCK:   -5.33 KCAL/MOL
REMARK 923 INTER-LIGAND FREE ENERGY PREDICTED BY IDOCK:   -4.58 KCAL/MOL
REMARK 924 INTRA-LIGAND FREE ENERGY PREDICTED BY IDOCK:   -0.75 KCAL/MOL
REMARK 927      BINDING AFFINITY PREDICTED BY RF-SCORE:    0.00 PKD
ROOT
HETATM    1  C   UNL     1     -11.818   9.285  71.040  1.00  0.00    -0.376 C  
HETATM    2  C   UNL     1     -10.512   8.624  70.661  1.00  0.00    -0.204 C  
HETATM    3  C   UNL     1      -9.240   9.452  71.028  1.00  0.00    -0.110 C  
HETATM    4  O   UNL     1     -12.009   6.161  71.688  1.00  0.00    -0.268 OA 
HETATM    5  C   UNL     1      -8.786   8.115  71.751  1.00  0.00    -0.155 C  
HETATM    6  N   UNL     1     -10.045   7.575  71.564  1.00  0.00    -0.181 N  
HETATM    7  O   UNL     1      -9.813   5.232  72.224  1.00  0.00    -0.162 OA 
HETATM    8  O   UNL     1     -10.867   6.875  73.739  1.00  0.00    -0.289 OA 
HETATM    9  O   UNL     1      -7.816   7.658  72.303  1.00  0.00    -0.092 OA 
HETATM   10  S   UNL     1     -10.738   6.341  72.390  1.00  0.00    -0.237 S  
ENDROOT
BRANCH   3  11
HETATM   11  N   UNL     1      -8.369   9.975  69.930  1.00  0.00    -0.279 N  
HETATM   12  O   UNL     1      -9.890  11.427  68.975  1.00  0.00    -0.153 OA 
HETATM   13  C   UNL     1      -8.754  10.979  69.061  1.00  0.00    -0.064 C  
HETATM   14  H   UNL     1      -7.440   9.569  69.817  1.00  0.00     0.000 HD 
BRANCH  13  15
HETATM   15  C   UNL     1      -7.692  11.539  68.118  1.00  0.00    -0.120 C  
BRANCH  15  16
HETATM   16  C   UNL     1      -7.006  10.632  67.185  1.00  0.00    -0.088 A  
HETATM   17  C   UNL     1      -6.549   8.691  66.232  1.00  0.00    -0.062 A  
HETATM   18  N   UNL     1      -6.685   7.306  66.055  1.00  0.00    -0.052 NA 
HETATM   19  H2  UNL     1      -5.744   6.913  66.063  1.00  0.00     0.000 HD 
HETATM   20  C   UNL     1      -6.118  11.041  66.197  1.00  0.00    -0.119 A  
HETATM   21  H1  UNL     1      -7.263   6.700  66.637  1.00  0.00     0.000 HD 
HETATM   22  S   UNL     1      -5.592   9.695  65.267  1.00  0.00    -0.059 SA 
HETATM   23  N   UNL     1      -7.215   9.248  67.204  1.00  0.00    -0.086 NA 
ENDBRANCH  15  16
BRANCH  15  24
HETATM   24  N   UNL     1      -7.335  12.792  68.058  1.00  0.00    -0.103 NA 
HETATM   25  H   UNL     1      -6.416  13.105  67.745  1.00  0.00     0.000 HD 
BRANCH  24  26
HETATM   26  O   UNL     1      -8.351  13.657  68.471  1.00  0.00    -0.157 OA 
HETATM   27  O   UNL     1      -8.924  15.569  70.056  1.00  0.00    -0.054 OA 
HETATM   28  O   UNL     1      -8.871  17.200  68.513  1.00  0.00    -0.251 OA 
HETATM   29  C   UNL     1      -6.882  15.315  67.338  1.00  0.00    -0.188 C  
HETATM   30  C   UNL     1      -9.290  14.908  66.637  1.00  0.00    -0.291 C  
HETATM   31  C   UNL     1      -8.297  14.936  67.793  1.00  0.00    -0.157 C  
HETATM   32  C   UNL     1      -8.743  15.911  68.891  1.00  0.00    -0.225 C  
ENDBRANCH  24  26
ENDBRANCH  15  24
ENDBRANCH  13  15
ENDBRANCH   3  11
TORSDOF 5
ENDMDL
MODEL      233
REMARK 921   NORMALIZED FREE ENERGY PREDICTED BY IDOCK:   -2.95 KCAL/MOL
REMARK 922        TOTAL FREE ENERGY PREDICTED BY IDOCK:   -4.96 KCAL/MOL
REMARK 923 INTER-LIGAND FREE ENERGY PREDICTED BY IDOCK:   -3.75 KCAL/MOL
REMARK 924 INTRA-LIGAND FREE ENERGY PREDICTED BY IDOCK:   -1.21 KCAL/MOL
REMARK 927      BINDING AFFINITY PREDICTED BY RF-SCORE:    0.00 PKD
ROOT
HETATM    1  C   UNL     1      -8.555   9.575  70.327  1.00  0.00    -0.258 C  
HETATM    2  C   UNL     1      -8.150   8.925  69.023  1.00  0.00    -0.115 C  
HETATM    3  C   UNL     1      -9.289   8.117  68.324  1.00  0.00    -0.134 C  
HETATM    4  O   UNL     1      -6.711  11.603  68.684  1.00  0.00    -0.064 OA 
HETATM    5  C   UNL     1      -8.922   9.013  67.069  1.00  0.00    -0.126 C  
HETATM    6  N   UNL     1      -8.110   9.805  67.859  1.00  0.00    -0.112 N  
HETATM    7  O   UNL     1      -6.932  11.250  66.276  1.00  0.00    -0.098 OA 
HETATM    8  O   UNL     1      -8.846  12.103  67.585  1.00  0.00    -0.158 OA 
HETATM    9  O   UNL     1      -9.194   9.101  65.897  1.00  0.00    -0.193 OA 
HETATM   10  S   UNL     1      -7.608  11.337  67.560  1.00  0.00    -0.117 S  
ENDROOT
BRANCH   3  11
HETATM   11  N   UNL     1      -9.148   6.634  68.181  1.00  0.00    -0.120 N  
HETATM   12  O   UNL     1     -11.159   6.220  67.124  1.00  0.00    -0.358 OA 
HETATM   13  C   UNL     1     -10.063   5.840  67.515  1.00  0.00    -0.171 C  
HETATM   14  H   UNL     1      -8.333   6.185  68.598  1.00  0.00     0.000 HD 
BRANCH  13  15
HETATM   15  C   UNL     1      -9.689   4.378  67.286  1.00  0.00    -0.184 C  
BRANCH  15  16
HETATM   16  C   UNL     1      -9.347   3.924  65.929  1.00  0.00    -0.165 A  
HETATM   17  C   UNL     1      -8.779   4.169  63.807  1.00  0.00    -0.119 A  
HETATM   18  N   UNL     1      -8.469   4.912  62.659  1.00  0.00    -0.107 NA 
HETATM   19  H2  UNL     1      -9.047   4.544  61.903  1.00  0.00     0.000 HD 
HETATM   20  C   UNL     1      -9.173   2.595  65.562  1.00  0.00    -0.099 A  
HETATM   21  H1  UNL     1      -8.514   5.929  62.595  1.00  0.00     0.000 HD 
HETATM   22  S   UNL     1      -8.705   2.484  63.912  1.00  0.00    -0.087 SA 
HETATM   23  N   UNL     1      -9.142   4.822  64.875  1.00  0.00    -0.155 NA 
ENDBRANCH  15  16
BRANCH  15  24
HETATM   24  N   UNL     1      -9.634   3.469  68.219  1.00  0.00    -0.143 NA 
HETATM   25  H   UNL     1      -9.700   2.466  68.039  1.00  0.00     0.000 HD 
BRANCH  24  26
HETATM   26  O   UNL     1      -9.476   4.019  69.493  1.00  0.00    -0.158 OA 
HETATM   27  O   UNL     1     -10.424   4.068  71.859  1.00  0.00    -0.076 OA 
HETATM   28  O   UNL     1      -8.844   2.770  72.790  1.00  0.00    -0.080 OA 
HETATM   29  C   UNL     1      -8.848   1.669  70.018  1.00  0.00    -0.115 C  
HETATM   30  C   UNL     1      -7.274   3.629  70.393  1.00  0.00    -0.041 C  
HETATM   31  C   UNL     1      -8.723   3.155  70.379  1.00  0.00    -0.069 C  
HETATM   32  C   UNL     1      -9.404   3.396  71.733  1.00  0.00    -0.131 C  
ENDBRANCH  24  26
ENDBRANCH  15  24
ENDBRANCH  13  15
ENDBRANCH   3  11
TORSDOF 5
ENDMDL
MODEL      234
REMARK 921   NORMALIZED FREE ENERGY PREDICTED BY IDOCK:   -2.88 KCAL/MOL
REMARK 922        TOTAL FREE ENERGY PREDICTED BY IDOCK:   -4.87 KCAL/MOL
REMARK 923 INTER-LIGAND FREE ENERGY PREDICTED BY IDOCK:   -4.27 KCAL/MOL
REMARK 924 INTRA-LIGAND FREE ENERGY PREDICTED BY IDOCK:   -0.59 KCAL/MOL
REMARK 927      BINDING AFFINITY PREDICTED BY RF-SCORE:    0.00 PKD
ROOT
HETATM    1  C   UNL     1      -6.186  11.363  66.520  1.00  0.00    -0.110 C  
HETATM    2  C   UNL     1      -6.854  11.270  67.873  1.00  0.00    -0.068 C  
HETATM    3  C   UNL     1      -6.093  10.382  68.908  1.00  0.00    -0.040 C  
HETATM    4  O   UNL     1      -7.317  14.243  67.319  1.00  0.00    -0.170 OA 
HETATM    5  C   UNL     1      -6.198  11.667  69.832  1.00  0.00    -0.144 C  
HETATM    6  N   UNL     1      -6.652  12.412  68.761  1.00  0.00    -0.082 N  
HETATM    7  O   UNL     1      -7.351  14.540  69.744  1.00  0.00    -0.084 OA 
HETATM    8  O   UNL     1      -5.197  14.345  68.549  1.00  0.00    -0.088 OA 
HETATM    9  O   UNL     1      -5.972  11.995  70.970  1.00  0.00    -0.342 OA 
HETATM   10  S   UNL     1      -6.621  14.043  68.590  1.00  0.00    -0.103 S  
ENDROOT
BRANCH   3  11
HETATM   11  N   UNL     1      -6.734   9.123  69.399  1.00  0.00    -0.048 N  
HETATM   12  O   UNL     1      -8.934   9.711  69.019  1.00  0.00    -0.136 OA 
HETATM   13  C   UNL     1      -8.093   8.877  69.325  1.00  0.00    -0.109 C  
HETATM   14  H   UNL     1      -6.135   8.406  69.810  1.00  0.00     0.000 HD 
BRANCH  13  15
HETATM   15  C   UNL     1      -8.574   7.474  69.688  1.00  0.00    -0.136 C  
BRANCH  15  16
HETATM   16  C   UNL     1      -9.777   7.317  70.520  1.00  0.00    -0.176 A  
HETATM   17  C   UNL     1     -10.953   7.371  72.390  1.00  0.00    -0.275 A  
HETATM   18  N   UNL     1     -11.132   7.575  73.766  1.00  0.00    -0.441 NA 
HETATM   19  H2  UNL     1     -11.597   6.744  74.131  1.00  0.00     0.000 HD 
HETATM   20  C   UNL     1     -11.040   7.008  70.030  1.00  0.00    -0.278 A  
HETATM   21  H1  UNL     1     -10.385   7.806  74.421  1.00  0.00     0.000 HD 
HETATM   22  S   UNL     1     -12.191   6.989  71.305  1.00  0.00    -0.386 SA 
HETATM   23  N   UNL     1      -9.748   7.492  71.909  1.00  0.00    -0.158 NA 
ENDBRANCH  15  16
BRANCH  15  24
HETATM   24  N   UNL     1      -8.000   6.368  69.305  1.00  0.00    -0.109 NA 
HETATM   25  H   UNL     1      -7.539   6.252  68.401  1.00  0.00     0.000 HD 
BRANCH  24  26
HETATM   26  O   UNL     1      -8.086   5.359  70.267  1.00  0.00    -0.093 OA 
HETATM   27  O   UNL     1      -9.684   4.066  71.773  1.00  0.00    -0.152 OA 
HETATM   28  O   UNL     1      -9.717   2.184  70.547  1.00  0.00    -0.092 OA 
HETATM   29  C   UNL     1      -9.236   4.192  68.396  1.00  0.00    -0.198 C  
HETATM   30  C   UNL     1      -7.138   3.279  69.501  1.00  0.00    -0.041 C  
HETATM   31  C   UNL     1      -8.425   4.074  69.692  1.00  0.00    -0.060 C  
HETATM   32  C   UNL     1      -9.312   3.451  70.778  1.00  0.00    -0.155 C  
ENDBRANCH  24  26
ENDBRANCH  15  24
ENDBRANCH  13  15
ENDBRANCH   3  11
TORSDOF 5
ENDMDL
MODEL      235
REMARK 921   NORMALIZED FREE ENERGY PREDICTED BY IDOCK:   -2.84 KCAL/MOL
REMARK 922        TOTAL FREE ENERGY PREDICTED BY IDOCK:   -4.82 KCAL/MOL
REMARK 923 INTER-LIGAND FREE ENERGY PREDICTED BY IDOCK:   -3.73 KCAL/MOL
REMARK 924 INTRA-LIGAND FREE ENERGY PREDICTED BY IDOCK:   -1.09 KCAL/MOL
REMARK 927      BINDING AFFINITY PREDICTED BY RF-SCORE:    0.00 PKD
ROOT
HETATM    1  C   UNL     1      -9.130  14.188  68.912  1.00  0.00     0.008 C  
HETATM    2  C   UNL     1     -10.356  13.328  68.702  1.00  0.00    -0.196 C  
HETATM    3  C   UNL     1     -10.236  11.881  69.277  1.00  0.00     0.231 C  
HETATM    4  O   UNL     1     -11.741  15.961  69.414  1.00  0.00    -0.358 OA 
HETATM    5  C   UNL     1     -11.595  12.242  70.010  1.00  0.00    -0.157 C  
HETATM    6  N   UNL     1     -11.463  13.563  69.625  1.00  0.00    -0.247 N  
HETATM    7  O   UNL     1     -13.597  14.595  70.228  1.00  0.00     0.163 OA 
HETATM    8  O   UNL     1     -11.590  14.923  71.632  1.00  0.00    -0.352 OA 
HETATM    9  O   UNL     1     -12.443  11.706  70.680  1.00  0.00    -0.333 OA 
HETATM   10  S   UNL     1     -12.173  14.879  70.298  1.00  0.00    -0.351 S  
ENDROOT
BRANCH   3  11
HETATM   11  N   UNL     1     -10.245  10.719  68.336  1.00  0.00    -0.168 N  
HETATM   12  O   UNL     1      -7.960  10.484  68.090  1.00  0.00    -0.106 OA 
HETATM   13  C   UNL     1      -9.099  10.078  67.901  1.00  0.00    -0.131 C  
HETATM   14  H   UNL     1     -11.145  10.381  67.995  1.00  0.00     0.000 HD 
BRANCH  13  15
HETATM   15  C   UNL     1      -9.275   8.792  67.097  1.00  0.00    -0.136 C  
BRANCH  15  16
HETATM   16  C   UNL     1      -9.039   7.495  67.748  1.00  0.00    -0.129 A  
HETATM   17  C   UNL     1      -8.541   6.146  69.427  1.00  0.00    -0.123 A  
HETATM   18  N   UNL     1      -8.173   5.854  70.748  1.00  0.00    -0.122 NA 
HETATM   19  H2  UNL     1      -7.386   5.207  70.700  1.00  0.00     0.000 HD 
HETATM   20  C   UNL     1      -9.245   6.260  67.146  1.00  0.00    -0.122 A  
HETATM   21  H1  UNL     1      -7.938   6.552  71.454  1.00  0.00     0.000 HD 
HETATM   22  S   UNL     1      -8.931   4.989  68.258  1.00  0.00    -0.111 SA 
HETATM   23  N   UNL     1      -8.596   7.399  69.073  1.00  0.00    -0.133 NA 
ENDBRANCH  15  16
BRANCH  15  24
HETATM   24  N   UNL     1      -9.640   8.741  65.845  1.00  0.00    -0.411 NA 
HETATM   25  H   UNL     1      -9.331   8.018  65.194  1.00  0.00     0.000 HD 
BRANCH  24  26
HETATM   26  O   UNL     1     -10.498   9.785  65.495  1.00  0.00    -0.072 OA 
HETATM   27  O   UNL     1     -11.098  12.217  65.964  1.00  0.00    -0.284 OA 
HETATM   28  O   UNL     1     -10.145  13.072  64.118  1.00  0.00    -0.344 OA 
HETATM   29  C   UNL     1      -8.385  10.705  64.558  1.00  0.00    -0.043 C  
HETATM   30  C   UNL     1     -10.443  10.264  63.133  1.00  0.00     0.922 C  
HETATM   31  C   UNL     1      -9.918  10.670  64.505  1.00  0.00    -0.345 C  
HETATM   32  C   UNL     1     -10.461  12.041  64.929  1.00  0.00    -0.285 C  
ENDBRANCH  24  26
ENDBRANCH  15  24
ENDBRANCH  13  15
ENDBRANCH   3  11
TORSDOF 5
ENDMDL
MODEL      236
REMARK 921   NORMALIZED FREE ENERGY PREDICTED BY IDOCK:   -2.52 KCAL/MOL
REMARK 922        TOTAL FREE ENERGY PREDICTED BY IDOCK:   -4.40 KCAL/MOL
REMARK 923 INTER-LIGAND FREE ENERGY PREDICTED BY IDOCK:   -4.27 KCAL/MOL
REMARK 924 INTRA-LIGAND FREE ENERGY PREDICTED BY IDOCK:   -0.12 KCAL/MOL
REMARK 927      BINDING AFFINITY PREDICTED BY RF-SCORE:    0.00 PKD
ROOT
HETATM    1  C   UNL     1      -9.711  15.579  66.317  1.00  0.00    -0.328 C  
HETATM    2  C   UNL     1      -8.990  14.654  67.272  1.00  0.00    -0.205 C  
HETATM    3  C   UNL     1      -8.039  13.627  66.580  1.00  0.00     0.507 C  
HETATM    4  O   UNL     1      -8.770  17.252  68.872  1.00  0.00    -0.257 OA 
HETATM    5  C   UNL     1      -6.959  14.207  67.586  1.00  0.00    -0.184 C  
HETATM    6  N   UNL     1      -7.826  15.220  67.949  1.00  0.00    -0.131 N  
HETATM    7  O   UNL     1      -6.745  16.302  69.858  1.00  0.00    -0.153 OA 
HETATM    8  O   UNL     1      -6.667  17.327  67.610  1.00  0.00    -0.144 OA 
HETATM    9  O   UNL     1      -5.828  13.985  67.941  1.00  0.00    -0.129 OA 
HETATM   10  S   UNL     1      -7.453  16.660  68.639  1.00  0.00    -0.223 S  
ENDROOT
BRANCH   3  11
HETATM   11  N   UNL     1      -8.354  12.167  66.669  1.00  0.00    -0.361 N  
HETATM   12  O   UNL     1      -9.896  12.273  68.384  1.00  0.00    -0.213 OA 
HETATM   13  C   UNL     1      -9.320  11.643  67.508  1.00  0.00    -0.168 C  
HETATM   14  H   UNL     1      -7.827  11.524  66.078  1.00  0.00     0.000 HD 
BRANCH  13  15
HETATM   15  C   UNL     1      -9.660  10.163  67.350  1.00  0.00    -0.154 C  
BRANCH  15  16
HETATM   16  C   UNL     1      -8.993   9.378  66.300  1.00  0.00    -0.156 A  
HETATM   17  C   UNL     1      -7.734   7.749  65.496  1.00  0.00    -0.100 A  
HETATM   18  N   UNL     1      -6.901   6.625  65.601  1.00  0.00    -0.047 NA 
HETATM   19  H2  UNL     1      -6.073   6.817  65.037  1.00  0.00     0.000 HD 
HETATM   20  C   UNL     1      -9.165   9.578  64.935  1.00  0.00    -0.223 A  
HETATM   21  H1  UNL     1      -6.572   6.225  66.480  1.00  0.00     0.000 HD 
HETATM   22  S   UNL     1      -8.278   8.410  64.040  1.00  0.00    -0.063 SA 
HETATM   23  N   UNL     1      -8.125   8.321  66.600  1.00  0.00    -0.101 NA 
ENDBRANCH  15  16
BRANCH  15  24
HETATM   24  N   UNL     1     -10.508   9.510  68.095  1.00  0.00    -0.213 NA 
HETATM   25  H   UNL     1     -11.432   9.215  67.776  1.00  0.00     0.000 HD 
BRANCH  24  26
HETATM   26  O   UNL     1     -10.013   9.261  69.377  1.00  0.00    -0.170 OA 
HETATM   27  O   UNL     1     -10.654   9.012  71.831  1.00  0.00    -0.344 OA 
HETATM   28  O   UNL     1     -10.511   6.771  71.903  1.00  0.00    -0.199 OA 
HETATM   29  C   UNL     1     -11.284   7.148  69.047  1.00  0.00     0.021 C  
HETATM   30  C   UNL     1      -8.784   7.191  69.497  1.00  0.00    -0.134 C  
HETATM   31  C   UNL     1     -10.126   7.866  69.751  1.00  0.00    -0.199 C  
HETATM   32  C   UNL     1     -10.434   7.952  71.252  1.00  0.00    -0.203 C  
ENDBRANCH  24  26
ENDBRANCH  15  24
ENDBRANCH  13  15
ENDBRANCH   3  11
TORSDOF 5
ENDMDL
MODEL      237
REMARK 921   NORMALIZED FREE ENERGY PREDICTED BY IDOCK:   -2.48 KCAL/MOL
REMARK 922        TOTAL FREE ENERGY PREDICTED BY IDOCK:   -4.36 KCAL/MOL
REMARK 923 INTER-LIGAND FREE ENERGY PREDICTED BY IDOCK:   -3.66 KCAL/MOL
REMARK 924 INTRA-LIGAND FREE ENERGY PREDICTED BY IDOCK:   -0.70 KCAL/MOL
REMARK 927      BINDING AFFINITY PREDICTED BY RF-SCORE:    0.00 PKD
ROOT
HETATM    1  C   UNL     1      -7.817  11.073  68.250  1.00  0.00    -0.121 C  
HETATM    2  C   UNL     1      -8.850  10.073  68.717  1.00  0.00    -0.137 C  
HETATM    3  C   UNL     1      -8.683   9.620  70.202  1.00  0.00    -0.231 C  
HETATM    4  O   UNL     1     -10.672  11.905  67.080  1.00  0.00    -0.223 OA 
HETATM    5  C   UNL     1     -10.206  10.048  70.326  1.00  0.00    -0.206 C  
HETATM    6  N   UNL     1     -10.155  10.625  69.071  1.00  0.00    -0.205 N  
HETATM    7  O   UNL     1     -12.480  11.186  68.559  1.00  0.00    -0.452 OA 
HETATM    8  O   UNL     1     -10.891  12.928  69.299  1.00  0.00    -0.131 OA 
HETATM    9  O   UNL     1     -11.109   9.994  71.124  1.00  0.00    -0.333 OA 
HETATM   10  S   UNL     1     -11.153  11.771  68.455  1.00  0.00    -0.261 S  
ENDROOT
BRANCH   3  11
HETATM   11  N   UNL     1      -8.340   8.194  70.495  1.00  0.00    -0.120 N  
HETATM   12  O   UNL     1      -9.981   7.196  69.214  1.00  0.00    -0.163 OA 
HETATM   13  C   UNL     1      -8.972   7.117  69.901  1.00  0.00    -0.142 C  
HETATM   14  H   UNL     1      -7.598   8.006  71.171  1.00  0.00     0.000 HD 
BRANCH  13  15
HETATM   15  C   UNL     1      -8.385   5.730  70.154  1.00  0.00    -0.117 C  
BRANCH  15  16
HETATM   16  C   UNL     1      -9.123   4.777  70.997  1.00  0.00    -0.132 A  
HETATM   17  C   UNL     1      -9.999   2.819  71.529  1.00  0.00    -0.042 A  
HETATM   18  N   UNL     1     -10.307   1.469  71.306  1.00  0.00     0.111 NA 
HETATM   19  H2  UNL     1     -11.305   1.360  71.488  1.00  0.00     0.000 HD 
HETATM   20  C   UNL     1      -9.587   5.051  72.278  1.00  0.00    -0.148 A  
HETATM   21  H1  UNL     1     -10.108   0.962  70.444  1.00  0.00     0.000 HD 
HETATM   22  S   UNL     1     -10.329   3.658  72.958  1.00  0.00    -0.168 SA 
HETATM   23  N   UNL     1      -9.406   3.474  70.571  1.00  0.00    -0.145 NA 
ENDBRANCH  15  16
BRANCH  15  24
HETATM   24  N   UNL     1      -7.256   5.299  69.665  1.00  0.00    -0.059 NA 
HETATM   25  H   UNL     1      -6.409   5.173  70.220  1.00  0.00     0.000 HD 
BRANCH  24  26
HETATM   26  O   UNL     1      -7.334   5.030  68.296  1.00  0.00    -0.071 OA 
HETATM   27  O   UNL     1      -6.321   5.567  66.021  1.00  0.00    -0.033 OA 
HETATM   28  O   UNL     1      -5.162   3.655  65.803  1.00  0.00    -0.008 OA 
HETATM   29  C   UNL     1      -5.156   3.927  68.773  1.00  0.00    -0.007 C  
HETATM   30  C   UNL     1      -7.149   2.676  67.813  1.00  0.00    -0.049 C  
HETATM   31  C   UNL     1      -6.401   4.003  67.881  1.00  0.00    -0.037 C  
HETATM   32  C   UNL     1      -5.984   4.482  66.484  1.00  0.00    -0.027 C  
ENDBRANCH  24  26
ENDBRANCH  15  24
ENDBRANCH  13  15
ENDBRANCH   3  11
TORSDOF 5
ENDMDL
MODEL      238
REMARK 921   NORMALIZED FREE ENERGY PREDICTED BY IDOCK:   -2.36 KCAL/MOL
REMARK 922        TOTAL FREE ENERGY PREDICTED BY IDOCK:   -4.19 KCAL/MOL
REMARK 923 INTER-LIGAND FREE ENERGY PREDICTED BY IDOCK:   -3.15 KCAL/MOL
REMARK 924 INTRA-LIGAND FREE ENERGY PREDICTED BY IDOCK:   -1.05 KCAL/MOL
REMARK 927      BINDING AFFINITY PREDICTED BY RF-SCORE:    0.00 PKD
ROOT
HETATM    1  C   UNL     1      -9.167   8.844  71.274  1.00  0.00    -0.328 C  
HETATM    2  C   UNL     1      -8.373   8.262  70.127  1.00  0.00    -0.124 C  
HETATM    3  C   UNL     1      -9.226   7.899  68.871  1.00  0.00    -0.144 C  
HETATM    4  O   UNL     1      -6.410  10.439  71.004  1.00  0.00    -0.331 OA 
HETATM    5  C   UNL     1      -8.165   8.793  68.103  1.00  0.00    -0.114 C  
HETATM    6  N   UNL     1      -7.641   9.223  69.307  1.00  0.00    -0.077 N  
HETATM    7  O   UNL     1      -5.614  10.446  68.694  1.00  0.00    -0.038 OA 
HETATM    8  O   UNL     1      -7.686  11.651  69.295  1.00  0.00     0.003 OA 
HETATM    9  O   UNL     1      -7.868   9.091  66.972  1.00  0.00    -0.097 OA 
HETATM   10  S   UNL     1      -6.753  10.572  69.588  1.00  0.00    -0.124 S  
ENDROOT
BRANCH   3  11
HETATM   11  N   UNL     1      -9.348   6.465  68.462  1.00  0.00    -0.123 N  
HETATM   12  O   UNL     1     -10.651   6.775  66.581  1.00  0.00    -0.226 OA 
HETATM   13  C   UNL     1      -9.980   6.051  67.303  1.00  0.00    -0.150 C  
HETATM   14  H   UNL     1      -8.943   5.754  69.071  1.00  0.00     0.000 HD 
BRANCH  13  15
HETATM   15  C   UNL     1      -9.857   4.577  66.925  1.00  0.00    -0.213 C  
BRANCH  15  16
HETATM   16  C   UNL     1      -9.702   4.206  65.510  1.00  0.00    -0.202 A  
HETATM   17  C   UNL     1     -10.115   3.044  63.675  1.00  0.00    -0.170 A  
HETATM   18  N   UNL     1     -10.745   2.034  62.933  1.00  0.00    -0.154 NA 
HETATM   19  H2  UNL     1     -10.009   1.523  62.445  1.00  0.00     0.000 HD 
HETATM   20  C   UNL     1      -8.922   4.901  64.593  1.00  0.00    -0.111 A  
HETATM   21  H1  UNL     1     -11.379   1.337  63.322  1.00  0.00     0.000 HD 
HETATM   22  S   UNL     1      -9.064   4.200  63.031  1.00  0.00    -0.123 SA 
HETATM   23  N   UNL     1     -10.364   3.105  64.953  1.00  0.00     0.206 NA 
ENDBRANCH  15  16
BRANCH  15  24
HETATM   24  N   UNL     1      -9.868   3.587  67.773  1.00  0.00    -0.141 NA 
HETATM   25  H   UNL     1     -10.541   2.820  67.742  1.00  0.00     0.000 HD 
BRANCH  24  26
HETATM   26  O   UNL     1      -8.856   3.692  68.730  1.00  0.00    -0.095 OA 
HETATM   27  O   UNL     1      -7.867   2.624  70.822  1.00  0.00    -0.042 OA 
HETATM   28  O   UNL     1      -6.098   1.678  69.810  1.00  0.00    -0.022 OA 
HETATM   29  C   UNL     1      -8.057   1.646  67.562  1.00  0.00    -0.066 C  
HETATM   30  C   UNL     1      -6.660   3.761  67.738  1.00  0.00    -0.042 C  
HETATM   31  C   UNL     1      -7.704   2.875  68.409  1.00  0.00    -0.055 C  
HETATM   32  C   UNL     1      -7.235   2.407  69.792  1.00  0.00    -0.043 C  
ENDBRANCH  24  26
ENDBRANCH  15  24
ENDBRANCH  13  15
ENDBRANCH   3  11
TORSDOF 5
ENDMDL
MODEL      239
REMARK 921   NORMALIZED FREE ENERGY PREDICTED BY IDOCK:   -1.56 KCAL/MOL
REMARK 922        TOTAL FREE ENERGY PREDICTED BY IDOCK:   -3.16 KCAL/MOL
REMARK 923 INTER-LIGAND FREE ENERGY PREDICTED BY IDOCK:   -4.03 KCAL/MOL
REMARK 924 INTRA-LIGAND FREE ENERGY PREDICTED BY IDOCK:    0.86 KCAL/MOL
REMARK 927      BINDING AFFINITY PREDICTED BY RF-SCORE:    0.00 PKD
ROOT
HETATM    1  C   UNL     1      -8.683  10.291  65.337  1.00  0.00    -0.183 C  
HETATM    2  C   UNL     1      -9.532  10.276  66.588  1.00  0.00    -0.166 C  
HETATM    3  C   UNL     1      -8.747  10.572  67.904  1.00  0.00    -0.126 C  
HETATM    4  O   UNL     1     -11.475  11.717  64.714  1.00  0.00    -0.293 OA 
HETATM    5  C   UNL     1      -9.863  11.677  68.121  1.00  0.00    -0.191 C  
HETATM    6  N   UNL     1     -10.324  11.478  66.833  1.00  0.00    -0.216 N  
HETATM    7  O   UNL     1     -12.402  12.764  66.718  1.00  0.00    -0.431 OA 
HETATM    8  O   UNL     1     -10.317  13.634  65.716  1.00  0.00    -0.284 OA 
HETATM    9  O   UNL     1     -10.229  12.453  68.969  1.00  0.00    -0.065 OA 
HETATM   10  S   UNL     1     -11.215  12.506  65.918  1.00  0.00    -0.336 S  
ENDROOT
BRANCH   3  11
HETATM   11  N   UNL     1      -8.626   9.498  68.939  1.00  0.00    -0.125 N  
HETATM   12  O   UNL     1      -6.888   8.319  67.980  1.00  0.00    -0.063 OA 
HETATM   13  C   UNL     1      -7.647   8.521  68.918  1.00  0.00    -0.096 C  
HETATM   14  H   UNL     1      -9.304   9.485  69.701  1.00  0.00     0.000 HD 
BRANCH  13  15
HETATM   15  C   UNL     1      -7.535   7.612  70.139  1.00  0.00    -0.084 C  
BRANCH  15  16
HETATM   16  C   UNL     1      -7.067   8.173  71.415  1.00  0.00    -0.068 A  
HETATM   17  C   UNL     1      -5.992   9.603  72.713  1.00  0.00     0.435 A  
HETATM   18  N   UNL     1      -5.178  10.717  72.965  1.00  0.00    -0.298 NA 
HETATM   19  H2  UNL     1      -4.450  10.411  73.611  1.00  0.00     0.000 HD 
HETATM   20  C   UNL     1      -7.457   7.715  72.668  1.00  0.00    -0.085 A  
HETATM   21  H1  UNL     1      -4.718  11.275  72.246  1.00  0.00     0.000 HD 
HETATM   22  S   UNL     1      -6.754   8.679  73.905  1.00  0.00     0.034 SA 
HETATM   23  N   UNL     1      -6.184   9.258  71.471  1.00  0.00    -0.161 NA 
ENDBRANCH  15  16
BRANCH  15  24
HETATM   24  N   UNL     1      -7.837   6.344  70.153  1.00  0.00    -0.105 NA 
HETATM   25  H   UNL     1      -7.430   5.657  69.517  1.00  0.00     0.000 HD 
BRANCH  24  26
HETATM   26  O   UNL     1      -8.781   6.030  71.134  1.00  0.00    -0.131 OA 
HETATM   27  O   UNL     1     -10.444   7.013  72.796  1.00  0.00    -0.207 OA 
HETATM   28  O   UNL     1     -12.293   6.549  71.606  1.00  0.00    -0.343 OA 
HETATM   29  C   UNL     1     -10.328   6.899  69.390  1.00  0.00    -0.220 C  
HETATM   30  C   UNL     1     -10.490   4.539  70.318  1.00  0.00     0.222 C  
HETATM   31  C   UNL     1     -10.131   5.991  70.611  1.00  0.00    -0.194 C  
HETATM   32  C   UNL     1     -10.954   6.546  71.780  1.00  0.00    -0.247 C  
ENDBRANCH  24  26
ENDBRANCH  15  24
ENDBRANCH  13  15
ENDBRANCH   3  11
TORSDOF 5
ENDMDL
MODEL      240
REMARK 921   NORMALIZED FREE ENERGY PREDICTED BY IDOCK:   -0.79 KCAL/MOL
REMARK 922        TOTAL FREE ENERGY PREDICTED BY IDOCK:   -2.17 KCAL/MOL
REMARK 923 INTER-LIGAND FREE ENERGY PREDICTED BY IDOCK:   -4.78 KCAL/MOL
REMARK 924 INTRA-LIGAND FREE ENERGY PREDICTED BY IDOCK:    2.61 KCAL/MOL
REMARK 927      BINDING AFFINITY PREDICTED BY RF-SCORE:    0.00 PKD
ROOT
HETATM    1  C   UNL     1      -8.456  10.264  64.823  1.00  0.00    -0.179 C  
HETATM    2  C   UNL     1      -9.418  10.167  65.986  1.00  0.00    -0.197 C  
HETATM    3  C   UNL     1      -8.778  10.458  67.380  1.00  0.00    -0.125 C  
HETATM    4  O   UNL     1     -11.245  11.573  63.974  1.00  0.00    -0.369 OA 
HETATM    5  C   UNL     1      -9.965  11.500  67.518  1.00  0.00    -0.190 C  
HETATM    6  N   UNL     1     -10.290  11.321  66.187  1.00  0.00    -0.244 N  
HETATM    7  O   UNL     1     -12.411  12.508  65.908  1.00  0.00    -0.596 OA 
HETATM    8  O   UNL     1     -10.289  13.511  65.136  1.00  0.00    -0.330 OA 
HETATM    9  O   UNL     1     -10.449  12.229  68.348  1.00  0.00    -0.221 OA 
HETATM   10  S   UNL     1     -11.143  12.334  65.219  1.00  0.00    -0.326 S  
ENDROOT
BRANCH   3  11
HETATM   11  N   UNL     1      -8.701   9.358  68.391  1.00  0.00    -0.124 N  
HETATM   12  O   UNL     1      -6.692   8.440  67.718  1.00  0.00    -0.063 OA 
HETATM   13  C   UNL     1      -7.618   8.506  68.514  1.00  0.00    -0.095 C  
HETATM   14  H   UNL     1      -9.491   9.228  69.023  1.00  0.00     0.000 HD 
BRANCH  13  15
HETATM   15  C   UNL     1      -7.602   7.560  69.712  1.00  0.00    -0.094 C  
BRANCH  15  16
HETATM   16  C   UNL     1      -8.847   7.314  70.455  1.00  0.00    -0.150 A  
HETATM   17  C   UNL     1     -10.858   7.802  71.232  1.00  0.00    -0.231 A  
HETATM   18  N   UNL     1     -11.975   8.630  71.420  1.00  0.00    -0.294 NA 
HETATM   19  H2  UNL     1     -12.177   8.631  72.420  1.00  0.00     0.000 HD 
HETATM   20  C   UNL     1      -9.183   6.107  71.055  1.00  0.00    -0.157 A  
HETATM   21  H1  UNL     1     -12.040   9.597  71.105  1.00  0.00     0.000 HD 
HETATM   22  S   UNL     1     -10.749   6.199  71.755  1.00  0.00    -0.251 SA 
HETATM   23  N   UNL     1      -9.832   8.299  70.601  1.00  0.00    -0.181 NA 
ENDBRANCH  15  16
BRANCH  15  24
HETATM   24  N   UNL     1      -6.549   6.921  70.142  1.00  0.00    -0.043 NA 
HETATM   25  H   UNL     1      -5.654   7.371  70.337  1.00  0.00     0.000 HD 
BRANCH  24  26
HETATM   26  O   UNL     1      -6.783   5.554  70.305  1.00  0.00    -0.044 OA 
HETATM   27  O   UNL     1      -8.525   3.709  70.066  1.00  0.00    -0.058 OA 
HETATM   28  O   UNL     1      -7.687   2.814  68.184  1.00  0.00    -0.055 OA 
HETATM   29  C   UNL     1      -6.852   5.653  67.820  1.00  0.00    -0.060 C  
HETATM   30  C   UNL     1      -5.198   4.203  69.091  1.00  0.00    -0.008 C  
HETATM   31  C   UNL     1      -6.596   4.811  69.076  1.00  0.00    -0.045 C  
HETATM   32  C   UNL     1      -7.679   3.728  69.177  1.00  0.00    -0.052 C  
ENDBRANCH  24  26
ENDBRANCH  15  24
ENDBRANCH  13  15
ENDBRANCH   3  11
TORSDOF 5
ENDMDL
MODEL      241
REMARK 921   NORMALIZED FREE ENERGY PREDICTED BY IDOCK:    3.48 KCAL/MOL
REMARK 922        TOTAL FREE ENERGY PREDICTED BY IDOCK:    3.36 KCAL/MOL
REMARK 923 INTER-LIGAND FREE ENERGY PREDICTED BY IDOCK:    0.93 KCAL/MOL
REMARK 924 INTRA-LIGAND FREE ENERGY PREDICTED BY IDOCK:    2.42 KCAL/MOL
REMARK 927      BINDING AFFINITY PREDICTED BY RF-SCORE:    0.00 PKD
ROOT
HETATM    1  C   UNL     1      -8.159   9.122  73.333  1.00  0.00     1.244 C  
HETATM    2  C   UNL     1      -7.701   8.531  72.019  1.00  0.00    -0.096 C  
HETATM    3  C   UNL     1      -8.851   8.260  70.998  1.00  0.00    -0.150 C  
HETATM    4  O   UNL     1      -5.449  10.560  72.437  1.00  0.00    -0.304 OA 
HETATM    5  C   UNL     1      -7.948   9.115  70.014  1.00  0.00    -0.113 C  
HETATM    6  N   UNL     1      -7.126   9.474  71.064  1.00  0.00    -0.053 N  
HETATM    7  O   UNL     1      -5.228  10.596  70.003  1.00  0.00    -0.038 OA 
HETATM    8  O   UNL     1      -7.015  11.900  71.105  1.00  0.00     2.112 OA 
HETATM    9  O   UNL     1      -7.910   9.431  68.850  1.00  0.00    -0.081 OA 
HETATM   10  S   UNL     1      -6.111  10.759  71.147  1.00  0.00     0.455 S  
ENDROOT
BRANCH   3  11
HETATM   11  N   UNL     1      -9.159   6.849  70.606  1.00  0.00    -0.155 N  
HETATM   12  O   UNL     1      -9.588   7.223  68.368  1.00  0.00    -0.139 OA 
HETATM   13  C   UNL     1      -9.414   6.455  69.305  1.00  0.00    -0.135 C  
HETATM   14  H   UNL     1      -9.182   6.139  71.338  1.00  0.00     0.000 HD 
BRANCH  13  15
HETATM   15  C   UNL     1      -9.522   4.958  69.032  1.00  0.00    -0.144 C  
BRANCH  15  16
HETATM   16  C   UNL     1      -9.051   4.422  67.746  1.00  0.00    -0.127 A  
HETATM   17  C   UNL     1      -8.274   2.875  66.372  1.00  0.00    -0.088 A  
HETATM   18  N   UNL     1      -7.813   1.592  66.043  1.00  0.00    -0.066 NA 
HETATM   19  H2  UNL     1      -6.933   1.713  65.542  1.00  0.00     0.000 HD 
HETATM   20  C   UNL     1      -9.075   5.120  66.545  1.00  0.00    -0.127 A  
HETATM   21  H1  UNL     1      -7.669   0.837  66.714  1.00  0.00     0.000 HD 
HETATM   22  S   UNL     1      -8.514   4.125  65.261  1.00  0.00    -0.116 SA 
HETATM   23  N   UNL     1      -8.548   3.122  67.622  1.00  0.00    -0.094 NA 
ENDBRANCH  15  16
BRANCH  15  24
HETATM   24  N   UNL     1     -10.001   4.081  69.871  1.00  0.00    -0.107 NA 
HETATM   25  H   UNL     1     -10.413   3.191  69.588  1.00  0.00     0.000 HD 
BRANCH  24  26
HETATM   26  O   UNL     1      -9.887   4.495  71.200  1.00  0.00    -0.173 OA 
HETATM   27  O   UNL     1     -10.281   3.808  73.623  1.00  0.00    -0.125 OA 
HETATM   28  O   UNL     1      -8.132   3.377  74.115  1.00  0.00    -0.069 OA 
HETATM   29  C   UNL     1      -8.134   2.730  71.205  1.00  0.00    -0.064 C  
HETATM   30  C   UNL     1      -7.639   5.159  71.764  1.00  0.00    -0.106 C  
HETATM   31  C   UNL     1      -8.663   4.031  71.821  1.00  0.00    -0.107 C  
HETATM   32  C   UNL     1      -9.109   3.752  73.262  1.00  0.00    -0.102 C  
ENDBRANCH  24  26
ENDBRANCH  15  24
ENDBRANCH  13  15
ENDBRANCH   3  11
TORSDOF 5
ENDMDL
MODEL      242
REMARK 921   NORMALIZED FREE ENERGY PREDICTED BY IDOCK:    9.11 KCAL/MOL
REMARK 922        TOTAL FREE ENERGY PREDICTED BY IDOCK:   10.63 KCAL/MOL
REMARK 923 INTER-LIGAND FREE ENERGY PREDICTED BY IDOCK:    7.72 KCAL/MOL
REMARK 924 INTRA-LIGAND FREE ENERGY PREDICTED BY IDOCK:    2.91 KCAL/MOL
REMARK 927      BINDING AFFINITY PREDICTED BY RF-SCORE:    0.00 PKD
ROOT
HETATM    1  C   UNL     1     -10.822  15.084  63.666  1.00  0.00     2.349 C  
HETATM    2  C   UNL     1     -11.044  14.165  64.846  1.00  0.00    -0.385 C  
HETATM    3  C   UNL     1     -12.062  14.703  65.901  1.00  0.00    -0.205 C  
HETATM    4  O   UNL     1     -10.958  12.067  62.620  1.00  0.00     0.356 OA 
HETATM    5  C   UNL     1     -12.764  13.297  65.692  1.00  0.00    -0.308 C  
HETATM    6  N   UNL     1     -11.941  13.036  64.612  1.00  0.00    -0.370 N  
HETATM    7  O   UNL     1     -12.374  10.693  64.061  1.00  0.00     2.348 OA 
HETATM    8  O   UNL     1     -13.369  12.513  62.719  1.00  0.00     0.301 OA 
HETATM    9  O   UNL     1     -13.659  12.643  66.166  1.00  0.00     2.175 OA 
HETATM   10  S   UNL     1     -12.197  11.971  63.392  1.00  0.00    -0.418 S  
ENDROOT
BRANCH   3  11
HETATM   11  N   UNL     1     -11.577  15.037  67.277  1.00  0.00    -0.318 N  
HETATM   12  O   UNL     1      -9.792  16.374  66.675  1.00  0.00    -0.238 OA 
HETATM   13  C   UNL     1     -10.537  15.913  67.530  1.00  0.00    -0.315 C  
HETATM   14  H   UNL     1     -12.039  14.594  68.071  1.00  0.00     0.000 HD 
BRANCH  13  15
HETATM   15  C   UNL     1     -10.283  16.300  68.984  1.00  0.00    -0.261 C  
BRANCH  15  16
HETATM   16  C   UNL     1     -11.091  15.683  70.047  1.00  0.00    -0.324 A  
HETATM   17  C   UNL     1     -12.848  15.460  71.369  1.00  0.00    -0.439 A  
HETATM   18  N   UNL     1     -14.104  15.826  71.875  1.00  0.00    -0.398 NA 
HETATM   19  H2  UNL     1     -14.018  15.851  72.891  1.00  0.00     0.000 HD 
HETATM   20  C   UNL     1     -10.761  14.503  70.705  1.00  0.00     0.492 A  
HETATM   21  H1  UNL     1     -14.620  16.662  71.602  1.00  0.00     0.000 HD 
HETATM   22  S   UNL     1     -11.995  14.073  71.821  1.00  0.00     0.469 SA 
HETATM   23  N   UNL     1     -12.301  16.239  70.478  1.00  0.00     0.057 NA 
ENDBRANCH  15  16
BRANCH  15  24
HETATM   24  N   UNL     1      -9.376  17.149  69.381  1.00  0.00     0.083 NA 
HETATM   25  H   UNL     1      -9.398  18.146  69.163  1.00  0.00     0.000 HD 
BRANCH  24  26
HETATM   26  O   UNL     1      -8.370  16.542  70.138  1.00  0.00     1.143 OA 
HETATM   27  O   UNL     1      -7.691  14.400  71.339  1.00  0.00     2.327 OA 
HETATM   28  O   UNL     1      -6.233  13.691  69.785  1.00  0.00    -0.118 OA 
HETATM   29  C   UNL     1      -8.135  15.201  68.055  1.00  0.00    -0.138 C  
HETATM   30  C   UNL     1      -6.234  16.583  69.021  1.00  0.00    -0.162 C  
HETATM   31  C   UNL     1      -7.472  15.747  69.326  1.00  0.00    -0.220 C  
HETATM   32  C   UNL     1      -7.139  14.573  70.256  1.00  0.00     0.237 C  
ENDBRANCH  24  26
ENDBRANCH  15  24
ENDBRANCH  13  15
ENDBRANCH   3  11
TORSDOF 5
ENDMDL
MODEL      243
REMARK 921   NORMALIZED FREE ENERGY PREDICTED BY IDOCK:   10.53 KCAL/MOL
REMARK 922        TOTAL FREE ENERGY PREDICTED BY IDOCK:   12.46 KCAL/MOL
REMARK 923 INTER-LIGAND FREE ENERGY PREDICTED BY IDOCK:   13.16 KCAL/MOL
REMARK 924 INTRA-LIGAND FREE ENERGY PREDICTED BY IDOCK:   -0.70 KCAL/MOL
REMARK 927      BINDING AFFINITY PREDICTED BY RF-SCORE:    0.00 PKD
ROOT
HETATM    1  C   UNL     1      -7.509  14.379  72.545  1.00  0.00     4.965 C  
HETATM    2  C   UNL     1      -7.025  13.909  71.192  1.00  0.00     1.865 C  
HETATM    3  C   UNL     1      -7.938  12.838  70.516  1.00  0.00     4.968 C  
HETATM    4  O   UNL     1      -6.407  16.892  70.906  1.00  0.00     0.886 OA 
HETATM    5  C   UNL     1      -7.916  13.840  69.288  1.00  0.00     0.367 C  
HETATM    6  N   UNL     1      -7.305  14.802  70.071  1.00  0.00    -0.014 N  
HETATM    7  O   UNL     1      -6.677  16.567  68.499  1.00  0.00    -0.136 OA 
HETATM    8  O   UNL     1      -8.664  16.811  69.948  1.00  0.00     0.708 OA 
HETATM    9  O   UNL     1      -8.277  13.885  68.138  1.00  0.00    -0.139 OA 
HETATM   10  S   UNL     1      -7.267  16.422  69.820  1.00  0.00     0.405 S  
ENDROOT
BRANCH   3  11
HETATM   11  N   UNL     1      -7.403  11.458  70.294  1.00  0.00     0.407 N  
HETATM   12  O   UNL     1      -5.199  12.026  69.905  1.00  0.00    -0.071 OA 
HETATM   13  C   UNL     1      -6.063  11.181  70.095  1.00  0.00    -0.146 C  
HETATM   14  H   UNL     1      -8.063  10.680  70.290  1.00  0.00     0.000 HD 
BRANCH  13  15
HETATM   15  C   UNL     1      -5.646   9.713  70.074  1.00  0.00    -0.040 C  
BRANCH  15  16
HETATM   16  C   UNL     1      -5.646   8.944  71.328  1.00  0.00    -0.043 A  
HETATM   17  C   UNL     1      -5.910   7.148  72.589  1.00  0.00    -0.041 A  
HETATM   18  N   UNL     1      -6.237   5.805  72.824  1.00  0.00    -0.051 NA 
HETATM   19  H2  UNL     1      -6.889   5.792  73.608  1.00  0.00     0.000 HD 
HETATM   20  C   UNL     1      -5.206   9.432  72.552  1.00  0.00    -0.075 A  
HETATM   21  H1  UNL     1      -6.608   5.166  72.121  1.00  0.00     0.000 HD 
HETATM   22  S   UNL     1      -5.295   8.207  73.754  1.00  0.00    -0.054 SA 
HETATM   23  N   UNL     1      -6.083   7.615  71.385  1.00  0.00    -0.035 NA 
ENDBRANCH  15  16
BRANCH  15  24
HETATM   24  N   UNL     1      -5.287   9.056  69.006  1.00  0.00    -0.036 NA 
HETATM   25  H   UNL     1      -4.319   8.821  68.783  1.00  0.00     0.000 HD 
BRANCH  24  26
HETATM   26  O   UNL     1      -6.375   8.709  68.201  1.00  0.00    -0.050 OA 
HETATM   27  O   UNL     1      -8.510   9.582  67.119  1.00  0.00    -0.129 OA 
HETATM   28  O   UNL     1      -7.686   9.751  65.036  1.00  0.00    -0.114 OA 
HETATM   29  C   UNL     1      -5.200  10.223  66.614  1.00  0.00    -0.041 C  
HETATM   30  C   UNL     1      -5.689   7.786  66.082  1.00  0.00    -0.037 C  
HETATM   31  C   UNL     1      -6.159   9.042  66.808  1.00  0.00    -0.061 C  
HETATM   32  C   UNL     1      -7.562   9.460  66.348  1.00  0.00    -0.097 C  
ENDBRANCH  24  26
ENDBRANCH  15  24
ENDBRANCH  13  15
ENDBRANCH   3  11
TORSDOF 5
ENDMDL
MODEL      244
REMARK 921   NORMALIZED FREE ENERGY PREDICTED BY IDOCK:   14.61 KCAL/MOL
REMARK 922        TOTAL FREE ENERGY PREDICTED BY IDOCK:   17.74 KCAL/MOL
REMARK 923 INTER-LIGAND FREE ENERGY PREDICTED BY IDOCK:   16.74 KCAL/MOL
REMARK 924 INTRA-LIGAND FREE ENERGY PREDICTED BY IDOCK:    1.00 KCAL/MOL
REMARK 927      BINDING AFFINITY PREDICTED BY RF-SCORE:    0.00 PKD
ROOT
HETATM    1  C   UNL     1      -9.317  19.722  72.919  1.00  0.00     3.785 C  
HETATM    2  C   UNL     1      -9.037  18.745  71.799  1.00  0.00     7.965 C  
HETATM    3  C   UNL     1     -10.107  18.743  70.662  1.00  0.00     2.095 C  
HETATM    4  O   UNL     1      -6.191  19.773  72.256  1.00  0.00    -0.010 OA 
HETATM    5  C   UNL     1      -8.853  18.958  69.715  1.00  0.00     0.889 C  
HETATM    6  N   UNL     1      -8.046  19.173  70.816  1.00  0.00     2.577 N  
HETATM    7  O   UNL     1      -5.773  19.223  69.912  1.00  0.00    -0.228 OA 
HETATM    8  O   UNL     1      -6.946  21.316  70.505  1.00  0.00     2.183 OA 
HETATM    9  O   UNL     1      -8.591  18.991  68.538  1.00  0.00    -0.336 OA 
HETATM   10  S   UNL     1      -6.601  19.947  70.863  1.00  0.00     0.280 S  
ENDROOT
BRANCH   3  11
HETATM   11  N   UNL     1     -10.936  17.517  70.444  1.00  0.00     0.391 N  
HETATM   12  O   UNL     1     -10.619  17.313  68.166  1.00  0.00    -0.363 OA 
HETATM   13  C   UNL     1     -11.041  16.871  69.226  1.00  0.00    -0.010 C  
HETATM   14  H   UNL     1     -11.453  17.138  71.238  1.00  0.00     0.000 HD 
BRANCH  13  15
HETATM   15  C   UNL     1     -11.768  15.529  69.203  1.00  0.00    -0.365 C  
BRANCH  15  16
HETATM   16  C   UNL     1     -12.615  15.147  70.344  1.00  0.00    -0.359 A  
HETATM   17  C   UNL     1     -13.344  13.822  71.956  1.00  0.00    -0.447 A  
HETATM   18  N   UNL     1     -13.369  12.636  72.704  1.00  0.00    -0.505 NA 
HETATM   19  H2  UNL     1     -14.343  12.337  72.752  1.00  0.00     0.000 HD 
HETATM   20  C   UNL     1     -13.526  15.991  70.967  1.00  0.00     0.880 A  
HETATM   21  H1  UNL     1     -12.816  11.805  72.494  1.00  0.00     0.000 HD 
HETATM   22  S   UNL     1     -14.260  15.199  72.304  1.00  0.00    -0.469 SA 
HETATM   23  N   UNL     1     -12.552  13.874  70.922  1.00  0.00    -0.349 NA 
ENDBRANCH  15  16
BRANCH  15  24
HETATM   24  N   UNL     1     -11.711  14.668  68.225  1.00  0.00    -0.362 NA 
HETATM   25  H   UNL     1     -12.368  13.896  68.111  1.00  0.00     0.000 HD 
BRANCH  24  26
HETATM   26  O   UNL     1     -10.651  14.921  67.351  1.00  0.00    -0.256 OA 
HETATM   27  O   UNL     1      -8.609  13.894  66.224  1.00  0.00     0.200 OA 
HETATM   28  O   UNL     1      -9.541  13.643  64.195  1.00  0.00     0.414 OA 
HETATM   29  C   UNL     1     -11.964  13.372  65.913  1.00  0.00    -0.452 C  
HETATM   30  C   UNL     1     -11.402  15.751  65.216  1.00  0.00    -0.093 C  
HETATM   31  C   UNL     1     -10.948  14.519  65.992  1.00  0.00    -0.324 C  
HETATM   32  C   UNL     1      -9.588  14.013  65.493  1.00  0.00     0.003 C  
ENDBRANCH  24  26
ENDBRANCH  15  24
ENDBRANCH  13  15
ENDBRANCH   3  11
TORSDOF 5
ENDMDL
MODEL      245
REMARK 921   NORMALIZED FREE ENERGY PREDICTED BY IDOCK:   16.11 KCAL/MOL
REMARK 922        TOTAL FREE ENERGY PREDICTED BY IDOCK:   19.67 KCAL/MOL
REMARK 923 INTER-LIGAND FREE ENERGY PREDICTED BY IDOCK:   20.23 KCAL/MOL
REMARK 924 INTRA-LIGAND FREE ENERGY PREDICTED BY IDOCK:   -0.56 KCAL/MOL
REMARK 927      BINDING AFFINITY PREDICTED BY RF-SCORE:    0.00 PKD
ROOT
HETATM    1  C   UNL     1     -10.735  17.507  69.424  1.00  0.00     0.228 C  
HETATM    2  C   UNL     1      -9.297  17.205  69.068  1.00  0.00    -0.143 C  
HETATM    3  C   UNL     1      -9.122  16.214  67.874  1.00  0.00    -0.192 C  
HETATM    4  O   UNL     1      -9.033  20.206  69.602  1.00  0.00     0.381 OA 
HETATM    5  C   UNL     1      -8.193  17.356  67.283  1.00  0.00    -0.205 C  
HETATM    6  N   UNL     1      -8.611  18.223  68.275  1.00  0.00    -0.279 N  
HETATM    7  O   UNL     1      -7.146  20.168  68.049  1.00  0.00    -0.277 OA 
HETATM    8  O   UNL     1      -9.461  20.220  67.186  1.00  0.00    -0.376 OA 
HETATM    9  O   UNL     1      -7.440  17.534  66.359  1.00  0.00    -0.244 OA 
HETATM   10  S   UNL     1      -8.550  19.861  68.265  1.00  0.00    -0.144 S  
ENDROOT
BRANCH   3  11
HETATM   11  N   UNL     1      -8.501  14.876  68.122  1.00  0.00    -0.141 N  
HETATM   12  O   UNL     1      -9.371  14.502  70.228  1.00  0.00     0.850 OA 
HETATM   13  C   UNL     1      -8.758  14.110  69.244  1.00  0.00     0.363 C  
HETATM   14  H   UNL     1      -7.853  14.509  67.425  1.00  0.00     0.000 HD 
BRANCH  13  15
HETATM   15  C   UNL     1      -8.202  12.688  69.266  1.00  0.00     0.773 C  
BRANCH  15  16
HETATM   16  C   UNL     1      -7.433  12.232  70.434  1.00  0.00     2.924 A  
HETATM   17  C   UNL     1      -6.259  12.473  72.291  1.00  0.00     3.149 A  
HETATM   18  N   UNL     1      -5.629  13.214  73.302  1.00  0.00    -0.087 NA 
HETATM   19  H2  UNL     1      -4.679  12.851  73.386  1.00  0.00     0.000 HD 
HETATM   20  C   UNL     1      -7.273  10.902  70.803  1.00  0.00     1.668 A  
HETATM   21  H1  UNL     1      -5.558  14.231  73.319  1.00  0.00     0.000 HD 
HETATM   22  S   UNL     1      -6.376  10.787  72.264  1.00  0.00     2.865 SA 
HETATM   23  N   UNL     1      -6.803  13.129  71.305  1.00  0.00     1.957 NA 
ENDBRANCH  15  16
BRANCH  15  24
HETATM   24  N   UNL     1      -8.364  11.811  68.315  1.00  0.00    -0.154 NA 
HETATM   25  H   UNL     1      -8.587  10.829  68.482  1.00  0.00     0.000 HD 
BRANCH  24  26
HETATM   26  O   UNL     1      -8.198  12.364  67.043  1.00  0.00    -0.178 OA 
HETATM   27  O   UNL     1      -6.571  12.634  65.100  1.00  0.00     5.018 OA 
HETATM   28  O   UNL     1      -7.540  11.122  63.749  1.00  0.00     0.532 OA 
HETATM   29  C   UNL     1      -8.234   9.959  66.406  1.00  0.00    -0.117 C  
HETATM   30  C   UNL     1      -9.906  11.646  65.502  1.00  0.00    -0.264 C  
HETATM   31  C   UNL     1      -8.479  11.414  65.987  1.00  0.00    -0.058 C  
HETATM   32  C   UNL     1      -7.454  11.801  64.913  1.00  0.00     2.382 C  
ENDBRANCH  24  26
ENDBRANCH  15  24
ENDBRANCH  13  15
ENDBRANCH   3  11
TORSDOF 5
ENDMDL
MODEL      246
REMARK 921   NORMALIZED FREE ENERGY PREDICTED BY IDOCK:   17.37 KCAL/MOL
REMARK 922        TOTAL FREE ENERGY PREDICTED BY IDOCK:   21.30 KCAL/MOL
REMARK 923 INTER-LIGAND FREE ENERGY PREDICTED BY IDOCK:   15.70 KCAL/MOL
REMARK 924 INTRA-LIGAND FREE ENERGY PREDICTED BY IDOCK:    5.59 KCAL/MOL
REMARK 927      BINDING AFFINITY PREDICTED BY RF-SCORE:    0.00 PKD
ROOT
HETATM    1  C   UNL     1     -12.055   8.090  68.216  1.00  0.00     3.541 C  
HETATM    2  C   UNL     1     -11.571   9.293  68.995  1.00  0.00     0.625 C  
HETATM    3  C   UNL     1     -12.618  10.444  69.121  1.00  0.00     0.865 C  
HETATM    4  O   UNL     1     -10.383   7.083  70.746  1.00  0.00    -0.205 OA 
HETATM    5  C   UNL     1     -12.317  10.318  70.673  1.00  0.00    -0.325 C  
HETATM    6  N   UNL     1     -11.595   9.160  70.449  1.00  0.00    -0.202 N  
HETATM    7  O   UNL     1     -10.533   8.673  72.597  1.00  0.00    -0.250 OA 
HETATM    8  O   UNL     1     -12.539   7.428  71.866  1.00  0.00    -0.312 OA 
HETATM    9  O   UNL     1     -12.578  10.886  71.704  1.00  0.00    -0.375 OA 
HETATM   10  S   UNL     1     -11.234   7.980  71.528  1.00  0.00    -0.265 S  
ENDROOT
BRANCH   3  11
HETATM   11  N   UNL     1     -12.337  11.760  68.466  1.00  0.00     0.178 N  
HETATM   12  O   UNL     1     -11.529  10.956  66.458  1.00  0.00    -0.173 OA 
HETATM   13  C   UNL     1     -11.899  11.887  67.161  1.00  0.00    -0.139 C  
HETATM   14  H   UNL     1     -12.477  12.610  69.014  1.00  0.00     0.000 HD 
BRANCH  13  15
HETATM   15  C   UNL     1     -11.840  13.294  66.573  1.00  0.00    -0.398 C  
BRANCH  15  16
HETATM   16  C   UNL     1     -11.825  13.467  65.113  1.00  0.00    -0.350 A  
HETATM   17  C   UNL     1     -11.318  14.468  63.208  1.00  0.00     2.187 A  
HETATM   18  N   UNL     1     -10.752  15.485  62.426  1.00  0.00     7.734 NA 
HETATM   19  H2  UNL     1     -11.473  15.793  61.774  1.00  0.00     0.000 HD 
HETATM   20  C   UNL     1     -12.322  12.540  64.204  1.00  0.00    -0.462 A  
HETATM   21  H1  UNL     1     -10.311  16.326  62.797  1.00  0.00     0.000 HD 
HETATM   22  S   UNL     1     -12.047  13.073  62.593  1.00  0.00     2.063 SA 
HETATM   23  N   UNL     1     -11.272  14.600  64.504  1.00  0.00    -0.325 NA 
ENDBRANCH  15  16
BRANCH  15  24
HETATM   24  N   UNL     1     -11.813  14.393  67.275  1.00  0.00    -0.400 NA 
HETATM   25  H   UNL     1     -12.340  15.234  67.033  1.00  0.00     0.000 HD 
BRANCH  24  26
HETATM   26  O   UNL     1     -10.982  14.294  68.394  1.00  0.00    -0.239 OA 
HETATM   27  O   UNL     1     -10.163  12.728  70.230  1.00  0.00     2.159 OA 
HETATM   28  O   UNL     1      -8.140  12.330  69.337  1.00  0.00     0.482 OA 
HETATM   29  C   UNL     1      -9.716  12.809  66.851  1.00  0.00    -0.234 C  
HETATM   30  C   UNL     1      -8.701  14.890  67.896  1.00  0.00    -0.164 C  
HETATM   31  C   UNL     1      -9.684  13.739  68.070  1.00  0.00    -0.232 C  
HETATM   32  C   UNL     1      -9.359  12.909  69.319  1.00  0.00     0.918 C  
ENDBRANCH  24  26
ENDBRANCH  15  24
ENDBRANCH  13  15
ENDBRANCH   3  11
TORSDOF 5
ENDMDL
MODEL      247
REMARK 921   NORMALIZED FREE ENERGY PREDICTED BY IDOCK:   28.03 KCAL/MOL
REMARK 922        TOTAL FREE ENERGY PREDICTED BY IDOCK:   35.08 KCAL/MOL
REMARK 923 INTER-LIGAND FREE ENERGY PREDICTED BY IDOCK:   35.08 KCAL/MOL
REMARK 924 INTRA-LIGAND FREE ENERGY PREDICTED BY IDOCK:   -0.00 KCAL/MOL
REMARK 927      BINDING AFFINITY PREDICTED BY RF-SCORE:    0.00 PKD
ROOT
HETATM    1  C   UNL     1      -9.289  19.650  73.116  1.00  0.00     4.214 C  
HETATM    2  C   UNL     1      -8.804  18.672  72.070  1.00  0.00    10.439 C  
HETATM    3  C   UNL     1      -9.627  18.687  70.743  1.00  0.00     3.272 C  
HETATM    4  O   UNL     1      -6.093  19.661  73.087  1.00  0.00     1.630 OA 
HETATM    5  C   UNL     1      -8.208  18.888  70.064  1.00  0.00     1.338 C  
HETATM    6  N   UNL     1      -7.632  19.090  71.304  1.00  0.00     3.506 N  
HETATM    7  O   UNL     1      -5.225  19.112  70.869  1.00  0.00    -0.214 OA 
HETATM    8  O   UNL     1      -6.466  21.219  71.228  1.00  0.00     1.154 OA 
HETATM    9  O   UNL     1      -7.717  18.919  68.962  1.00  0.00    -0.306 OA 
HETATM   10  S   UNL     1      -6.216  19.845  71.641  1.00  0.00     0.088 S  
ENDROOT
BRANCH   3  11
HETATM   11  N   UNL     1     -10.412  17.473  70.359  1.00  0.00     0.476 N  
HETATM   12  O   UNL     1      -9.770  17.360  68.143  1.00  0.00    -0.269 OA 
HETATM   13  C   UNL     1     -10.339  16.876  69.113  1.00  0.00    -0.319 C  
HETATM   14  H   UNL     1     -11.036  17.062  71.054  1.00  0.00     0.000 HD 
BRANCH  13  15
HETATM   15  C   UNL     1     -11.049  15.538  68.932  1.00  0.00    -0.282 C  
BRANCH  15  16
HETATM   16  C   UNL     1     -11.309  15.036  67.574  1.00  0.00    -0.333 A  
HETATM   17  C   UNL     1     -12.192  15.074  65.548  1.00  0.00     0.140 A  
HETATM   18  N   UNL     1     -12.987  15.611  64.525  1.00  0.00     0.245 NA 
HETATM   19  H2  UNL     1     -13.582  14.855  64.185  1.00  0.00     0.000 HD 
HETATM   20  C   UNL     1     -10.695  13.923  67.013  1.00  0.00    -0.283 A  
HETATM   21  H1  UNL     1     -13.582  16.433  64.622  1.00  0.00     0.000 HD 
HETATM   22  S   UNL     1     -11.206  13.711  65.386  1.00  0.00    -0.305 SA 
HETATM   23  N   UNL     1     -12.205  15.672  66.706  1.00  0.00     0.884 NA 
ENDBRANCH  15  16
BRANCH  15  24
HETATM   24  N   UNL     1     -11.450  14.770  69.907  1.00  0.00    -0.269 NA 
HETATM   25  H   UNL     1     -10.949  14.667  70.790  1.00  0.00     0.000 HD 
BRANCH  24  26
HETATM   26  O   UNL     1     -12.639  14.101  69.607  1.00  0.00    -0.262 OA 
HETATM   27  O   UNL     1     -13.649  12.154  68.309  1.00  0.00     4.860 OA 
HETATM   28  O   UNL     1     -13.938  10.797  70.076  1.00  0.00     1.297 OA 
HETATM   29  C   UNL     1     -11.560  12.343  70.997  1.00  0.00     1.172 C  
HETATM   30  C   UNL     1     -13.806  13.375  71.587  1.00  0.00    -0.107 C  
HETATM   31  C   UNL     1     -12.862  12.956  70.466  1.00  0.00     0.106 C  
HETATM   32  C   UNL     1     -13.531  11.956  69.515  1.00  0.00     3.206 C  
ENDBRANCH  24  26
ENDBRANCH  15  24
ENDBRANCH  13  15
ENDBRANCH   3  11
TORSDOF 5
ENDMDL
MODEL      248
REMARK 921   NORMALIZED FREE ENERGY PREDICTED BY IDOCK:   45.70 KCAL/MOL
REMARK 922        TOTAL FREE ENERGY PREDICTED BY IDOCK:   57.91 KCAL/MOL
REMARK 923 INTER-LIGAND FREE ENERGY PREDICTED BY IDOCK:   49.55 KCAL/MOL
REMARK 924 INTRA-LIGAND FREE ENERGY PREDICTED BY IDOCK:    8.36 KCAL/MOL
REMARK 927      BINDING AFFINITY PREDICTED BY RF-SCORE:    0.00 PKD
ROOT
HETATM    1  C   UNL     1      -9.125  17.910  67.915  1.00  0.00    -0.260 C  
HETATM    2  C   UNL     1     -10.325  17.268  67.256  1.00  0.00    -0.331 C  
HETATM    3  C   UNL     1     -11.613  17.249  68.139  1.00  0.00     0.738 C  
HETATM    4  O   UNL     1      -9.229  18.804  64.848  1.00  0.00     1.955 OA 
HETATM    5  C   UNL     1     -12.285  17.930  66.874  1.00  0.00     4.234 C  
HETATM    6  N   UNL     1     -11.042  18.098  66.293  1.00  0.00     0.327 N  
HETATM    7  O   UNL     1     -11.526  18.845  64.014  1.00  0.00     3.314 OA 
HETATM    8  O   UNL     1     -10.807  20.453  65.747  1.00  0.00    -0.097 OA 
HETATM    9  O   UNL     1     -13.378  18.256  66.484  1.00  0.00     9.663 OA 
HETATM   10  S   UNL     1     -10.624  19.156  65.111  1.00  0.00     1.309 S  
ENDROOT
BRANCH   3  11
HETATM   11  N   UNL     1     -12.166  15.936  68.594  1.00  0.00    -0.395 N  
HETATM   12  O   UNL     1     -10.529  15.413  70.137  1.00  0.00    -0.297 OA 
HETATM   13  C   UNL     1     -11.612  15.185  69.615  1.00  0.00    -0.311 C  
HETATM   14  H   UNL     1     -12.997  15.575  68.126  1.00  0.00     0.000 HD 
BRANCH  13  15
HETATM   15  C   UNL     1     -12.395  13.965  70.094  1.00  0.00    -0.334 C  
BRANCH  15  16
HETATM   16  C   UNL     1     -12.271  13.532  71.494  1.00  0.00     0.061 A  
HETATM   17  C   UNL     1     -12.234  12.076  73.156  1.00  0.00     6.439 A  
HETATM   18  N   UNL     1     -12.332  10.794  73.716  1.00  0.00     8.577 NA 
HETATM   19  H2  UNL     1     -12.975  10.864  74.505  1.00  0.00     0.000 HD 
HETATM   20  C   UNL     1     -11.921  14.366  72.550  1.00  0.00     0.159 A  
HETATM   21  H1  UNL     1     -12.590   9.952  73.200  1.00  0.00     0.000 HD 
HETATM   22  S   UNL     1     -11.807  13.469  74.011  1.00  0.00     6.361 SA 
HETATM   23  N   UNL     1     -12.480  12.204  71.883  1.00  0.00     0.109 NA 
ENDBRANCH  15  16
BRANCH  15  24
HETATM   24  N   UNL     1     -13.199  13.257  69.350  1.00  0.00     1.275 NA 
HETATM   25  H   UNL     1     -13.777  13.650  68.606  1.00  0.00     0.000 HD 
BRANCH  24  26
HETATM   26  O   UNL     1     -13.182  11.901  69.685  1.00  0.00     1.000 OA 
HETATM   27  O   UNL     1     -13.376   9.537  68.754  1.00  0.00     4.595 OA 
HETATM   28  O   UNL     1     -11.184   9.052  68.838  1.00  0.00     0.076 OA 
HETATM   29  C   UNL     1     -11.045  12.001  68.415  1.00  0.00    -0.290 C  
HETATM   30  C   UNL     1     -11.166  11.269  70.846  1.00  0.00     0.966 C  
HETATM   31  C   UNL     1     -11.877  11.302  69.498  1.00  0.00    -0.357 C  
HETATM   32  C   UNL     1     -12.230   9.888  69.017  1.00  0.00     1.067 C  
ENDBRANCH  24  26
ENDBRANCH  15  24
ENDBRANCH  13  15
ENDBRANCH   3  11
TORSDOF 5
ENDMDL
