MODEL        1
REMARK 921   NORMALIZED FREE ENERGY PREDICTED BY IDOCK:   -6.44 KCAL/MOL
REMARK 922        TOTAL FREE ENERGY PREDICTED BY IDOCK:  -11.47 KCAL/MOL
REMARK 923 INTER-LIGAND FREE ENERGY PREDICTED BY IDOCK:  -10.21 KCAL/MOL
REMARK 924 INTRA-LIGAND FREE ENERGY PREDICTED BY IDOCK:   -1.26 KCAL/MOL
REMARK 927      BINDING AFFINITY PREDICTED BY RF-SCORE:    0.00 PKD
ROOT
HETATM    1  C   UNL     1     -11.329  14.637  67.286  1.00  0.00    -0.353 C  
HETATM    2  S   UNL     1      -9.973  13.743  66.398  1.00  0.00    -0.303 SA 
HETATM    3  C   UNL     1      -9.321  12.926  67.925  1.00  0.00    -0.208 C  
HETATM    4  C   UNL     1     -10.474  12.976  68.949  1.00  0.00    -0.084 C  
HETATM    5  C   UNL     1      -8.819  11.520  67.597  1.00  0.00    -0.152 C  
HETATM    6  C   UNL     1      -8.104  13.753  68.393  1.00  0.00    -0.148 C  
HETATM    7  C   UNL     1     -11.043  16.088  67.764  1.00  0.00    -0.273 C  
HETATM    8  N   UNL     1     -11.218  14.209  68.692  1.00  0.00    -0.252 N  
HETATM    9  O   UNL     1     -10.158  15.714  70.140  1.00  0.00    -0.294 OA 
HETATM   10  C   UNL     1     -10.756  15.420  69.130  1.00  0.00    -0.246 C  
ENDROOT
BRANCH   4  11
HETATM   11  C   UNL     1     -11.484  11.810  68.909  1.00  0.00    -0.297 C  
HETATM   12  O   UNL     1     -12.179  11.489  67.953  1.00  0.00    -0.586 OA 
BRANCH  11  13
HETATM   13  O   UNL     1     -11.579  11.224  70.137  1.00  0.00    -0.310 OA 
BRANCH  13  14
HETATM   14  C   UNL     1     -12.893  11.316  70.711  1.00  0.00    -0.191 C  
HETATM   15  C   UNL     1     -13.358   9.957  71.210  1.00  0.00    -0.419 C  
BRANCH  14  16
HETATM   16  O   UNL     1     -12.843  12.174  71.859  1.00  0.00    -0.320 OA 
BRANCH  16  17
HETATM   17  C   UNL     1     -13.480  13.354  71.665  1.00  0.00    -0.299 C  
HETATM   18  O   UNL     1     -13.628  13.910  70.586  1.00  0.00     0.054 OA 
BRANCH  17  19
HETATM   19  O   UNL     1     -13.808  13.865  72.876  1.00  0.00    -0.662 OA 
BRANCH  19  20
HETATM   20  C   UNL     1     -13.576  15.274  73.018  1.00  0.00    -0.425 C  
HETATM   21  C   UNL     1     -12.178  15.488  73.572  1.00  0.00    -0.651 C  
ENDBRANCH  19  20
ENDBRANCH  17  19
ENDBRANCH  16  17
ENDBRANCH  14  16
ENDBRANCH  13  14
ENDBRANCH  11  13
ENDBRANCH   4  11
BRANCH   7  22
HETATM   22  N   UNL     1      -9.910  16.804  67.131  1.00  0.00    -0.252 N  
HETATM   23  H   UNL     1      -9.227  16.271  66.593  1.00  0.00     0.000 HD 
HETATM   24  C   UNL     1      -9.754  18.169  67.250  1.00  0.00    -0.297 C  
HETATM   25  O   UNL     1     -10.482  18.856  67.963  1.00  0.00    -0.385 OA 
BRANCH  24  26
HETATM   26  C   UNL     1      -8.584  18.752  66.424  1.00  0.00    -0.284 C  
HETATM   27  N   UNL     1      -7.955  17.679  65.605  1.00  0.00    -0.416 NA 
HETATM   28  H2  UNL     1      -8.637  17.198  65.017  1.00  0.00     0.000 HD 
HETATM   29  H1  UNL     1      -7.183  18.064  65.061  1.00  0.00     0.000 HD 
BRANCH  26  30
HETATM   30  C   UNL     1      -7.578  19.470  67.306  1.00  0.00    -0.275 A  
HETATM   31  C   UNL     1      -6.911  20.603  66.812  1.00  0.00    -0.343 A  
HETATM   32  C   UNL     1      -5.971  21.278  67.595  1.00  0.00    -0.423 A  
HETATM   33  C   UNL     1      -5.690  20.834  68.886  1.00  0.00    -0.398 A  
HETATM   34  C   UNL     1      -6.359  19.726  69.399  1.00  0.00    -0.365 A  
HETATM   35  C   UNL     1      -7.302  19.053  68.619  1.00  0.00    -0.353 A  
ENDBRANCH  26  30
ENDBRANCH  24  26
ENDBRANCH   7  22
TORSDOF 10
ENDMDL
MODEL        2
REMARK 921   NORMALIZED FREE ENERGY PREDICTED BY IDOCK:   -6.44 KCAL/MOL
REMARK 922        TOTAL FREE ENERGY PREDICTED BY IDOCK:  -11.46 KCAL/MOL
REMARK 923 INTER-LIGAND FREE ENERGY PREDICTED BY IDOCK:  -10.79 KCAL/MOL
REMARK 924 INTRA-LIGAND FREE ENERGY PREDICTED BY IDOCK:   -0.67 KCAL/MOL
REMARK 927      BINDING AFFINITY PREDICTED BY RF-SCORE:    0.00 PKD
ROOT
HETATM    1  C   UNL     1     -12.138  14.967  68.456  1.00  0.00    -0.158 C  
HETATM    2  S   UNL     1     -11.981  14.256  66.754  1.00  0.00    -0.408 SA 
HETATM    3  C   UNL     1     -10.658  13.051  67.228  1.00  0.00    -0.242 C  
HETATM    4  C   UNL     1     -10.761  12.902  68.760  1.00  0.00    -0.218 C  
HETATM    5  C   UNL     1     -10.828  11.748  66.446  1.00  0.00    -0.325 C  
HETATM    6  C   UNL     1      -9.310  13.672  66.802  1.00  0.00    -0.269 C  
HETATM    7  C   UNL     1     -11.304  16.236  68.786  1.00  0.00    -0.329 C  
HETATM    8  N   UNL     1     -11.195  14.197  69.285  1.00  0.00    -0.263 N  
HETATM    9  O   UNL     1      -9.146  15.235  69.743  1.00  0.00    -0.203 OA 
HETATM   10  C   UNL     1     -10.315  15.234  69.430  1.00  0.00    -0.254 C  
ENDROOT
BRANCH   4  11
HETATM   11  C   UNL     1     -11.744  11.836  69.285  1.00  0.00    -0.335 C  
HETATM   12  O   UNL     1     -12.457  11.111  68.602  1.00  0.00    -0.463 OA 
BRANCH  11  13
HETATM   13  O   UNL     1     -11.794  11.868  70.649  1.00  0.00    -0.280 OA 
BRANCH  13  14
HETATM   14  C   UNL     1     -13.006  11.316  71.187  1.00  0.00    -0.272 C  
HETATM   15  C   UNL     1     -12.825   9.842  71.515  1.00  0.00    -0.522 C  
BRANCH  14  16
HETATM   16  O   UNL     1     -13.310  11.973  72.425  1.00  0.00    -0.403 OA 
BRANCH  16  17
HETATM   17  C   UNL     1     -13.505  13.306  72.281  1.00  0.00    -0.582 C  
HETATM   18  O   UNL     1     -13.949  13.853  71.282  1.00  0.00    -0.172 OA 
BRANCH  17  19
HETATM   19  O   UNL     1     -13.010  13.929  73.377  1.00  0.00    -0.391 OA 
BRANCH  19  20
HETATM   20  C   UNL     1     -12.559  15.273  73.152  1.00  0.00    -0.463 C  
HETATM   21  C   UNL     1     -12.492  15.998  74.485  1.00  0.00    -0.687 C  
ENDBRANCH  19  20
ENDBRANCH  17  19
ENDBRANCH  16  17
ENDBRANCH  14  16
ENDBRANCH  13  14
ENDBRANCH  11  13
ENDBRANCH   4  11
BRANCH   7  22
HETATM   22  N   UNL     1     -10.787  17.029  67.646  1.00  0.00    -0.297 N  
HETATM   23  H   UNL     1     -10.877  16.655  66.701  1.00  0.00     0.000 HD 
HETATM   24  C   UNL     1     -10.188  18.258  67.826  1.00  0.00    -0.385 C  
HETATM   25  O   UNL     1      -9.957  18.722  68.941  1.00  0.00    -0.400 OA 
BRANCH  24  26
HETATM   26  C   UNL     1      -9.821  18.989  66.513  1.00  0.00    -0.369 C  
HETATM   27  N   UNL     1     -10.669  18.485  65.398  1.00  0.00    -0.525 NA 
HETATM   28  H2  UNL     1     -11.664  18.557  65.611  1.00  0.00     0.000 HD 
HETATM   29  H1  UNL     1     -10.427  18.966  64.532  1.00  0.00     0.000 HD 
BRANCH  26  30
HETATM   30  C   UNL     1      -8.338  18.880  66.207  1.00  0.00    -0.274 A  
HETATM   31  C   UNL     1      -7.669  17.669  66.448  1.00  0.00    -0.325 A  
HETATM   32  C   UNL     1      -6.303  17.541  66.187  1.00  0.00    -0.255 A  
HETATM   33  C   UNL     1      -5.586  18.620  65.675  1.00  0.00    -0.214 A  
HETATM   34  C   UNL     1      -6.238  19.822  65.409  1.00  0.00    -0.265 A  
HETATM   35  C   UNL     1      -7.605  19.949  65.665  1.00  0.00    -0.242 A  
ENDBRANCH  26  30
ENDBRANCH  24  26
ENDBRANCH   7  22
TORSDOF 10
ENDMDL
MODEL        3
REMARK 921   NORMALIZED FREE ENERGY PREDICTED BY IDOCK:   -6.32 KCAL/MOL
REMARK 922        TOTAL FREE ENERGY PREDICTED BY IDOCK:  -11.28 KCAL/MOL
REMARK 923 INTER-LIGAND FREE ENERGY PREDICTED BY IDOCK:   -9.78 KCAL/MOL
REMARK 924 INTRA-LIGAND FREE ENERGY PREDICTED BY IDOCK:   -1.50 KCAL/MOL
REMARK 927      BINDING AFFINITY PREDICTED BY RF-SCORE:    0.00 PKD
ROOT
HETATM    1  C   UNL     1      -9.879  14.729  69.156  1.00  0.00    -0.164 C  
HETATM    2  S   UNL     1     -11.053  15.701  68.106  1.00  0.00    -0.337 SA 
HETATM    3  C   UNL     1     -10.999  14.507  66.693  1.00  0.00    -0.321 C  
HETATM    4  C   UNL     1     -10.488  13.180  67.290  1.00  0.00    -0.243 C  
HETATM    5  C   UNL     1     -12.371  14.421  66.023  1.00  0.00    -0.337 C  
HETATM    6  C   UNL     1     -10.013  15.084  65.654  1.00  0.00    -0.387 C  
HETATM    7  C   UNL     1      -8.372  15.104  69.088  1.00  0.00    -0.221 C  
HETATM    8  N   UNL     1      -9.561  13.526  68.368  1.00  0.00    -0.215 N  
HETATM    9  O   UNL     1      -7.509  13.554  67.237  1.00  0.00    -0.147 OA 
HETATM   10  C   UNL     1      -8.277  13.917  68.099  1.00  0.00    -0.158 C  
ENDROOT
BRANCH   4  11
HETATM   11  C   UNL     1     -11.553  12.234  67.884  1.00  0.00    -0.354 C  
HETATM   12  O   UNL     1     -12.147  12.390  68.945  1.00  0.00    -0.265 OA 
BRANCH  11  13
HETATM   13  O   UNL     1     -11.687  11.122  67.105  1.00  0.00    -0.501 OA 
BRANCH  13  14
HETATM   14  C   UNL     1     -10.502  10.311  67.063  1.00  0.00    -0.244 C  
HETATM   15  C   UNL     1     -10.604   9.159  68.051  1.00  0.00    -0.253 C  
BRANCH  14  16
HETATM   16  O   UNL     1     -10.385   9.720  65.761  1.00  0.00    -0.209 OA 
BRANCH  16  17
HETATM   17  C   UNL     1      -9.442  10.318  64.994  1.00  0.00    -0.257 C  
HETATM   18  O   UNL     1      -8.354  10.713  65.387  1.00  0.00    -0.163 OA 
BRANCH  17  19
HETATM   19  O   UNL     1      -9.961  10.514  63.758  1.00  0.00    -0.323 OA 
BRANCH  19  20
HETATM   20  C   UNL     1     -10.299  11.876  63.456  1.00  0.00    -0.458 C  
HETATM   21  C   UNL     1     -11.805  12.043  63.561  1.00  0.00    -0.587 C  
ENDBRANCH  19  20
ENDBRANCH  17  19
ENDBRANCH  16  17
ENDBRANCH  14  16
ENDBRANCH  13  14
ENDBRANCH  11  13
ENDBRANCH   4  11
BRANCH   7  22
HETATM   22  N   UNL     1      -8.024  16.439  68.547  1.00  0.00    -0.192 N  
HETATM   23  H   UNL     1      -8.583  16.826  67.786  1.00  0.00     0.000 HD 
HETATM   24  C   UNL     1      -6.968  17.173  69.042  1.00  0.00    -0.235 C  
HETATM   25  O   UNL     1      -6.194  16.727  69.888  1.00  0.00    -0.224 OA 
BRANCH  24  26
HETATM   26  C   UNL     1      -6.833  18.590  68.436  1.00  0.00    -0.252 C  
HETATM   27  N   UNL     1      -6.264  19.523  69.448  1.00  0.00    -0.287 NA 
HETATM   28  H2  UNL     1      -5.380  19.182  69.827  1.00  0.00     0.000 HD 
HETATM   29  H1  UNL     1      -6.175  20.457  69.049  1.00  0.00     0.000 HD 
BRANCH  26  30
HETATM   30  C   UNL     1      -8.152  19.085  67.870  1.00  0.00    -0.309 A  
HETATM   31  C   UNL     1      -8.242  19.403  66.505  1.00  0.00    -0.326 A  
HETATM   32  C   UNL     1      -9.437  19.873  65.957  1.00  0.00    -0.403 A  
HETATM   33  C   UNL     1     -10.563  20.026  66.764  1.00  0.00    -0.454 A  
HETATM   34  C   UNL     1     -10.497  19.694  68.115  1.00  0.00    -0.503 A  
HETATM   35  C   UNL     1      -9.303  19.220  68.663  1.00  0.00    -0.446 A  
ENDBRANCH  26  30
ENDBRANCH  24  26
ENDBRANCH   7  22
TORSDOF 10
ENDMDL
MODEL        4
REMARK 921   NORMALIZED FREE ENERGY PREDICTED BY IDOCK:   -6.21 KCAL/MOL
REMARK 922        TOTAL FREE ENERGY PREDICTED BY IDOCK:  -11.11 KCAL/MOL
REMARK 923 INTER-LIGAND FREE ENERGY PREDICTED BY IDOCK:   -9.86 KCAL/MOL
REMARK 924 INTRA-LIGAND FREE ENERGY PREDICTED BY IDOCK:   -1.25 KCAL/MOL
REMARK 927      BINDING AFFINITY PREDICTED BY RF-SCORE:    0.00 PKD
ROOT
HETATM    1  C   UNL     1     -10.500  13.931  66.876  1.00  0.00    -0.276 C  
HETATM    2  S   UNL     1     -11.623  15.081  67.794  1.00  0.00    -0.268 SA 
HETATM    3  C   UNL     1     -10.266  16.241  68.282  1.00  0.00    -0.253 C  
HETATM    4  C   UNL     1      -9.110  15.966  67.298  1.00  0.00    -0.205 C  
HETATM    5  C   UNL     1     -10.779  17.682  68.280  1.00  0.00    -0.285 C  
HETATM    6  C   UNL     1      -9.877  15.893  69.735  1.00  0.00    -0.173 C  
HETATM    7  C   UNL     1      -9.931  12.709  67.650  1.00  0.00    -0.216 C  
HETATM    8  N   UNL     1      -9.162  14.543  66.967  1.00  0.00    -0.229 N  
HETATM    9  O   UNL     1      -7.723  13.628  68.572  1.00  0.00    -0.126 OA 
HETATM   10  C   UNL     1      -8.675  13.596  67.827  1.00  0.00    -0.184 C  
ENDROOT
BRANCH   4  11
HETATM   11  C   UNL     1      -9.133  16.752  65.970  1.00  0.00    -0.190 C  
HETATM   12  O   UNL     1     -10.124  16.998  65.293  1.00  0.00    -0.558 OA 
BRANCH  11  13
HETATM   13  O   UNL     1      -7.862  17.064  65.582  1.00  0.00    -0.280 OA 
BRANCH  13  14
HETATM   14  C   UNL     1      -7.219  18.011  66.451  1.00  0.00    -0.254 C  
HETATM   15  C   UNL     1      -5.832  18.359  65.932  1.00  0.00    -0.228 C  
BRANCH  14  16
HETATM   16  O   UNL     1      -7.971  19.232  66.450  1.00  0.00    -0.273 OA 
BRANCH  16  17
HETATM   17  C   UNL     1      -7.594  20.084  67.433  1.00  0.00    -0.281 C  
HETATM   18  O   UNL     1      -7.151  21.211  67.263  1.00  0.00    -0.433 OA 
BRANCH  17  19
HETATM   19  O   UNL     1      -7.674  19.431  68.617  1.00  0.00    -0.337 OA 
BRANCH  19  20
HETATM   20  C   UNL     1      -6.639  19.758  69.556  1.00  0.00    -0.353 C  
HETATM   21  C   UNL     1      -5.849  18.501  69.876  1.00  0.00    -0.242 C  
ENDBRANCH  19  20
ENDBRANCH  17  19
ENDBRANCH  16  17
ENDBRANCH  14  16
ENDBRANCH  13  14
ENDBRANCH  11  13
ENDBRANCH   4  11
BRANCH   7  22
HETATM   22  N   UNL     1     -10.629  12.303  68.893  1.00  0.00    -0.372 N  
HETATM   23  H   UNL     1     -10.377  12.755  69.772  1.00  0.00     0.000 HD 
HETATM   24  C   UNL     1     -11.608  11.332  68.894  1.00  0.00    -0.319 C  
HETATM   25  O   UNL     1     -11.890  10.679  67.892  1.00  0.00    -0.485 OA 
BRANCH  24  26
HETATM   26  C   UNL     1     -12.305  11.129  70.260  1.00  0.00    -0.315 C  
HETATM   27  N   UNL     1     -12.325  12.412  71.015  1.00  0.00    -0.361 NA 
HETATM   28  H2  UNL     1     -12.750  13.167  70.477  1.00  0.00     0.000 HD 
HETATM   29  H1  UNL     1     -12.784  12.278  71.916  1.00  0.00     0.000 HD 
BRANCH  26  30
HETATM   30  C   UNL     1     -11.668  10.002  71.052  1.00  0.00    -0.479 A  
HETATM   31  C   UNL     1     -12.468   9.209  71.892  1.00  0.00    -0.459 A  
HETATM   32  C   UNL     1     -11.910   8.173  72.643  1.00  0.00    -0.389 A  
HETATM   33  C   UNL     1     -10.544   7.908  72.560  1.00  0.00    -0.378 A  
HETATM   34  C   UNL     1      -9.740   8.669  71.716  1.00  0.00    -0.361 A  
HETATM   35  C   UNL     1     -10.298   9.703  70.961  1.00  0.00    -0.292 A  
ENDBRANCH  26  30
ENDBRANCH  24  26
ENDBRANCH   7  22
TORSDOF 10
ENDMDL
MODEL        5
REMARK 921   NORMALIZED FREE ENERGY PREDICTED BY IDOCK:   -6.19 KCAL/MOL
REMARK 922        TOTAL FREE ENERGY PREDICTED BY IDOCK:  -11.06 KCAL/MOL
REMARK 923 INTER-LIGAND FREE ENERGY PREDICTED BY IDOCK:   -9.79 KCAL/MOL
REMARK 924 INTRA-LIGAND FREE ENERGY PREDICTED BY IDOCK:   -1.28 KCAL/MOL
REMARK 927      BINDING AFFINITY PREDICTED BY RF-SCORE:    0.00 PKD
ROOT
HETATM    1  C   UNL     1     -10.427  13.487  66.863  1.00  0.00    -0.271 C  
HETATM    2  S   UNL     1     -11.669  14.516  67.771  1.00  0.00    -0.361 SA 
HETATM    3  C   UNL     1     -10.441  15.807  68.271  1.00  0.00    -0.259 C  
HETATM    4  C   UNL     1      -9.255  15.652  67.297  1.00  0.00    -0.204 C  
HETATM    5  C   UNL     1     -11.097  17.189  68.264  1.00  0.00    -0.118 C  
HETATM    6  C   UNL     1     -10.031  15.499  69.727  1.00  0.00    -0.281 C  
HETATM    7  C   UNL     1      -9.745  12.328  67.643  1.00  0.00    -0.194 C  
HETATM    8  N   UNL     1      -9.160  14.230  66.965  1.00  0.00    -0.223 N  
HETATM    9  O   UNL     1      -7.649  13.465  68.583  1.00  0.00    -0.126 OA 
HETATM   10  C   UNL     1      -8.587  13.338  67.829  1.00  0.00    -0.184 C  
ENDROOT
BRANCH   4  11
HETATM   11  C   UNL     1      -9.345  16.432  65.969  1.00  0.00    -0.300 C  
HETATM   12  O   UNL     1     -10.252  16.358  65.148  1.00  0.00    -0.582 OA 
BRANCH  11  13
HETATM   13  O   UNL     1      -8.210  17.163  65.770  1.00  0.00    -0.515 OA 
BRANCH  13  14
HETATM   14  C   UNL     1      -7.442  17.358  66.969  1.00  0.00    -0.198 C  
HETATM   15  C   UNL     1      -6.115  16.619  66.882  1.00  0.00    -0.169 C  
BRANCH  14  16
HETATM   16  O   UNL     1      -7.123  18.750  67.099  1.00  0.00    -0.203 OA 
BRANCH  16  17
HETATM   17  C   UNL     1      -8.054  19.442  67.798  1.00  0.00    -0.291 C  
HETATM   18  O   UNL     1      -8.350  19.248  68.969  1.00  0.00    -0.338 OA 
BRANCH  17  19
HETATM   19  O   UNL     1      -8.683  20.288  66.949  1.00  0.00    -0.325 OA 
BRANCH  19  20
HETATM   20  C   UNL     1     -10.117  20.245  67.006  1.00  0.00    -0.427 C  
HETATM   21  C   UNL     1     -10.650  19.840  65.643  1.00  0.00    -0.456 C  
ENDBRANCH  19  20
ENDBRANCH  17  19
ENDBRANCH  16  17
ENDBRANCH  14  16
ENDBRANCH  13  14
ENDBRANCH  11  13
ENDBRANCH   4  11
BRANCH   7  22
HETATM   22  N   UNL     1     -10.408  11.852  68.879  1.00  0.00    -0.373 N  
HETATM   23  H   UNL     1     -10.257  12.362  69.749  1.00  0.00     0.000 HD 
HETATM   24  C   UNL     1     -11.225  10.741  68.886  1.00  0.00    -0.268 C  
HETATM   25  O   UNL     1     -11.371  10.024  67.898  1.00  0.00    -0.204 OA 
BRANCH  24  26
HETATM   26  C   UNL     1     -11.923  10.469  70.239  1.00  0.00    -0.325 C  
HETATM   27  N   UNL     1     -12.173  11.754  70.949  1.00  0.00    -0.362 NA 
HETATM   28  H2  UNL     1     -12.697  12.414  70.373  1.00  0.00     0.000 HD 
HETATM   29  H1  UNL     1     -12.633  11.575  71.841  1.00  0.00     0.000 HD 
BRANCH  26  30
HETATM   30  C   UNL     1     -11.139   9.484  71.087  1.00  0.00    -0.450 A  
HETATM   31  C   UNL     1     -11.808   8.725  72.061  1.00  0.00    -0.442 A  
HETATM   32  C   UNL     1     -11.113   7.819  72.865  1.00  0.00    -0.457 A  
HETATM   33  C   UNL     1      -9.739   7.653  72.702  1.00  0.00    -0.251 A  
HETATM   34  C   UNL     1      -9.063   8.381  71.726  1.00  0.00    -0.283 A  
HETATM   35  C   UNL     1      -9.759   9.284  70.918  1.00  0.00    -0.346 A  
ENDBRANCH  26  30
ENDBRANCH  24  26
ENDBRANCH   7  22
TORSDOF 10
ENDMDL
MODEL        6
REMARK 921   NORMALIZED FREE ENERGY PREDICTED BY IDOCK:   -6.18 KCAL/MOL
REMARK 922        TOTAL FREE ENERGY PREDICTED BY IDOCK:  -11.06 KCAL/MOL
REMARK 923 INTER-LIGAND FREE ENERGY PREDICTED BY IDOCK:   -9.41 KCAL/MOL
REMARK 924 INTRA-LIGAND FREE ENERGY PREDICTED BY IDOCK:   -1.65 KCAL/MOL
REMARK 927      BINDING AFFINITY PREDICTED BY RF-SCORE:    0.00 PKD
ROOT
HETATM    1  C   UNL     1     -11.365  15.580  67.383  1.00  0.00    -0.203 C  
HETATM    2  S   UNL     1      -9.774  15.131  66.549  1.00  0.00    -0.289 SA 
HETATM    3  C   UNL     1      -9.431  13.696  67.666  1.00  0.00    -0.221 C  
HETATM    4  C   UNL     1     -10.789  13.323  68.294  1.00  0.00    -0.256 C  
HETATM    5  C   UNL     1      -8.757  12.569  66.883  1.00  0.00    -0.182 C  
HETATM    6  C   UNL     1      -8.423  14.185  68.730  1.00  0.00    -0.069 C  
HETATM    7  C   UNL     1     -11.311  16.654  68.506  1.00  0.00    -0.152 C  
HETATM    8  N   UNL     1     -11.548  14.566  68.436  1.00  0.00    -0.309 N  
HETATM    9  O   UNL     1     -10.973  15.227  70.608  1.00  0.00    -0.307 OA 
HETATM   10  C   UNL     1     -11.297  15.436  69.462  1.00  0.00    -0.301 C  
ENDROOT
BRANCH   4  11
HETATM   11  C   UNL     1     -11.667  12.333  67.501  1.00  0.00    -0.332 C  
HETATM   12  O   UNL     1     -11.880  12.362  66.294  1.00  0.00    -0.473 OA 
BRANCH  11  13
HETATM   13  O   UNL     1     -12.274  11.453  68.349  1.00  0.00    -0.571 OA 
BRANCH  13  14
HETATM   14  C   UNL     1     -11.560  11.267  69.582  1.00  0.00    -0.330 C  
HETATM   15  C   UNL     1     -12.489  11.450  70.772  1.00  0.00    -0.460 C  
BRANCH  14  16
HETATM   16  O   UNL     1     -11.079   9.918  69.646  1.00  0.00    -0.240 OA 
BRANCH  16  17
HETATM   17  C   UNL     1      -9.791   9.836  70.058  1.00  0.00    -0.251 C  
HETATM   18  O   UNL     1      -8.810  10.066  69.366  1.00  0.00    -0.165 OA 
BRANCH  17  19
HETATM   19  O   UNL     1      -9.778   9.337  71.317  1.00  0.00    -0.282 OA 
BRANCH  19  20
HETATM   20  C   UNL     1     -10.379   8.041  71.457  1.00  0.00    -0.209 C  
HETATM   21  C   UNL     1     -11.419   8.099  72.563  1.00  0.00    -0.470 C  
ENDBRANCH  19  20
ENDBRANCH  17  19
ENDBRANCH  16  17
ENDBRANCH  14  16
ENDBRANCH  13  14
ENDBRANCH  11  13
ENDBRANCH   4  11
BRANCH   7  22
HETATM   22  N   UNL     1     -10.123  17.538  68.549  1.00  0.00    -0.341 N  
HETATM   23  H   UNL     1      -9.287  17.219  69.039  1.00  0.00     0.000 HD 
HETATM   24  C   UNL     1     -10.115  18.778  67.946  1.00  0.00    -0.366 C  
HETATM   25  O   UNL     1     -11.118  19.264  67.426  1.00  0.00    -0.444 OA 
BRANCH  24  26
HETATM   26  C   UNL     1      -8.751  19.503  67.994  1.00  0.00    -0.324 C  
HETATM   27  N   UNL     1      -8.740  20.629  67.019  1.00  0.00    -0.567 NA 
HETATM   28  H2  UNL     1      -9.520  21.270  67.167  1.00  0.00     0.000 HD 
HETATM   29  H1  UNL     1      -7.840  21.108  67.050  1.00  0.00     0.000 HD 
BRANCH  26  30
HETATM   30  C   UNL     1      -7.596  18.542  67.778  1.00  0.00    -0.243 A  
HETATM   31  C   UNL     1      -7.279  18.124  66.474  1.00  0.00    -0.268 A  
HETATM   32  C   UNL     1      -6.231  17.231  66.244  1.00  0.00    -0.197 A  
HETATM   33  C   UNL     1      -5.479  16.747  67.313  1.00  0.00    -0.181 A  
HETATM   34  C   UNL     1      -5.766  17.167  68.609  1.00  0.00    -0.143 A  
HETATM   35  C   UNL     1      -6.811  18.064  68.840  1.00  0.00    -0.256 A  
ENDBRANCH  26  30
ENDBRANCH  24  26
ENDBRANCH   7  22
TORSDOF 10
ENDMDL
MODEL        7
REMARK 921   NORMALIZED FREE ENERGY PREDICTED BY IDOCK:   -6.16 KCAL/MOL
REMARK 922        TOTAL FREE ENERGY PREDICTED BY IDOCK:  -11.02 KCAL/MOL
REMARK 923 INTER-LIGAND FREE ENERGY PREDICTED BY IDOCK:   -9.78 KCAL/MOL
REMARK 924 INTRA-LIGAND FREE ENERGY PREDICTED BY IDOCK:   -1.23 KCAL/MOL
REMARK 927      BINDING AFFINITY PREDICTED BY RF-SCORE:    0.00 PKD
ROOT
HETATM    1  C   UNL     1     -11.897  14.669  67.943  1.00  0.00    -0.320 C  
HETATM    2  S   UNL     1     -11.370  14.208  66.230  1.00  0.00    -0.348 SA 
HETATM    3  C   UNL     1      -9.904  13.229  66.792  1.00  0.00    -0.264 C  
HETATM    4  C   UNL     1     -10.179  12.882  68.270  1.00  0.00    -0.245 C  
HETATM    5  C   UNL     1      -9.697  12.020  65.879  1.00  0.00    -0.256 C  
HETATM    6  C   UNL     1      -8.668  14.140  66.638  1.00  0.00    -0.073 C  
HETATM    7  C   UNL     1     -11.392  16.025  68.512  1.00  0.00    -0.382 C  
HETATM    8  N   UNL     1     -10.936  13.998  68.836  1.00  0.00    -0.254 N  
HETATM    9  O   UNL     1      -9.223  15.344  69.697  1.00  0.00    -0.264 OA 
HETATM   10  C   UNL     1     -10.315  15.159  69.209  1.00  0.00    -0.257 C  
ENDROOT
BRANCH   4  11
HETATM   11  C   UNL     1     -10.984  11.593  68.539  1.00  0.00    -0.220 C  
HETATM   12  O   UNL     1     -12.101  11.336  68.106  1.00  0.00    -0.635 OA 
BRANCH  11  13
HETATM   13  O   UNL     1     -10.319  10.794  69.422  1.00  0.00    -0.218 OA 
BRANCH  13  14
HETATM   14  C   UNL     1     -10.908   9.491  69.565  1.00  0.00    -0.222 C  
HETATM   15  C   UNL     1     -10.142   8.463  68.746  1.00  0.00    -0.209 C  
BRANCH  14  16
HETATM   16  O   UNL     1     -10.803   9.078  70.935  1.00  0.00    -0.222 OA 
BRANCH  16  17
HETATM   17  C   UNL     1     -11.972   9.188  71.610  1.00  0.00    -0.367 C  
HETATM   18  O   UNL     1     -12.892   9.938  71.317  1.00  0.00    -0.339 OA 
BRANCH  17  19
HETATM   19  O   UNL     1     -11.893   8.423  72.725  1.00  0.00    -0.371 OA 
BRANCH  19  20
HETATM   20  C   UNL     1     -11.175   7.191  72.561  1.00  0.00    -0.290 C  
HETATM   21  C   UNL     1     -10.178   7.048  73.697  1.00  0.00    -0.396 C  
ENDBRANCH  19  20
ENDBRANCH  17  19
ENDBRANCH  16  17
ENDBRANCH  14  16
ENDBRANCH  13  14
ENDBRANCH  11  13
ENDBRANCH   4  11
BRANCH   7  22
HETATM   22  N   UNL     1     -10.901  17.031  67.542  1.00  0.00    -0.263 N  
HETATM   23  H   UNL     1     -10.958  16.826  66.544  1.00  0.00     0.000 HD 
HETATM   24  C   UNL     1     -10.369  18.236  67.949  1.00  0.00    -0.399 C  
HETATM   25  O   UNL     1     -10.178  18.506  69.134  1.00  0.00    -0.320 OA 
BRANCH  24  26
HETATM   26  C   UNL     1     -10.021  19.205  66.795  1.00  0.00    -0.361 C  
HETATM   27  N   UNL     1     -10.520  18.656  65.504  1.00  0.00    -0.539 NA 
HETATM   28  H2  UNL     1     -11.517  18.443  65.539  1.00  0.00     0.000 HD 
HETATM   29  H1  UNL     1     -10.291  19.294  64.742  1.00  0.00     0.000 HD 
BRANCH  26  30
HETATM   30  C   UNL     1      -8.537  19.520  66.754  1.00  0.00    -0.350 A  
HETATM   31  C   UNL     1      -7.661  18.640  66.097  1.00  0.00    -0.262 A  
HETATM   32  C   UNL     1      -6.290  18.895  66.052  1.00  0.00    -0.236 A  
HETATM   33  C   UNL     1      -5.772  20.038  66.659  1.00  0.00    -0.180 A  
HETATM   34  C   UNL     1      -6.628  20.932  67.296  1.00  0.00    -0.403 A  
HETATM   35  C   UNL     1      -8.001  20.680  67.337  1.00  0.00    -0.315 A  
ENDBRANCH  26  30
ENDBRANCH  24  26
ENDBRANCH   7  22
TORSDOF 10
ENDMDL
MODEL        8
REMARK 921   NORMALIZED FREE ENERGY PREDICTED BY IDOCK:   -6.13 KCAL/MOL
REMARK 922        TOTAL FREE ENERGY PREDICTED BY IDOCK:  -10.98 KCAL/MOL
REMARK 923 INTER-LIGAND FREE ENERGY PREDICTED BY IDOCK:   -9.90 KCAL/MOL
REMARK 924 INTRA-LIGAND FREE ENERGY PREDICTED BY IDOCK:   -1.07 KCAL/MOL
REMARK 927      BINDING AFFINITY PREDICTED BY RF-SCORE:    0.00 PKD
ROOT
HETATM    1  C   UNL     1     -11.259  15.018  67.053  1.00  0.00    -0.328 C  
HETATM    2  S   UNL     1      -9.947  14.156  66.074  1.00  0.00    -0.318 SA 
HETATM    3  C   UNL     1      -9.422  13.065  67.473  1.00  0.00    -0.198 C  
HETATM    4  C   UNL     1     -10.606  13.058  68.462  1.00  0.00    -0.258 C  
HETATM    5  C   UNL     1      -9.022  11.687  66.945  1.00  0.00    -0.191 C  
HETATM    6  C   UNL     1      -8.161  13.704  68.094  1.00  0.00    -0.158 C  
HETATM    7  C   UNL     1     -10.876  16.350  67.756  1.00  0.00    -0.306 C  
HETATM    8  N   UNL     1     -11.238  14.375  68.379  1.00  0.00    -0.261 N  
HETATM    9  O   UNL     1     -10.117  15.546  70.069  1.00  0.00    -0.301 OA 
HETATM   10  C   UNL     1     -10.697  15.461  69.011  1.00  0.00    -0.242 C  
ENDROOT
BRANCH   4  11
HETATM   11  C   UNL     1     -11.704  12.002  68.216  1.00  0.00    -0.334 C  
HETATM   12  O   UNL     1     -12.127  11.640  67.125  1.00  0.00    -0.575 OA 
BRANCH  11  13
HETATM   13  O   UNL     1     -12.228  11.579  69.403  1.00  0.00    -0.289 OA 
BRANCH  13  14
HETATM   14  C   UNL     1     -11.414  10.599  70.067  1.00  0.00    -0.325 C  
HETATM   15  C   UNL     1     -12.162   9.989  71.243  1.00  0.00    -0.498 C  
BRANCH  14  16
HETATM   16  O   UNL     1     -11.142   9.524  69.158  1.00  0.00    -0.171 OA 
BRANCH  16  17
HETATM   17  C   UNL     1      -9.980   8.883  69.432  1.00  0.00    -0.192 C  
HETATM   18  O   UNL     1      -8.977   9.402  69.900  1.00  0.00    -0.166 OA 
BRANCH  17  19
HETATM   19  O   UNL     1     -10.081   7.609  68.984  1.00  0.00    -0.187 OA 
BRANCH  19  20
HETATM   20  C   UNL     1     -11.025   6.793  69.694  1.00  0.00    -0.288 C  
HETATM   21  C   UNL     1     -10.500   5.369  69.748  1.00  0.00    -0.378 C  
ENDBRANCH  19  20
ENDBRANCH  17  19
ENDBRANCH  16  17
ENDBRANCH  14  16
ENDBRANCH  13  14
ENDBRANCH  11  13
ENDBRANCH   4  11
BRANCH   7  22
HETATM   22  N   UNL     1      -9.665  17.054  67.271  1.00  0.00    -0.247 N  
HETATM   23  H   UNL     1      -8.856  16.505  66.983  1.00  0.00     0.000 HD 
HETATM   24  C   UNL     1      -9.603  18.430  67.199  1.00  0.00    -0.295 C  
HETATM   25  O   UNL     1     -10.501  19.154  67.623  1.00  0.00    -0.396 OA 
BRANCH  24  26
HETATM   26  C   UNL     1      -8.307  18.978  66.557  1.00  0.00    -0.305 C  
HETATM   27  N   UNL     1      -7.635  17.905  65.773  1.00  0.00    -0.552 NA 
HETATM   28  H2  UNL     1      -8.260  17.488  65.081  1.00  0.00     0.000 HD 
HETATM   29  H1  UNL     1      -6.781  18.265  65.350  1.00  0.00     0.000 HD 
BRANCH  26  30
HETATM   30  C   UNL     1      -7.387  19.598  67.592  1.00  0.00    -0.289 A  
HETATM   31  C   UNL     1      -6.613  20.719  67.247  1.00  0.00    -0.374 A  
HETATM   32  C   UNL     1      -5.748  21.304  68.173  1.00  0.00    -0.342 A  
HETATM   33  C   UNL     1      -5.649  20.785  69.462  1.00  0.00    -0.406 A  
HETATM   34  C   UNL     1      -6.426  19.688  69.829  1.00  0.00    -0.355 A  
HETATM   35  C   UNL     1      -7.295  19.104  68.904  1.00  0.00    -0.379 A  
ENDBRANCH  26  30
ENDBRANCH  24  26
ENDBRANCH   7  22
TORSDOF 10
ENDMDL
MODEL        9
REMARK 921   NORMALIZED FREE ENERGY PREDICTED BY IDOCK:   -6.13 KCAL/MOL
REMARK 922        TOTAL FREE ENERGY PREDICTED BY IDOCK:  -10.97 KCAL/MOL
REMARK 923 INTER-LIGAND FREE ENERGY PREDICTED BY IDOCK:   -9.16 KCAL/MOL
REMARK 924 INTRA-LIGAND FREE ENERGY PREDICTED BY IDOCK:   -1.81 KCAL/MOL
REMARK 927      BINDING AFFINITY PREDICTED BY RF-SCORE:    0.00 PKD
ROOT
HETATM    1  C   UNL     1     -11.259  15.592  67.225  1.00  0.00    -0.226 C  
HETATM    2  S   UNL     1      -9.654  15.152  66.414  1.00  0.00    -0.304 SA 
HETATM    3  C   UNL     1      -9.288  13.759  67.576  1.00  0.00    -0.222 C  
HETATM    4  C   UNL     1     -10.643  13.377  68.207  1.00  0.00    -0.254 C  
HETATM    5  C   UNL     1      -8.586  12.623  66.832  1.00  0.00    -0.151 C  
HETATM    6  C   UNL     1      -8.298  14.301  68.630  1.00  0.00    -0.135 C  
HETATM    7  C   UNL     1     -11.235  16.700  68.315  1.00  0.00    -0.220 C  
HETATM    8  N   UNL     1     -11.429  14.606  68.307  1.00  0.00    -0.299 N  
HETATM    9  O   UNL     1     -10.881  15.345  70.462  1.00  0.00    -0.309 OA 
HETATM   10  C   UNL     1     -11.202  15.513  69.307  1.00  0.00    -0.310 C  
ENDROOT
BRANCH   4  11
HETATM   11  C   UNL     1     -11.495  12.345  67.439  1.00  0.00    -0.352 C  
HETATM   12  O   UNL     1     -11.672  12.312  66.227  1.00  0.00    -0.426 OA 
BRANCH  11  13
HETATM   13  O   UNL     1     -12.125  11.506  68.313  1.00  0.00    -0.580 OA 
BRANCH  13  14
HETATM   14  C   UNL     1     -11.361  11.245  69.502  1.00  0.00    -0.294 C  
HETATM   15  C   UNL     1     -12.222  11.423  70.742  1.00  0.00    -0.475 C  
BRANCH  14  16
HETATM   16  O   UNL     1     -10.937   9.875  69.494  1.00  0.00    -0.231 OA 
BRANCH  16  17
HETATM   17  C   UNL     1      -9.621   9.731  69.207  1.00  0.00    -0.197 C  
HETATM   18  O   UNL     1      -8.736  10.511  69.529  1.00  0.00    -0.129 OA 
BRANCH  17  19
HETATM   19  O   UNL     1      -9.477   8.652  68.401  1.00  0.00    -0.137 OA 
BRANCH  19  20
HETATM   20  C   UNL     1     -10.328   8.646  67.245  1.00  0.00    -0.296 C  
HETATM   21  C   UNL     1      -9.570   9.245  66.074  1.00  0.00    -0.338 C  
ENDBRANCH  19  20
ENDBRANCH  17  19
ENDBRANCH  16  17
ENDBRANCH  14  16
ENDBRANCH  13  14
ENDBRANCH  11  13
ENDBRANCH   4  11
BRANCH   7  22
HETATM   22  N   UNL     1     -10.066  17.610  68.338  1.00  0.00    -0.345 N  
HETATM   23  H   UNL     1      -9.240  17.341  68.874  1.00  0.00     0.000 HD 
HETATM   24  C   UNL     1     -10.062  18.808  67.657  1.00  0.00    -0.367 C  
HETATM   25  O   UNL     1     -11.055  19.240  67.075  1.00  0.00    -0.391 OA 
BRANCH  24  26
HETATM   26  C   UNL     1      -8.713  19.564  67.700  1.00  0.00    -0.315 C  
HETATM   27  N   UNL     1      -8.623  20.508  66.552  1.00  0.00    -0.545 NA 
HETATM   28  H2  UNL     1      -9.419  21.145  66.517  1.00  0.00     0.000 HD 
HETATM   29  H1  UNL     1      -7.733  21.006  66.580  1.00  0.00     0.000 HD 
BRANCH  26  30
HETATM   30  C   UNL     1      -7.536  18.607  67.755  1.00  0.00    -0.241 A  
HETATM   31  C   UNL     1      -6.835  18.443  68.962  1.00  0.00    -0.280 A  
HETATM   32  C   UNL     1      -5.741  17.579  69.042  1.00  0.00    -0.185 A  
HETATM   33  C   UNL     1      -5.334  16.862  67.919  1.00  0.00    -0.128 A  
HETATM   34  C   UNL     1      -6.030  16.997  66.720  1.00  0.00    -0.227 A  
HETATM   35  C   UNL     1      -7.128  17.856  66.640  1.00  0.00    -0.254 A  
ENDBRANCH  26  30
ENDBRANCH  24  26
ENDBRANCH   7  22
TORSDOF 10
ENDMDL
MODEL       10
REMARK 921   NORMALIZED FREE ENERGY PREDICTED BY IDOCK:   -6.08 KCAL/MOL
REMARK 922        TOTAL FREE ENERGY PREDICTED BY IDOCK:  -10.90 KCAL/MOL
REMARK 923 INTER-LIGAND FREE ENERGY PREDICTED BY IDOCK:   -9.62 KCAL/MOL
REMARK 924 INTRA-LIGAND FREE ENERGY PREDICTED BY IDOCK:   -1.28 KCAL/MOL
REMARK 927      BINDING AFFINITY PREDICTED BY RF-SCORE:    0.00 PKD
ROOT
HETATM    1  C   UNL     1     -10.681  11.076  66.151  1.00  0.00    -0.194 C  
HETATM    2  S   UNL     1      -8.870  10.852  65.837  1.00  0.00    -0.188 SA 
HETATM    3  C   UNL     1      -8.494  10.318  67.568  1.00  0.00    -0.118 C  
HETATM    4  C   UNL     1      -9.838   9.851  68.162  1.00  0.00    -0.147 C  
HETATM    5  C   UNL     1      -7.393   9.256  67.564  1.00  0.00    -0.087 C  
HETATM    6  C   UNL     1      -7.939  11.554  68.310  1.00  0.00    -0.142 C  
HETATM    7  C   UNL     1     -11.174  12.497  66.541  1.00  0.00    -0.307 C  
HETATM    8  N   UNL     1     -10.882  10.678  67.555  1.00  0.00    -0.276 N  
HETATM    9  O   UNL     1     -11.057  12.429  69.101  1.00  0.00    -0.244 OA 
HETATM   10  C   UNL     1     -11.116  11.954  67.990  1.00  0.00    -0.240 C  
ENDROOT
BRANCH   4  11
HETATM   11  C   UNL     1     -10.222   8.376  67.924  1.00  0.00    -0.217 C  
HETATM   12  O   UNL     1     -10.767   7.923  66.925  1.00  0.00    -0.333 OA 
BRANCH  11  13
HETATM   13  O   UNL     1      -9.960   7.633  69.039  1.00  0.00    -0.172 OA 
BRANCH  13  14
HETATM   14  C   UNL     1     -11.022   7.664  70.006  1.00  0.00    -0.228 C  
HETATM   15  C   UNL     1     -11.475   6.254  70.351  1.00  0.00    -0.414 C  
BRANCH  14  16
HETATM   16  O   UNL     1     -10.530   8.241  71.223  1.00  0.00    -0.201 OA 
BRANCH  16  17
HETATM   17  C   UNL     1     -11.491   8.880  71.931  1.00  0.00    -0.372 C  
HETATM   18  O   UNL     1     -12.163   8.382  72.824  1.00  0.00    -0.339 OA 
BRANCH  17  19
HETATM   19  O   UNL     1     -11.665  10.113  71.398  1.00  0.00    -0.360 OA 
BRANCH  19  20
HETATM   20  C   UNL     1     -13.034  10.522  71.262  1.00  0.00    -0.433 C  
HETATM   21  C   UNL     1     -13.200  11.897  71.885  1.00  0.00    -0.467 C  
ENDBRANCH  19  20
ENDBRANCH  17  19
ENDBRANCH  16  17
ENDBRANCH  14  16
ENDBRANCH  13  14
ENDBRANCH  11  13
ENDBRANCH   4  11
BRANCH   7  22
HETATM   22  N   UNL     1     -10.282  13.639  66.230  1.00  0.00    -0.289 N  
HETATM   23  H   UNL     1      -9.408  13.463  65.735  1.00  0.00     0.000 HD 
HETATM   24  C   UNL     1     -10.601  14.931  66.591  1.00  0.00    -0.305 C  
HETATM   25  O   UNL     1     -11.587  15.201  67.274  1.00  0.00    -0.323 OA 
BRANCH  24  26
HETATM   26  C   UNL     1      -9.609  16.001  66.077  1.00  0.00    -0.350 C  
HETATM   27  N   UNL     1      -8.212  15.503  66.209  1.00  0.00    -0.312 NA 
HETATM   28  H2  UNL     1      -8.081  14.604  65.744  1.00  0.00     0.000 HD 
HETATM   29  H1  UNL     1      -7.558  16.209  65.870  1.00  0.00     0.000 HD 
BRANCH  26  30
HETATM   30  C   UNL     1      -9.815  17.335  66.770  1.00  0.00    -0.296 A  
HETATM   31  C   UNL     1     -10.499  18.364  66.101  1.00  0.00    -0.422 A  
HETATM   32  C   UNL     1     -10.694  19.606  66.707  1.00  0.00    -0.562 A  
HETATM   33  C   UNL     1     -10.215  19.838  67.995  1.00  0.00    -0.581 A  
HETATM   34  C   UNL     1      -9.554  18.822  68.682  1.00  0.00    -0.432 A  
HETATM   35  C   UNL     1      -9.363  17.577  68.078  1.00  0.00    -0.272 A  
ENDBRANCH  26  30
ENDBRANCH  24  26
ENDBRANCH   7  22
TORSDOF 10
ENDMDL
MODEL       11
REMARK 921   NORMALIZED FREE ENERGY PREDICTED BY IDOCK:   -6.08 KCAL/MOL
REMARK 922        TOTAL FREE ENERGY PREDICTED BY IDOCK:  -10.89 KCAL/MOL
REMARK 923 INTER-LIGAND FREE ENERGY PREDICTED BY IDOCK:   -9.64 KCAL/MOL
REMARK 924 INTRA-LIGAND FREE ENERGY PREDICTED BY IDOCK:   -1.25 KCAL/MOL
REMARK 927      BINDING AFFINITY PREDICTED BY RF-SCORE:    0.00 PKD
ROOT
HETATM    1  C   UNL     1     -11.301  14.331  67.183  1.00  0.00    -0.337 C  
HETATM    2  S   UNL     1      -9.802  13.632  68.012  1.00  0.00    -0.250 SA 
HETATM    3  C   UNL     1      -8.932  15.261  68.127  1.00  0.00    -0.173 C  
HETATM    4  C   UNL     1     -10.034  16.331  67.987  1.00  0.00    -0.240 C  
HETATM    5  C   UNL     1      -8.127  15.338  69.424  1.00  0.00    -0.230 C  
HETATM    6  C   UNL     1      -7.927  15.319  66.956  1.00  0.00    -0.243 C  
HETATM    7  C   UNL     1     -11.346  14.299  65.629  1.00  0.00    -0.317 C  
HETATM    8  N   UNL     1     -11.052  15.781  67.092  1.00  0.00    -0.241 N  
HETATM    9  O   UNL     1     -10.328  16.569  65.009  1.00  0.00    -0.622 OA 
HETATM   10  C   UNL     1     -10.871  15.769  65.736  1.00  0.00    -0.280 C  
ENDROOT
BRANCH   4  11
HETATM   11  C   UNL     1     -10.746  16.763  69.287  1.00  0.00    -0.324 C  
HETATM   12  O   UNL     1     -11.500  16.071  69.961  1.00  0.00    -0.323 OA 
BRANCH  11  13
HETATM   13  O   UNL     1     -10.501  18.080  69.547  1.00  0.00    -0.017 OA 
BRANCH  13  14
HETATM   14  C   UNL     1      -9.730  18.728  68.522  1.00  0.00    -0.380 C  
HETATM   15  C   UNL     1     -10.633  19.524  67.593  1.00  0.00    -0.566 C  
BRANCH  14  16
HETATM   16  O   UNL     1      -8.842  19.674  69.134  1.00  0.00    -0.259 OA 
BRANCH  16  17
HETATM   17  C   UNL     1      -7.567  19.565  68.689  1.00  0.00    -0.354 C  
HETATM   18  O   UNL     1      -6.800  18.651  68.955  1.00  0.00    -0.267 OA 
BRANCH  17  19
HETATM   19  O   UNL     1      -7.254  20.695  68.011  1.00  0.00    -0.249 OA 
BRANCH  19  20
HETATM   20  C   UNL     1      -6.565  20.482  66.770  1.00  0.00    -0.249 C  
HETATM   21  C   UNL     1      -7.402  19.567  65.894  1.00  0.00    -0.314 C  
ENDBRANCH  19  20
ENDBRANCH  17  19
ENDBRANCH  16  17
ENDBRANCH  14  16
ENDBRANCH  13  14
ENDBRANCH  11  13
ENDBRANCH   4  11
BRANCH   7  22
HETATM   22  N   UNL     1     -10.430  13.361  64.939  1.00  0.00    -0.372 N  
HETATM   23  H   UNL     1      -9.423  13.466  65.069  1.00  0.00     0.000 HD 
HETATM   24  C   UNL     1     -10.898  12.350  64.127  1.00  0.00    -0.372 C  
HETATM   25  O   UNL     1     -12.090  12.227  63.848  1.00  0.00    -0.430 OA 
BRANCH  24  26
HETATM   26  C   UNL     1      -9.802  11.400  63.591  1.00  0.00    -0.348 C  
HETATM   27  N   UNL     1     -10.338  10.594  62.459  1.00  0.00    -0.697 NA 
HETATM   28  H2  UNL     1     -10.730  11.182  61.723  1.00  0.00     0.000 HD 
HETATM   29  H1  UNL     1      -9.615   9.967  62.105  1.00  0.00     0.000 HD 
BRANCH  26  30
HETATM   30  C   UNL     1      -9.223  10.533  64.694  1.00  0.00    -0.274 A  
HETATM   31  C   UNL     1     -10.069  10.035  65.699  1.00  0.00    -0.321 A  
HETATM   32  C   UNL     1      -9.564   9.244  66.733  1.00  0.00    -0.240 A  
HETATM   33  C   UNL     1      -8.206   8.934  66.776  1.00  0.00    -0.111 A  
HETATM   34  C   UNL     1      -7.357   9.402  65.776  1.00  0.00    -0.095 A  
HETATM   35  C   UNL     1      -7.862  10.188  64.738  1.00  0.00    -0.146 A  
ENDBRANCH  26  30
ENDBRANCH  24  26
ENDBRANCH   7  22
TORSDOF 10
ENDMDL
MODEL       12
REMARK 921   NORMALIZED FREE ENERGY PREDICTED BY IDOCK:   -6.06 KCAL/MOL
REMARK 922        TOTAL FREE ENERGY PREDICTED BY IDOCK:  -10.86 KCAL/MOL
REMARK 923 INTER-LIGAND FREE ENERGY PREDICTED BY IDOCK:   -9.91 KCAL/MOL
REMARK 924 INTRA-LIGAND FREE ENERGY PREDICTED BY IDOCK:   -0.96 KCAL/MOL
REMARK 927      BINDING AFFINITY PREDICTED BY RF-SCORE:    0.00 PKD
ROOT
HETATM    1  C   UNL     1      -9.623  14.796  69.349  1.00  0.00    -0.003 C  
HETATM    2  S   UNL     1     -10.854  15.672  68.279  1.00  0.00    -0.312 SA 
HETATM    3  C   UNL     1     -10.856  14.364  66.970  1.00  0.00    -0.297 C  
HETATM    4  C   UNL     1     -10.306  13.094  67.650  1.00  0.00    -0.223 C  
HETATM    5  C   UNL     1     -12.258  14.216  66.376  1.00  0.00    -0.473 C  
HETATM    6  C   UNL     1      -9.926  14.857  65.840  1.00  0.00    -0.357 C  
HETATM    7  C   UNL     1      -8.124  15.171  69.177  1.00  0.00    -0.214 C  
HETATM    8  N   UNL     1      -9.332  13.533  68.649  1.00  0.00    -0.101 N  
HETATM    9  O   UNL     1      -7.337  13.476  67.423  1.00  0.00    -0.165 OA 
HETATM   10  C   UNL     1      -8.066  13.906  68.288  1.00  0.00    -0.150 C  
ENDROOT
BRANCH   4  11
HETATM   11  C   UNL     1     -11.335  12.197  68.370  1.00  0.00    -0.286 C  
HETATM   12  O   UNL     1     -12.230  11.553  67.837  1.00  0.00    -0.586 OA 
BRANCH  11  13
HETATM   13  O   UNL     1     -11.178  12.288  69.723  1.00  0.00    -0.126 OA 
BRANCH  13  14
HETATM   14  C   UNL     1     -12.381  12.671  70.410  1.00  0.00    -0.237 C  
HETATM   15  C   UNL     1     -12.896  11.527  71.268  1.00  0.00    -0.463 C  
BRANCH  14  16
HETATM   16  O   UNL     1     -12.083  13.750  71.307  1.00  0.00    -0.294 OA 
BRANCH  16  17
HETATM   17  C   UNL     1     -13.000  14.745  71.258  1.00  0.00    -0.346 C  
HETATM   18  O   UNL     1     -14.032  14.727  70.603  1.00  0.00    -0.011 OA 
BRANCH  17  19
HETATM   19  O   UNL     1     -12.517  15.803  71.952  1.00  0.00    -0.395 OA 
BRANCH  19  20
HETATM   20  C   UNL     1     -13.185  16.063  73.196  1.00  0.00    -0.537 C  
HETATM   21  C   UNL     1     -12.425  15.374  74.315  1.00  0.00    -0.761 C  
ENDBRANCH  19  20
ENDBRANCH  17  19
ENDBRANCH  16  17
ENDBRANCH  14  16
ENDBRANCH  13  14
ENDBRANCH  11  13
ENDBRANCH   4  11
BRANCH   7  22
HETATM   22  N   UNL     1      -7.814  16.458  68.512  1.00  0.00    -0.186 N  
HETATM   23  H   UNL     1      -8.318  16.709  67.661  1.00  0.00     0.000 HD 
HETATM   24  C   UNL     1      -6.864  17.325  69.009  1.00  0.00    -0.245 C  
HETATM   25  O   UNL     1      -6.152  17.041  69.970  1.00  0.00    -0.230 OA 
BRANCH  24  26
HETATM   26  C   UNL     1      -6.764  18.668  68.249  1.00  0.00    -0.225 C  
HETATM   27  N   UNL     1      -6.054  19.673  69.087  1.00  0.00    -0.258 NA 
HETATM   28  H2  UNL     1      -5.141  19.338  69.395  1.00  0.00     0.000 HD 
HETATM   29  H1  UNL     1      -5.988  20.560  68.586  1.00  0.00     0.000 HD 
BRANCH  26  30
HETATM   30  C   UNL     1      -8.127  19.156  67.792  1.00  0.00    -0.310 A  
HETATM   31  C   UNL     1      -8.339  19.438  66.432  1.00  0.00    -0.342 A  
HETATM   32  C   UNL     1      -9.578  19.900  65.982  1.00  0.00    -0.435 A  
HETATM   33  C   UNL     1     -10.625  20.081  66.883  1.00  0.00    -0.455 A  
HETATM   34  C   UNL     1     -10.438  19.786  68.231  1.00  0.00    -0.449 A  
HETATM   35  C   UNL     1      -9.201  19.319  68.682  1.00  0.00    -0.436 A  
ENDBRANCH  26  30
ENDBRANCH  24  26
ENDBRANCH   7  22
TORSDOF 10
ENDMDL
MODEL       13
REMARK 921   NORMALIZED FREE ENERGY PREDICTED BY IDOCK:   -6.02 KCAL/MOL
REMARK 922        TOTAL FREE ENERGY PREDICTED BY IDOCK:  -10.80 KCAL/MOL
REMARK 923 INTER-LIGAND FREE ENERGY PREDICTED BY IDOCK:   -9.24 KCAL/MOL
REMARK 924 INTRA-LIGAND FREE ENERGY PREDICTED BY IDOCK:   -1.56 KCAL/MOL
REMARK 927      BINDING AFFINITY PREDICTED BY RF-SCORE:    0.00 PKD
ROOT
HETATM    1  C   UNL     1     -11.116  11.359  66.056  1.00  0.00    -0.173 C  
HETATM    2  S   UNL     1      -9.412  11.994  65.711  1.00  0.00    -0.119 SA 
HETATM    3  C   UNL     1      -8.738  11.485  67.358  1.00  0.00    -0.147 C  
HETATM    4  C   UNL     1      -9.706  10.408  67.889  1.00  0.00    -0.149 C  
HETATM    5  C   UNL     1      -7.287  11.025  67.213  1.00  0.00    -0.106 C  
HETATM    6  C   UNL     1      -8.735  12.743  68.252  1.00  0.00    -0.168 C  
HETATM    7  C   UNL     1     -12.156  12.362  66.629  1.00  0.00    -0.075 C  
HETATM    8  N   UNL     1     -11.040  10.755  67.397  1.00  0.00    -0.312 N  
HETATM    9  O   UNL     1     -11.870  12.057  69.158  1.00  0.00    -0.300 OA 
HETATM   10  C   UNL     1     -11.781  11.737  67.994  1.00  0.00    -0.293 C  
ENDROOT
BRANCH   4  11
HETATM   11  C   UNL     1      -9.420   8.952  67.463  1.00  0.00    -0.141 C  
HETATM   12  O   UNL     1      -9.450   8.516  66.318  1.00  0.00    -0.207 OA 
BRANCH  11  13
HETATM   13  O   UNL     1      -9.220   8.168  68.561  1.00  0.00    -0.137 OA 
BRANCH  13  14
HETATM   14  C   UNL     1     -10.438   7.648  69.119  1.00  0.00    -0.214 C  
HETATM   15  C   UNL     1     -10.805   6.325  68.466  1.00  0.00    -0.394 C  
BRANCH  14  16
HETATM   16  O   UNL     1     -10.234   7.371  70.511  1.00  0.00    -0.192 OA 
BRANCH  16  17
HETATM   17  C   UNL     1     -10.687   8.360  71.318  1.00  0.00    -0.230 C  
HETATM   18  O   UNL     1     -10.144   8.742  72.345  1.00  0.00    -0.283 OA 
BRANCH  17  19
HETATM   19  O   UNL     1     -11.898   8.760  70.862  1.00  0.00    -0.282 OA 
BRANCH  19  20
HETATM   20  C   UNL     1     -12.564   9.726  71.689  1.00  0.00    -0.416 C  
HETATM   21  C   UNL     1     -13.777   9.073  72.329  1.00  0.00    -0.550 C  
ENDBRANCH  19  20
ENDBRANCH  17  19
ENDBRANCH  16  17
ENDBRANCH  14  16
ENDBRANCH  13  14
ENDBRANCH  11  13
ENDBRANCH   4  11
BRANCH   7  22
HETATM   22  N   UNL     1     -11.872  13.807  66.467  1.00  0.00    -0.383 N  
HETATM   23  H   UNL     1     -11.476  14.325  67.251  1.00  0.00     0.000 HD 
HETATM   24  C   UNL     1     -12.129  14.472  65.286  1.00  0.00    -0.337 C  
HETATM   25  O   UNL     1     -12.696  13.935  64.337  1.00  0.00    -0.656 OA 
BRANCH  24  26
HETATM   26  C   UNL     1     -11.657  15.945  65.266  1.00  0.00     0.213 C  
HETATM   27  N   UNL     1     -11.414  16.381  63.864  1.00  0.00    -1.618 NA 
HETATM   28  H2  UNL     1     -12.230  16.232  63.270  1.00  0.00     0.000 HD 
HETATM   29  H1  UNL     1     -11.102  17.352  63.850  1.00  0.00     0.000 HD 
BRANCH  26  30
HETATM   30  C   UNL     1     -10.445  16.157  66.155  1.00  0.00    -0.334 A  
HETATM   31  C   UNL     1     -10.608  16.760  67.414  1.00  0.00    -0.291 A  
HETATM   32  C   UNL     1      -9.511  16.980  68.249  1.00  0.00    -0.265 A  
HETATM   33  C   UNL     1      -8.236  16.595  67.843  1.00  0.00    -0.183 A  
HETATM   34  C   UNL     1      -8.059  15.976  66.608  1.00  0.00    -0.311 A  
HETATM   35  C   UNL     1      -9.156  15.751  65.774  1.00  0.00    -0.187 A  
ENDBRANCH  26  30
ENDBRANCH  24  26
ENDBRANCH   7  22
TORSDOF 10
ENDMDL
MODEL       14
REMARK 921   NORMALIZED FREE ENERGY PREDICTED BY IDOCK:   -6.00 KCAL/MOL
REMARK 922        TOTAL FREE ENERGY PREDICTED BY IDOCK:  -10.76 KCAL/MOL
REMARK 923 INTER-LIGAND FREE ENERGY PREDICTED BY IDOCK:  -10.19 KCAL/MOL
REMARK 924 INTRA-LIGAND FREE ENERGY PREDICTED BY IDOCK:   -0.57 KCAL/MOL
REMARK 927      BINDING AFFINITY PREDICTED BY RF-SCORE:    0.00 PKD
ROOT
HETATM    1  C   UNL     1     -11.350  14.710  67.378  1.00  0.00    -0.356 C  
HETATM    2  S   UNL     1     -10.093  13.863  66.315  1.00  0.00    -0.307 SA 
HETATM    3  C   UNL     1      -9.393  12.857  67.701  1.00  0.00    -0.195 C  
HETATM    4  C   UNL     1     -10.479  12.842  68.795  1.00  0.00    -0.161 C  
HETATM    5  C   UNL     1      -8.979  11.475  67.192  1.00  0.00    -0.166 C  
HETATM    6  C   UNL     1      -8.111  13.576  68.176  1.00  0.00    -0.154 C  
HETATM    7  C   UNL     1     -10.965  16.087  67.989  1.00  0.00    -0.341 C  
HETATM    8  N   UNL     1     -11.177  14.126  68.720  1.00  0.00    -0.254 N  
HETATM    9  O   UNL     1      -9.962  15.417  70.251  1.00  0.00    -0.217 OA 
HETATM   10  C   UNL     1     -10.632  15.261  69.255  1.00  0.00    -0.256 C  
ENDROOT
BRANCH   4  11
HETATM   11  C   UNL     1     -11.545  11.731  68.695  1.00  0.00    -0.309 C  
HETATM   12  O   UNL     1     -11.998  11.255  67.661  1.00  0.00    -0.634 OA 
BRANCH  11  13
HETATM   13  O   UNL     1     -12.005  11.401  69.938  1.00  0.00    -0.307 OA 
BRANCH  13  14
HETATM   14  C   UNL     1     -11.656  10.066  70.337  1.00  0.00    -0.302 C  
HETATM   15  C   UNL     1     -10.196   9.777  70.028  1.00  0.00    -0.308 C  
BRANCH  14  16
HETATM   16  O   UNL     1     -11.801   9.950  71.759  1.00  0.00    -0.362 OA 
BRANCH  16  17
HETATM   17  C   UNL     1     -12.754   9.058  72.122  1.00  0.00    -0.401 C  
HETATM   18  O   UNL     1     -13.923   9.086  71.765  1.00  0.00    -0.392 OA 
BRANCH  17  19
HETATM   19  O   UNL     1     -12.221   8.215  73.038  1.00  0.00    -0.200 OA 
BRANCH  19  20
HETATM   20  C   UNL     1     -11.040   7.523  72.605  1.00  0.00    -0.347 C  
HETATM   21  C   UNL     1     -11.448   6.205  71.972  1.00  0.00    -0.366 C  
ENDBRANCH  19  20
ENDBRANCH  17  19
ENDBRANCH  16  17
ENDBRANCH  14  16
ENDBRANCH  13  14
ENDBRANCH  11  13
ENDBRANCH   4  11
BRANCH   7  22
HETATM   22  N   UNL     1      -9.839  16.820  67.366  1.00  0.00    -0.247 N  
HETATM   23  H   UNL     1      -9.058  16.290  66.978  1.00  0.00     0.000 HD 
HETATM   24  C   UNL     1      -9.816  18.196  67.295  1.00  0.00    -0.314 C  
HETATM   25  O   UNL     1     -10.672  18.898  67.829  1.00  0.00    -0.413 OA 
BRANCH  24  26
HETATM   26  C   UNL     1      -8.619  18.776  66.505  1.00  0.00    -0.305 C  
HETATM   27  N   UNL     1      -7.994  17.709  65.676  1.00  0.00    -0.416 NA 
HETATM   28  H2  UNL     1      -8.672  17.252  65.065  1.00  0.00     0.000 HD 
HETATM   29  H1  UNL     1      -7.205  18.091  65.154  1.00  0.00     0.000 HD 
BRANCH  26  30
HETATM   30  C   UNL     1      -7.619  19.457  67.421  1.00  0.00    -0.269 A  
HETATM   31  C   UNL     1      -6.872  20.546  66.941  1.00  0.00    -0.332 A  
HETATM   32  C   UNL     1      -5.935  21.185  67.756  1.00  0.00    -0.415 A  
HETATM   33  C   UNL     1      -5.736  20.752  69.065  1.00  0.00    -0.401 A  
HETATM   34  C   UNL     1      -6.484  19.688  69.564  1.00  0.00    -0.374 A  
HETATM   35  C   UNL     1      -7.425  19.051  68.752  1.00  0.00    -0.369 A  
ENDBRANCH  26  30
ENDBRANCH  24  26
ENDBRANCH   7  22
TORSDOF 10
ENDMDL
MODEL       15
REMARK 921   NORMALIZED FREE ENERGY PREDICTED BY IDOCK:   -5.98 KCAL/MOL
REMARK 922        TOTAL FREE ENERGY PREDICTED BY IDOCK:  -10.74 KCAL/MOL
REMARK 923 INTER-LIGAND FREE ENERGY PREDICTED BY IDOCK:   -8.97 KCAL/MOL
REMARK 924 INTRA-LIGAND FREE ENERGY PREDICTED BY IDOCK:   -1.76 KCAL/MOL
REMARK 927      BINDING AFFINITY PREDICTED BY RF-SCORE:    0.00 PKD
ROOT
HETATM    1  C   UNL     1      -8.593  11.025  67.615  1.00  0.00    -0.125 C  
HETATM    2  S   UNL     1      -7.842  10.894  69.302  1.00  0.00    -0.039 SA 
HETATM    3  C   UNL     1      -8.825   9.399  69.776  1.00  0.00    -0.183 C  
HETATM    4  C   UNL     1      -9.301   8.776  68.448  1.00  0.00    -0.137 C  
HETATM    5  C   UNL     1      -7.981   8.471  70.651  1.00  0.00    -0.104 C  
HETATM    6  C   UNL     1     -10.009   9.892  70.635  1.00  0.00    -0.094 C  
HETATM    7  C   UNL     1      -9.824  11.959  67.445  1.00  0.00    -0.183 C  
HETATM    8  N   UNL     1      -9.515   9.880  67.512  1.00  0.00    -0.150 N  
HETATM    9  O   UNL     1     -11.783  10.357  67.851  1.00  0.00    -0.377 OA 
HETATM   10  C   UNL     1     -10.643  10.652  67.573  1.00  0.00    -0.252 C  
ENDROOT
BRANCH   4  11
HETATM   11  C   UNL     1      -8.342   7.776  67.770  1.00  0.00    -0.125 C  
HETATM   12  O   UNL     1      -7.339   8.059  67.126  1.00  0.00    -0.088 OA 
BRANCH  11  13
HETATM   13  O   UNL     1      -8.815   6.502  67.900  1.00  0.00    -0.116 OA 
BRANCH  13  14
HETATM   14  C   UNL     1     -10.245   6.438  68.029  1.00  0.00    -0.164 C  
HETATM   15  C   UNL     1     -10.880   5.965  66.730  1.00  0.00    -0.347 C  
BRANCH  14  16
HETATM   16  O   UNL     1     -10.581   5.461  69.024  1.00  0.00    -0.217 OA 
BRANCH  16  17
HETATM   17  C   UNL     1     -10.790   6.003  70.247  1.00  0.00    -0.329 C  
HETATM   18  O   UNL     1     -10.163   5.729  71.261  1.00  0.00    -0.200 OA 
BRANCH  17  19
HETATM   19  O   UNL     1     -11.884   6.798  70.179  1.00  0.00    -0.349 OA 
BRANCH  19  20
HETATM   20  C   UNL     1     -12.670   6.845  71.379  1.00  0.00    -0.334 C  
HETATM   21  C   UNL     1     -12.971   8.296  71.713  1.00  0.00    -0.367 C  
ENDBRANCH  19  20
ENDBRANCH  17  19
ENDBRANCH  16  17
ENDBRANCH  14  16
ENDBRANCH  13  14
ENDBRANCH  11  13
ENDBRANCH   4  11
BRANCH   7  22
HETATM   22  N   UNL     1     -10.053  12.984  68.490  1.00  0.00    -0.326 N  
HETATM   23  H   UNL     1      -9.415  13.031  69.285  1.00  0.00     0.000 HD 
HETATM   24  C   UNL     1     -11.103  13.875  68.419  1.00  0.00    -0.255 C  
HETATM   25  O   UNL     1     -11.964  13.810  67.544  1.00  0.00    -0.372 OA 
BRANCH  24  26
HETATM   26  C   UNL     1     -11.110  14.945  69.536  1.00  0.00    -0.281 C  
HETATM   27  N   UNL     1      -9.746  15.083  70.115  1.00  0.00    -0.440 NA 
HETATM   28  H2  UNL     1      -9.044  15.280  69.401  1.00  0.00     0.000 HD 
HETATM   29  H1  UNL     1      -9.750  15.789  70.852  1.00  0.00     0.000 HD 
BRANCH  26  30
HETATM   30  C   UNL     1     -12.159  14.646  70.592  1.00  0.00    -0.385 A  
HETATM   31  C   UNL     1     -12.430  13.312  70.939  1.00  0.00    -0.424 A  
HETATM   32  C   UNL     1     -13.397  13.004  71.897  1.00  0.00    -0.539 A  
HETATM   33  C   UNL     1     -14.103  14.026  72.530  1.00  0.00    -0.474 A  
HETATM   34  C   UNL     1     -13.832  15.355  72.214  1.00  0.00    -0.649 A  
HETATM   35  C   UNL     1     -12.861  15.664  71.259  1.00  0.00    -0.550 A  
ENDBRANCH  26  30
ENDBRANCH  24  26
ENDBRANCH   7  22
TORSDOF 10
ENDMDL
MODEL       16
REMARK 921   NORMALIZED FREE ENERGY PREDICTED BY IDOCK:   -5.94 KCAL/MOL
REMARK 922        TOTAL FREE ENERGY PREDICTED BY IDOCK:  -10.67 KCAL/MOL
REMARK 923 INTER-LIGAND FREE ENERGY PREDICTED BY IDOCK:  -10.02 KCAL/MOL
REMARK 924 INTRA-LIGAND FREE ENERGY PREDICTED BY IDOCK:   -0.64 KCAL/MOL
REMARK 927      BINDING AFFINITY PREDICTED BY RF-SCORE:    0.00 PKD
ROOT
HETATM    1  C   UNL     1      -9.297  13.655  66.819  1.00  0.00    -0.261 C  
HETATM    2  S   UNL     1     -10.133  12.894  65.354  1.00  0.00    -0.211 SA 
HETATM    3  C   UNL     1     -11.580  14.046  65.405  1.00  0.00    -0.328 C  
HETATM    4  C   UNL     1     -11.110  15.269  66.219  1.00  0.00    -0.273 C  
HETATM    5  C   UNL     1     -12.050  14.364  63.985  1.00  0.00    -0.312 C  
HETATM    6  C   UNL     1     -12.729  13.294  66.113  1.00  0.00    -0.042 C  
HETATM    7  C   UNL     1      -9.566  13.021  68.213  1.00  0.00    -0.213 C  
HETATM    8  N   UNL     1     -10.165  14.776  67.221  1.00  0.00    -0.240 N  
HETATM    9  O   UNL     1     -11.575  14.377  69.048  1.00  0.00    -0.261 OA 
HETATM   10  C   UNL     1     -10.600  14.163  68.364  1.00  0.00    -0.259 C  
ENDROOT
BRANCH   4  11
HETATM   11  C   UNL     1     -10.404  16.392  65.431  1.00  0.00    -0.262 C  
HETATM   12  O   UNL     1     -10.946  17.208  64.694  1.00  0.00    -1.005 OA 
BRANCH  11  13
HETATM   13  O   UNL     1      -9.051  16.302  65.585  1.00  0.00    -0.428 OA 
BRANCH  13  14
HETATM   14  C   UNL     1      -8.499  17.355  66.392  1.00  0.00    -0.257 C  
HETATM   15  C   UNL     1      -7.396  16.820  67.291  1.00  0.00    -0.206 C  
BRANCH  14  16
HETATM   16  O   UNL     1      -7.888  18.329  65.534  1.00  0.00    -0.446 OA 
BRANCH  16  17
HETATM   17  C   UNL     1      -8.004  19.594  66.005  1.00  0.00    -0.328 C  
HETATM   18  O   UNL     1      -7.081  20.288  66.406  1.00  0.00    -0.251 OA 
BRANCH  17  19
HETATM   19  O   UNL     1      -9.321  19.903  66.072  1.00  0.00    -0.386 OA 
BRANCH  19  20
HETATM   20  C   UNL     1      -9.698  20.685  67.215  1.00  0.00    -0.422 C  
HETATM   21  C   UNL     1     -10.292  19.762  68.266  1.00  0.00    -0.536 C  
ENDBRANCH  19  20
ENDBRANCH  17  19
ENDBRANCH  16  17
ENDBRANCH  14  16
ENDBRANCH  13  14
ENDBRANCH  11  13
ENDBRANCH   4  11
BRANCH   7  22
HETATM   22  N   UNL     1     -10.103  11.640  68.242  1.00  0.00    -0.196 N  
HETATM   23  H   UNL     1     -10.997  11.447  67.789  1.00  0.00     0.000 HD 
HETATM   24  C   UNL     1      -9.430  10.610  68.864  1.00  0.00    -0.192 C  
HETATM   25  O   UNL     1      -8.402  10.791  69.512  1.00  0.00    -0.074 OA 
BRANCH  24  26
HETATM   26  C   UNL     1     -10.085   9.220  68.687  1.00  0.00    -0.189 C  
HETATM   27  N   UNL     1     -10.998   9.235  67.512  1.00  0.00    -0.448 NA 
HETATM   28  H2  UNL     1     -10.525   9.546  66.663  1.00  0.00     0.000 HD 
HETATM   29  H1  UNL     1     -11.431   8.318  67.395  1.00  0.00     0.000 HD 
BRANCH  26  30
HETATM   30  C   UNL     1     -10.783   8.764  69.956  1.00  0.00    -0.236 A  
HETATM   31  C   UNL     1     -10.715   7.413  70.335  1.00  0.00    -0.250 A  
HETATM   32  C   UNL     1     -11.356   6.960  71.489  1.00  0.00    -0.302 A  
HETATM   33  C   UNL     1     -12.070   7.852  72.287  1.00  0.00    -0.363 A  
HETATM   34  C   UNL     1     -12.129   9.199  71.938  1.00  0.00    -0.448 A  
HETATM   35  C   UNL     1     -11.484   9.654  70.786  1.00  0.00    -0.399 A  
ENDBRANCH  26  30
ENDBRANCH  24  26
ENDBRANCH   7  22
TORSDOF 10
ENDMDL
MODEL       17
REMARK 921   NORMALIZED FREE ENERGY PREDICTED BY IDOCK:   -5.91 KCAL/MOL
REMARK 922        TOTAL FREE ENERGY PREDICTED BY IDOCK:  -10.62 KCAL/MOL
REMARK 923 INTER-LIGAND FREE ENERGY PREDICTED BY IDOCK:  -10.03 KCAL/MOL
REMARK 924 INTRA-LIGAND FREE ENERGY PREDICTED BY IDOCK:   -0.59 KCAL/MOL
REMARK 927      BINDING AFFINITY PREDICTED BY RF-SCORE:    0.00 PKD
ROOT
HETATM    1  C   UNL     1      -9.805  14.755  69.113  1.00  0.00    -0.164 C  
HETATM    2  S   UNL     1     -10.906  15.689  67.955  1.00  0.00    -0.318 SA 
HETATM    3  C   UNL     1     -10.618  14.541  66.532  1.00  0.00    -0.297 C  
HETATM    4  C   UNL     1     -10.101  13.228  67.155  1.00  0.00    -0.239 C  
HETATM    5  C   UNL     1     -11.896  14.396  65.706  1.00  0.00    -0.365 C  
HETATM    6  C   UNL     1      -9.556  15.203  65.628  1.00  0.00    -0.295 C  
HETATM    7  C   UNL     1      -8.325  15.217  69.229  1.00  0.00    -0.243 C  
HETATM    8  N   UNL     1      -9.326  13.595  68.341  1.00  0.00    -0.201 N  
HETATM    9  O   UNL     1      -7.164  13.773  67.458  1.00  0.00    -0.168 OA 
HETATM   10  C   UNL     1      -8.046  14.066  68.233  1.00  0.00    -0.148 C  
ENDROOT
BRANCH   4  11
HETATM   11  C   UNL     1     -11.169  12.207  67.600  1.00  0.00    -0.286 C  
HETATM   12  O   UNL     1     -12.009  11.682  66.880  1.00  0.00    -0.567 OA 
BRANCH  11  13
HETATM   13  O   UNL     1     -11.122  12.030  68.952  1.00  0.00    -0.223 OA 
BRANCH  13  14
HETATM   14  C   UNL     1     -11.205  10.651  69.348  1.00  0.00    -0.270 C  
HETATM   15  C   UNL     1      -9.909   9.921  69.026  1.00  0.00    -0.193 C  
BRANCH  14  16
HETATM   16  O   UNL     1     -11.366  10.582  70.771  1.00  0.00    -0.327 OA 
BRANCH  16  17
HETATM   17  C   UNL     1     -12.657  10.709  71.163  1.00  0.00    -0.423 C  
HETATM   18  O   UNL     1     -13.203  11.759  71.472  1.00  0.00    -0.361 OA 
BRANCH  17  19
HETATM   19  O   UNL     1     -13.193   9.471  71.273  1.00  0.00    -0.358 OA 
BRANCH  19  20
HETATM   20  C   UNL     1     -12.367   8.516  71.957  1.00  0.00    -0.365 C  
HETATM   21  C   UNL     1     -12.712   7.123  71.460  1.00  0.00    -0.433 C  
ENDBRANCH  19  20
ENDBRANCH  17  19
ENDBRANCH  16  17
ENDBRANCH  14  16
ENDBRANCH  13  14
ENDBRANCH  11  13
ENDBRANCH   4  11
BRANCH   7  22
HETATM   22  N   UNL     1      -7.998  16.585  68.763  1.00  0.00    -0.225 N  
HETATM   23  H   UNL     1      -8.616  17.039  68.090  1.00  0.00     0.000 HD 
HETATM   24  C   UNL     1      -6.883  17.261  69.212  1.00  0.00    -0.208 C  
HETATM   25  O   UNL     1      -6.045  16.737  69.943  1.00  0.00    -0.222 OA 
BRANCH  24  26
HETATM   26  C   UNL     1      -6.772  18.718  68.706  1.00  0.00    -0.270 C  
HETATM   27  N   UNL     1      -6.351  19.611  69.821  1.00  0.00    -0.323 NA 
HETATM   28  H2  UNL     1      -5.489  19.292  70.262  1.00  0.00     0.000 HD 
HETATM   29  H1  UNL     1      -6.278  20.573  69.489  1.00  0.00     0.000 HD 
BRANCH  26  30
HETATM   30  C   UNL     1      -8.058  19.183  68.048  1.00  0.00    -0.333 A  
HETATM   31  C   UNL     1      -9.182  19.459  68.844  1.00  0.00    -0.391 A  
HETATM   32  C   UNL     1     -10.383  19.876  68.267  1.00  0.00    -0.526 A  
HETATM   33  C   UNL     1     -10.477  20.032  66.886  1.00  0.00    -0.523 A  
HETATM   34  C   UNL     1      -9.367  19.784  66.083  1.00  0.00    -0.439 A  
HETATM   35  C   UNL     1      -8.163  19.371  66.660  1.00  0.00    -0.322 A  
ENDBRANCH  26  30
ENDBRANCH  24  26
ENDBRANCH   7  22
TORSDOF 10
ENDMDL
MODEL       18
REMARK 921   NORMALIZED FREE ENERGY PREDICTED BY IDOCK:   -5.89 KCAL/MOL
REMARK 922        TOTAL FREE ENERGY PREDICTED BY IDOCK:  -10.60 KCAL/MOL
REMARK 923 INTER-LIGAND FREE ENERGY PREDICTED BY IDOCK:   -9.42 KCAL/MOL
REMARK 924 INTRA-LIGAND FREE ENERGY PREDICTED BY IDOCK:   -1.18 KCAL/MOL
REMARK 927      BINDING AFFINITY PREDICTED BY RF-SCORE:    0.00 PKD
ROOT
HETATM    1  C   UNL     1      -8.991  14.064  67.734  1.00  0.00    -0.186 C  
HETATM    2  S   UNL     1      -9.069  15.222  69.176  1.00  0.00    -0.231 SA 
HETATM    3  C   UNL     1     -10.919  15.252  69.231  1.00  0.00    -0.261 C  
HETATM    4  C   UNL     1     -11.378  13.988  68.476  1.00  0.00    -0.277 C  
HETATM    5  C   UNL     1     -11.401  15.342  70.680  1.00  0.00    -0.345 C  
HETATM    6  C   UNL     1     -11.370  16.542  68.514  1.00  0.00    -0.231 C  
HETATM    7  C   UNL     1      -8.878  14.688  66.315  1.00  0.00     0.029 C  
HETATM    8  N   UNL     1     -10.394  13.740  67.422  1.00  0.00    -0.251 N  
HETATM    9  O   UNL     1     -11.335  14.896  65.615  1.00  0.00    -0.343 OA 
HETATM   10  C   UNL     1     -10.408  14.459  66.257  1.00  0.00    -0.295 C  
ENDROOT
BRANCH   4  11
HETATM   11  C   UNL     1     -11.499  12.693  69.307  1.00  0.00    -0.294 C  
HETATM   12  O   UNL     1     -10.696  11.769  69.326  1.00  0.00    -0.178 OA 
BRANCH  11  13
HETATM   13  O   UNL     1     -12.696  12.662  69.964  1.00  0.00     0.089 OA 
BRANCH  13  14
HETATM   14  C   UNL     1     -12.656  11.901  71.182  1.00  0.00    -0.288 C  
HETATM   15  C   UNL     1     -13.352  12.652  72.306  1.00  0.00    -0.527 C  
BRANCH  14  16
HETATM   16  O   UNL     1     -13.387  10.681  70.996  1.00  0.00    -0.268 OA 
BRANCH  16  17
HETATM   17  C   UNL     1     -13.003   9.701  71.848  1.00  0.00    -0.435 C  
HETATM   18  O   UNL     1     -13.723   9.157  72.673  1.00  0.00    -0.470 OA 
BRANCH  17  19
HETATM   19  O   UNL     1     -11.668   9.520  71.715  1.00  0.00    -0.383 OA 
BRANCH  19  20
HETATM   20  C   UNL     1     -11.153   8.339  72.350  1.00  0.00    -0.377 C  
HETATM   21  C   UNL     1      -9.662   8.247  72.080  1.00  0.00    -0.322 C  
ENDBRANCH  19  20
ENDBRANCH  17  19
ENDBRANCH  16  17
ENDBRANCH  14  16
ENDBRANCH  13  14
ENDBRANCH  11  13
ENDBRANCH   4  11
BRANCH   7  22
HETATM   22  N   UNL     1      -8.419  16.094  66.222  1.00  0.00    -0.332 N  
HETATM   23  H   UNL     1      -9.068  16.804  65.881  1.00  0.00     0.000 HD 
HETATM   24  C   UNL     1      -7.142  16.469  66.581  1.00  0.00    -0.185 C  
HETATM   25  O   UNL     1      -6.281  15.652  66.903  1.00  0.00    -0.241 OA 
BRANCH  24  26
HETATM   26  C   UNL     1      -6.885  17.993  66.530  1.00  0.00    -0.219 C  
HETATM   27  N   UNL     1      -5.604  18.315  67.216  1.00  0.00    -0.138 NA 
HETATM   28  H2  UNL     1      -4.821  17.781  66.836  1.00  0.00     0.000 HD 
HETATM   29  H1  UNL     1      -5.434  19.320  67.183  1.00  0.00     0.000 HD 
BRANCH  26  30
HETATM   30  C   UNL     1      -8.055  18.778  67.094  1.00  0.00    -0.259 A  
HETATM   31  C   UNL     1      -8.268  18.802  68.482  1.00  0.00    -0.379 A  
HETATM   32  C   UNL     1      -9.342  19.506  69.030  1.00  0.00    -0.337 A  
HETATM   33  C   UNL     1     -10.217  20.202  68.199  1.00  0.00    -0.479 A  
HETATM   34  C   UNL     1     -10.009  20.207  66.822  1.00  0.00    -0.604 A  
HETATM   35  C   UNL     1      -8.932  19.508  66.273  1.00  0.00    -0.400 A  
ENDBRANCH  26  30
ENDBRANCH  24  26
ENDBRANCH   7  22
TORSDOF 10
ENDMDL
MODEL       19
REMARK 921   NORMALIZED FREE ENERGY PREDICTED BY IDOCK:   -5.89 KCAL/MOL
REMARK 922        TOTAL FREE ENERGY PREDICTED BY IDOCK:  -10.59 KCAL/MOL
REMARK 923 INTER-LIGAND FREE ENERGY PREDICTED BY IDOCK:  -10.16 KCAL/MOL
REMARK 924 INTRA-LIGAND FREE ENERGY PREDICTED BY IDOCK:   -0.43 KCAL/MOL
REMARK 927      BINDING AFFINITY PREDICTED BY RF-SCORE:    0.00 PKD
ROOT
HETATM    1  C   UNL     1     -10.223  13.797  66.814  1.00  0.00    -0.268 C  
HETATM    2  S   UNL     1     -11.427  14.785  67.814  1.00  0.00    -0.353 SA 
HETATM    3  C   UNL     1     -10.199  16.100  68.251  1.00  0.00    -0.248 C  
HETATM    4  C   UNL     1      -9.075  15.985  67.201  1.00  0.00    -0.208 C  
HETATM    5  C   UNL     1     -10.887  17.465  68.304  1.00  0.00    -0.256 C  
HETATM    6  C   UNL     1      -9.689  15.784  69.673  1.00  0.00    -0.248 C  
HETATM    7  C   UNL     1      -9.465  12.645  67.532  1.00  0.00    -0.186 C  
HETATM    8  N   UNL     1      -8.969  14.570  66.844  1.00  0.00    -0.239 N  
HETATM    9  O   UNL     1      -7.339  13.822  68.352  1.00  0.00    -0.099 OA 
HETATM   10  C   UNL     1      -8.321  13.681  67.658  1.00  0.00    -0.182 C  
ENDROOT
BRANCH   4  11
HETATM   11  C   UNL     1      -9.269  16.778  65.892  1.00  0.00    -0.107 C  
HETATM   12  O   UNL     1     -10.237  16.710  65.143  1.00  0.00    -0.592 OA 
BRANCH  11  13
HETATM   13  O   UNL     1      -8.154  17.514  65.613  1.00  0.00    -0.508 OA 
BRANCH  13  14
HETATM   14  C   UNL     1      -7.337  17.766  66.768  1.00  0.00    -0.206 C  
HETATM   15  C   UNL     1      -5.970  17.118  66.609  1.00  0.00    -0.240 C  
BRANCH  14  16
HETATM   16  O   UNL     1      -7.106  19.177  66.879  1.00  0.00    -0.203 OA 
BRANCH  16  17
HETATM   17  C   UNL     1      -7.426  19.670  68.099  1.00  0.00    -0.304 C  
HETATM   18  O   UNL     1      -8.474  19.463  68.694  1.00  0.00    -0.356 OA 
BRANCH  17  19
HETATM   19  O   UNL     1      -6.448  20.524  68.483  1.00  0.00    -0.305 OA 
BRANCH  19  20
HETATM   20  C   UNL     1      -5.979  20.338  69.827  1.00  0.00    -0.359 C  
HETATM   21  C   UNL     1      -5.187  19.045  69.896  1.00  0.00    -0.213 C  
ENDBRANCH  19  20
ENDBRANCH  17  19
ENDBRANCH  16  17
ENDBRANCH  14  16
ENDBRANCH  13  14
ENDBRANCH  11  13
ENDBRANCH   4  11
BRANCH   7  22
HETATM   22  N   UNL     1     -10.036  12.140  68.802  1.00  0.00    -0.402 N  
HETATM   23  H   UNL     1      -9.551  12.340  69.677  1.00  0.00     0.000 HD 
HETATM   24  C   UNL     1     -11.203  11.407  68.835  1.00  0.00    -0.248 C  
HETATM   25  O   UNL     1     -11.783  11.045  67.813  1.00  0.00    -0.573 OA 
BRANCH  24  26
HETATM   26  C   UNL     1     -11.707  11.069  70.258  1.00  0.00    -0.355 C  
HETATM   27  N   UNL     1     -12.503   9.811  70.229  1.00  0.00    -0.493 NA 
HETATM   28  H2  UNL     1     -11.982   9.038  69.814  1.00  0.00     0.000 HD 
HETATM   29  H1  UNL     1     -12.835   9.588  71.167  1.00  0.00     0.000 HD 
BRANCH  26  30
HETATM   30  C   UNL     1     -12.476  12.226  70.869  1.00  0.00    -0.371 A  
HETATM   31  C   UNL     1     -13.376  11.979  71.920  1.00  0.00    -0.408 A  
HETATM   32  C   UNL     1     -14.107  13.020  72.495  1.00  0.00    -0.206 A  
HETATM   33  C   UNL     1     -13.945  14.325  72.035  1.00  0.00    -0.595 A  
HETATM   34  C   UNL     1     -13.041  14.591  71.009  1.00  0.00    -0.429 A  
HETATM   35  C   UNL     1     -12.305  13.551  70.436  1.00  0.00    -0.397 A  
ENDBRANCH  26  30
ENDBRANCH  24  26
ENDBRANCH   7  22
TORSDOF 10
ENDMDL
MODEL       20
REMARK 921   NORMALIZED FREE ENERGY PREDICTED BY IDOCK:   -5.87 KCAL/MOL
REMARK 922        TOTAL FREE ENERGY PREDICTED BY IDOCK:  -10.56 KCAL/MOL
REMARK 923 INTER-LIGAND FREE ENERGY PREDICTED BY IDOCK:   -9.60 KCAL/MOL
REMARK 924 INTRA-LIGAND FREE ENERGY PREDICTED BY IDOCK:   -0.95 KCAL/MOL
REMARK 927      BINDING AFFINITY PREDICTED BY RF-SCORE:    0.00 PKD
ROOT
HETATM    1  C   UNL     1     -11.047  11.649  66.602  1.00  0.00    -0.307 C  
HETATM    2  S   UNL     1     -11.901  12.401  68.062  1.00  0.00    -0.227 SA 
HETATM    3  C   UNL     1     -10.903  13.959  68.020  1.00  0.00    -0.246 C  
HETATM    4  C   UNL     1     -10.320  14.041  66.594  1.00  0.00    -0.278 C  
HETATM    5  C   UNL     1     -11.770  15.151  68.426  1.00  0.00    -0.338 C  
HETATM    6  C   UNL     1      -9.794  13.811  69.084  1.00  0.00     0.216 C  
HETATM    7  C   UNL     1      -9.840  10.709  66.879  1.00  0.00    -0.188 C  
HETATM    8  N   UNL     1     -10.083  12.667  66.151  1.00  0.00    -0.252 N  
HETATM    9  O   UNL     1      -7.859  12.335  66.805  1.00  0.00    -0.084 OA 
HETATM   10  C   UNL     1      -8.987  11.965  66.574  1.00  0.00    -0.199 C  
ENDROOT
BRANCH   4  11
HETATM   11  C   UNL     1     -11.200  14.725  65.527  1.00  0.00    -0.346 C  
HETATM   12  O   UNL     1     -12.302  14.347  65.149  1.00  0.00    -0.407 OA 
BRANCH  11  13
HETATM   13  O   UNL     1     -10.536  15.781  64.971  1.00  0.00    -0.432 OA 
BRANCH  13  14
HETATM   14  C   UNL     1     -10.083  16.741  65.940  1.00  0.00    -0.304 C  
HETATM   15  C   UNL     1      -8.571  16.682  66.087  1.00  0.00    -0.324 C  
BRANCH  14  16
HETATM   16  O   UNL     1     -10.394  18.061  65.470  1.00  0.00    -0.606 OA 
BRANCH  16  17
HETATM   17  C   UNL     1     -10.334  18.996  66.448  1.00  0.00    -0.448 C  
HETATM   18  O   UNL     1     -11.033  19.018  67.451  1.00  0.00    -0.459 OA 
BRANCH  17  19
HETATM   19  O   UNL     1      -9.465  19.960  66.063  1.00  0.00    -0.396 OA 
BRANCH  19  20
HETATM   20  C   UNL     1      -8.873  20.703  67.139  1.00  0.00    -0.214 C  
HETATM   21  C   UNL     1      -7.569  20.035  67.539  1.00  0.00    -0.327 C  
ENDBRANCH  19  20
ENDBRANCH  17  19
ENDBRANCH  16  17
ENDBRANCH  14  16
ENDBRANCH  13  14
ENDBRANCH  11  13
ENDBRANCH   4  11
BRANCH   7  22
HETATM   22  N   UNL     1      -9.713  10.144  68.243  1.00  0.00    -0.139 N  
HETATM   23  H   UNL     1      -9.260  10.700  68.969  1.00  0.00     0.000 HD 
HETATM   24  C   UNL     1     -10.190   8.890  68.558  1.00  0.00    -0.197 C  
HETATM   25  O   UNL     1     -10.656   8.129  67.711  1.00  0.00    -0.222 OA 
BRANCH  24  26
HETATM   26  C   UNL     1     -10.076   8.520  70.055  1.00  0.00    -0.192 C  
HETATM   27  N   UNL     1      -9.405   7.199  70.202  1.00  0.00    -0.159 NA 
HETATM   28  H2  UNL     1      -8.500   7.175  69.731  1.00  0.00     0.000 HD 
HETATM   29  H1  UNL     1      -9.330   6.954  71.190  1.00  0.00     0.000 HD 
BRANCH  26  30
HETATM   30  C   UNL     1     -11.426   8.562  70.748  1.00  0.00    -0.281 A  
HETATM   31  C   UNL     1     -11.945   9.796  71.176  1.00  0.00    -0.463 A  
HETATM   32  C   UNL     1     -13.178   9.866  71.827  1.00  0.00    -0.535 A  
HETATM   33  C   UNL     1     -13.915   8.706  72.054  1.00  0.00    -0.506 A  
HETATM   34  C   UNL     1     -13.426   7.477  71.617  1.00  0.00    -0.429 A  
HETATM   35  C   UNL     1     -12.195   7.406  70.962  1.00  0.00    -0.315 A  
ENDBRANCH  26  30
ENDBRANCH  24  26
ENDBRANCH   7  22
TORSDOF 10
ENDMDL
MODEL       21
REMARK 921   NORMALIZED FREE ENERGY PREDICTED BY IDOCK:   -5.84 KCAL/MOL
REMARK 922        TOTAL FREE ENERGY PREDICTED BY IDOCK:  -10.51 KCAL/MOL
REMARK 923 INTER-LIGAND FREE ENERGY PREDICTED BY IDOCK:   -8.81 KCAL/MOL
REMARK 924 INTRA-LIGAND FREE ENERGY PREDICTED BY IDOCK:   -1.70 KCAL/MOL
REMARK 927      BINDING AFFINITY PREDICTED BY RF-SCORE:    0.00 PKD
ROOT
HETATM    1  C   UNL     1      -9.538  10.438  69.752  1.00  0.00    -0.026 C  
HETATM    2  S   UNL     1      -8.783   9.140  68.669  1.00  0.00    -0.129 SA 
HETATM    3  C   UNL     1      -9.433   9.873  67.099  1.00  0.00    -0.158 C  
HETATM    4  C   UNL     1      -9.764  11.342  67.431  1.00  0.00    -0.173 C  
HETATM    5  C   UNL     1      -8.417   9.686  65.971  1.00  0.00    -0.131 C  
HETATM    6  C   UNL     1     -10.697   9.072  66.718  1.00  0.00    -0.103 C  
HETATM    7  C   UNL     1     -10.936  10.141  70.363  1.00  0.00    -0.319 C  
HETATM    8  N   UNL     1     -10.201  11.375  68.827  1.00  0.00    -0.208 N  
HETATM    9  O   UNL     1     -12.519  11.130  68.605  1.00  0.00    -0.463 OA 
HETATM   10  C   UNL     1     -11.465  10.993  69.184  1.00  0.00    -0.301 C  
ENDROOT
BRANCH   4  11
HETATM   11  C   UNL     1      -8.614  12.360  67.282  1.00  0.00    -0.185 C  
HETATM   12  O   UNL     1      -7.664  12.493  68.044  1.00  0.00    -0.117 OA 
BRANCH  11  13
HETATM   13  O   UNL     1      -8.844  13.182  66.217  1.00  0.00     0.009 OA 
BRANCH  13  14
HETATM   14  C   UNL     1     -10.093  13.887  66.302  1.00  0.00    -0.300 C  
HETATM   15  C   UNL     1      -9.995  15.035  67.295  1.00  0.00    -0.233 C  
BRANCH  14  16
HETATM   16  O   UNL     1     -10.385  14.477  65.028  1.00  0.00    -0.404 OA 
BRANCH  16  17
HETATM   17  C   UNL     1     -11.570  14.066  64.515  1.00  0.00    -0.391 C  
HETATM   18  O   UNL     1     -12.419  14.794  64.022  1.00  0.00    -0.803 OA 
BRANCH  17  19
HETATM   19  O   UNL     1     -11.701  12.740  64.759  1.00  0.00    -0.322 OA 
BRANCH  19  20
HETATM   20  C   UNL     1     -11.774  11.917  63.585  1.00  0.00    -0.474 C  
HETATM   21  C   UNL     1     -10.399  11.332  63.309  1.00  0.00    -0.406 C  
ENDBRANCH  19  20
ENDBRANCH  17  19
ENDBRANCH  16  17
ENDBRANCH  14  16
ENDBRANCH  13  14
ENDBRANCH  11  13
ENDBRANCH   4  11
BRANCH   7  22
HETATM   22  N   UNL     1     -11.378   8.728  70.403  1.00  0.00    -0.372 N  
HETATM   23  H   UNL     1     -11.813   8.322  69.575  1.00  0.00     0.000 HD 
HETATM   24  C   UNL     1     -11.218   7.946  71.528  1.00  0.00    -0.249 C  
HETATM   25  O   UNL     1     -10.794   8.398  72.590  1.00  0.00    -0.342 OA 
BRANCH  24  26
HETATM   26  C   UNL     1     -11.628   6.467  71.342  1.00  0.00    -0.311 C  
HETATM   27  N   UNL     1     -11.930   5.854  72.665  1.00  0.00    -0.532 NA 
HETATM   28  H2  UNL     1     -12.632   6.384  73.182  1.00  0.00     0.000 HD 
HETATM   29  H1  UNL     1     -12.200   4.878  72.543  1.00  0.00     0.000 HD 
BRANCH  26  30
HETATM   30  C   UNL     1     -10.580   5.687  70.569  1.00  0.00    -0.354 A  
HETATM   31  C   UNL     1     -10.591   5.718  69.165  1.00  0.00    -0.365 A  
HETATM   32  C   UNL     1      -9.648   5.002  68.425  1.00  0.00    -0.195 A  
HETATM   33  C   UNL     1      -8.675   4.248  69.078  1.00  0.00    -0.119 A  
HETATM   34  C   UNL     1      -8.636   4.223  70.470  1.00  0.00    -0.109 A  
HETATM   35  C   UNL     1      -9.576   4.944  71.211  1.00  0.00    -0.229 A  
ENDBRANCH  26  30
ENDBRANCH  24  26
ENDBRANCH   7  22
TORSDOF 10
ENDMDL
MODEL       22
REMARK 921   NORMALIZED FREE ENERGY PREDICTED BY IDOCK:   -5.82 KCAL/MOL
REMARK 922        TOTAL FREE ENERGY PREDICTED BY IDOCK:  -10.48 KCAL/MOL
REMARK 923 INTER-LIGAND FREE ENERGY PREDICTED BY IDOCK:   -9.01 KCAL/MOL
REMARK 924 INTRA-LIGAND FREE ENERGY PREDICTED BY IDOCK:   -1.47 KCAL/MOL
REMARK 927      BINDING AFFINITY PREDICTED BY RF-SCORE:    0.00 PKD
ROOT
HETATM    1  C   UNL     1      -9.457  10.299  69.541  1.00  0.00    -0.185 C  
HETATM    2  S   UNL     1      -8.743   9.009  68.421  1.00  0.00    -0.130 SA 
HETATM    3  C   UNL     1      -9.499   9.720  66.889  1.00  0.00    -0.160 C  
HETATM    4  C   UNL     1      -9.838  11.185  67.234  1.00  0.00    -0.175 C  
HETATM    5  C   UNL     1      -8.549   9.546  65.704  1.00  0.00    -0.154 C  
HETATM    6  C   UNL     1     -10.769   8.894  66.588  1.00  0.00    -0.017 C  
HETATM    7  C   UNL     1     -10.811   9.980  70.236  1.00  0.00    -0.313 C  
HETATM    8  N   UNL     1     -10.191  11.218  68.653  1.00  0.00    -0.198 N  
HETATM    9  O   UNL     1     -12.514  10.929  68.571  1.00  0.00    -0.375 OA 
HETATM   10  C   UNL     1     -11.425  10.815  69.086  1.00  0.00    -0.298 C  
ENDROOT
BRANCH   4  11
HETATM   11  C   UNL     1      -8.718  12.223  67.012  1.00  0.00    -0.199 C  
HETATM   12  O   UNL     1      -7.702  12.345  67.686  1.00  0.00    -0.128 OA 
BRANCH  11  13
HETATM   13  O   UNL     1      -9.056  13.076  66.001  1.00  0.00    -0.007 OA 
BRANCH  13  14
HETATM   14  C   UNL     1      -9.786  14.229  66.449  1.00  0.00    -0.299 C  
HETATM   15  C   UNL     1      -8.904  15.468  66.416  1.00  0.00    -0.359 C  
BRANCH  14  16
HETATM   16  O   UNL     1     -10.870  14.478  65.544  1.00  0.00    -0.305 OA 
BRANCH  16  17
HETATM   17  C   UNL     1     -12.057  14.013  66.002  1.00  0.00    -0.439 C  
HETATM   18  O   UNL     1     -12.331  13.803  67.175  1.00  0.00    -0.357 OA 
BRANCH  17  19
HETATM   19  O   UNL     1     -12.832  13.704  64.936  1.00  0.00    -0.688 OA 
BRANCH  19  20
HETATM   20  C   UNL     1     -12.109  13.355  63.745  1.00  0.00    -0.456 C  
HETATM   21  C   UNL     1     -12.169  11.849  63.558  1.00  0.00    -0.591 C  
ENDBRANCH  19  20
ENDBRANCH  17  19
ENDBRANCH  16  17
ENDBRANCH  14  16
ENDBRANCH  13  14
ENDBRANCH  11  13
ENDBRANCH   4  11
BRANCH   7  22
HETATM   22  N   UNL     1     -11.223   8.559  70.309  1.00  0.00    -0.372 N  
HETATM   23  H   UNL     1     -11.329   8.029  69.443  1.00  0.00     0.000 HD 
HETATM   24  C   UNL     1     -11.465   7.932  71.512  1.00  0.00    -0.265 C  
HETATM   25  O   UNL     1     -11.453   8.534  72.584  1.00  0.00    -0.351 OA 
BRANCH  24  26
HETATM   26  C   UNL     1     -11.767   6.419  71.396  1.00  0.00    -0.306 C  
HETATM   27  N   UNL     1     -11.975   5.838  72.751  1.00  0.00    -0.539 NA 
HETATM   28  H2  UNL     1     -12.697   6.333  73.274  1.00  0.00     0.000 HD 
HETATM   29  H1  UNL     1     -12.173   4.840  72.675  1.00  0.00     0.000 HD 
BRANCH  26  30
HETATM   30  C   UNL     1     -10.690   5.691  70.614  1.00  0.00    -0.333 A  
HETATM   31  C   UNL     1     -10.763   5.648  69.211  1.00  0.00    -0.350 A  
HETATM   32  C   UNL     1      -9.794   4.976  68.464  1.00  0.00    -0.216 A  
HETATM   33  C   UNL     1      -8.732   4.342  69.107  1.00  0.00    -0.116 A  
HETATM   34  C   UNL     1      -8.632   4.393  70.495  1.00  0.00    -0.110 A  
HETATM   35  C   UNL     1      -9.598   5.069  71.243  1.00  0.00    -0.223 A  
ENDBRANCH  26  30
ENDBRANCH  24  26
ENDBRANCH   7  22
TORSDOF 10
ENDMDL
MODEL       23
REMARK 921   NORMALIZED FREE ENERGY PREDICTED BY IDOCK:   -5.81 KCAL/MOL
REMARK 922        TOTAL FREE ENERGY PREDICTED BY IDOCK:  -10.47 KCAL/MOL
REMARK 923 INTER-LIGAND FREE ENERGY PREDICTED BY IDOCK:   -9.72 KCAL/MOL
REMARK 924 INTRA-LIGAND FREE ENERGY PREDICTED BY IDOCK:   -0.75 KCAL/MOL
REMARK 927      BINDING AFFINITY PREDICTED BY RF-SCORE:    0.00 PKD
ROOT
HETATM    1  C   UNL     1     -11.024  15.437  66.736  1.00  0.00    -0.282 C  
HETATM    2  S   UNL     1      -9.268  15.037  66.309  1.00  0.00    -0.256 SA 
HETATM    3  C   UNL     1      -9.035  13.885  67.739  1.00  0.00    -0.188 C  
HETATM    4  C   UNL     1     -10.456  13.474  68.177  1.00  0.00    -0.244 C  
HETATM    5  C   UNL     1      -8.128  12.722  67.337  1.00  0.00    -0.185 C  
HETATM    6  C   UNL     1      -8.304  14.680  68.843  1.00  0.00    -0.142 C  
HETATM    7  C   UNL     1     -11.284  16.699  67.606  1.00  0.00    -0.007 C  
HETATM    8  N   UNL     1     -11.328  14.621  67.924  1.00  0.00    -0.301 N  
HETATM    9  O   UNL     1     -11.254  15.737  69.982  1.00  0.00    -0.282 OA 
HETATM   10  C   UNL     1     -11.359  15.690  68.778  1.00  0.00    -0.349 C  
ENDROOT
BRANCH   4  11
HETATM   11  C   UNL     1     -11.073  12.256  67.460  1.00  0.00    -0.275 C  
HETATM   12  O   UNL     1     -10.727  11.805  66.374  1.00  0.00    -0.246 OA 
BRANCH  11  13
HETATM   13  O   UNL     1     -12.148  11.788  68.159  1.00  0.00    -0.556 OA 
BRANCH  13  14
HETATM   14  C   UNL     1     -11.798  10.815  69.157  1.00  0.00    -0.275 C  
HETATM   15  C   UNL     1     -10.352  10.375  68.992  1.00  0.00    -0.232 C  
BRANCH  14  16
HETATM   16  O   UNL     1     -11.892  11.421  70.454  1.00  0.00    -0.336 OA 
BRANCH  16  17
HETATM   17  C   UNL     1     -12.914  10.927  71.193  1.00  0.00    -0.352 C  
HETATM   18  O   UNL     1     -13.410   9.816  71.065  1.00  0.00    -0.355 OA 
BRANCH  17  19
HETATM   19  O   UNL     1     -13.370  11.914  72.001  1.00  0.00    -0.487 OA 
BRANCH  19  20
HETATM   20  C   UNL     1     -12.966  13.238  71.622  1.00  0.00    -0.349 C  
HETATM   21  C   UNL     1     -14.107  14.200  71.903  1.00  0.00    -0.566 C  
ENDBRANCH  19  20
ENDBRANCH  17  19
ENDBRANCH  16  17
ENDBRANCH  14  16
ENDBRANCH  13  14
ENDBRANCH  11  13
ENDBRANCH   4  11
BRANCH   7  22
HETATM   22  N   UNL     1     -10.205  17.712  67.679  1.00  0.00    -0.335 N  
HETATM   23  H   UNL     1      -9.642  17.775  68.527  1.00  0.00     0.000 HD 
HETATM   24  C   UNL     1      -9.942  18.572  66.634  1.00  0.00    -0.372 C  
HETATM   25  O   UNL     1     -10.644  18.618  65.625  1.00  0.00    -0.610 OA 
BRANCH  24  26
HETATM   26  C   UNL     1      -8.705  19.476  66.846  1.00  0.00    -0.311 C  
HETATM   27  N   UNL     1      -8.414  20.238  65.601  1.00  0.00    -0.455 NA 
HETATM   28  H2  UNL     1      -9.225  20.767  65.277  1.00  0.00     0.000 HD 
HETATM   29  H1  UNL     1      -7.598  20.834  65.740  1.00  0.00     0.000 HD 
BRANCH  26  30
HETATM   30  C   UNL     1      -7.506  18.682  67.331  1.00  0.00    -0.226 A  
HETATM   31  C   UNL     1      -7.161  18.712  68.692  1.00  0.00    -0.310 A  
HETATM   32  C   UNL     1      -6.056  18.002  69.166  1.00  0.00    -0.232 A  
HETATM   33  C   UNL     1      -5.284  17.244  68.289  1.00  0.00    -0.132 A  
HETATM   34  C   UNL     1      -5.625  17.184  66.940  1.00  0.00    -0.215 A  
HETATM   35  C   UNL     1      -6.733  17.891  66.465  1.00  0.00    -0.252 A  
ENDBRANCH  26  30
ENDBRANCH  24  26
ENDBRANCH   7  22
TORSDOF 10
ENDMDL
MODEL       24
REMARK 921   NORMALIZED FREE ENERGY PREDICTED BY IDOCK:   -5.80 KCAL/MOL
REMARK 922        TOTAL FREE ENERGY PREDICTED BY IDOCK:  -10.45 KCAL/MOL
REMARK 923 INTER-LIGAND FREE ENERGY PREDICTED BY IDOCK:   -8.88 KCAL/MOL
REMARK 924 INTRA-LIGAND FREE ENERGY PREDICTED BY IDOCK:   -1.58 KCAL/MOL
REMARK 927      BINDING AFFINITY PREDICTED BY RF-SCORE:    0.00 PKD
ROOT
HETATM    1  C   UNL     1     -10.230  14.809  66.336  1.00  0.00    -0.291 C  
HETATM    2  S   UNL     1      -8.432  15.104  66.664  1.00  0.00    -0.110 SA 
HETATM    3  C   UNL     1      -8.419  14.137  68.242  1.00  0.00    -0.169 C  
HETATM    4  C   UNL     1      -9.657  13.219  68.178  1.00  0.00    -0.227 C  
HETATM    5  C   UNL     1      -7.086  13.403  68.398  1.00  0.00    -0.108 C  
HETATM    6  C   UNL     1      -8.521  15.157  69.396  1.00  0.00    -0.190 C  
HETATM    7  C   UNL     1     -11.238  15.883  66.832  1.00  0.00     0.007 C  
HETATM    8  N   UNL     1     -10.688  13.946  67.439  1.00  0.00    -0.270 N  
HETATM    9  O   UNL     1     -11.845  15.020  69.169  1.00  0.00    -0.302 OA 
HETATM   10  C   UNL     1     -11.429  14.929  68.036  1.00  0.00    -0.337 C  
ENDROOT
BRANCH   4  11
HETATM   11  C   UNL     1      -9.468  11.853  67.487  1.00  0.00    -0.176 C  
HETATM   12  O   UNL     1      -9.469  11.648  66.279  1.00  0.00    -0.206 OA 
BRANCH  11  13
HETATM   13  O   UNL     1      -9.395  10.856  68.417  1.00  0.00    -0.157 OA 
BRANCH  13  14
HETATM   14  C   UNL     1     -10.602  10.084  68.520  1.00  0.00    -0.215 C  
HETATM   15  C   UNL     1     -10.395   8.686  67.958  1.00  0.00    -0.277 C  
BRANCH  14  16
HETATM   16  O   UNL     1     -10.935   9.920  69.905  1.00  0.00    -0.247 OA 
BRANCH  16  17
HETATM   17  C   UNL     1     -11.926  10.749  70.312  1.00  0.00    -0.351 C  
HETATM   18  O   UNL     1     -11.827  11.960  70.446  1.00  0.00    -0.332 OA 
BRANCH  17  19
HETATM   19  O   UNL     1     -12.996   9.994  70.660  1.00  0.00    -0.289 OA 
BRANCH  19  20
HETATM   20  C   UNL     1     -12.972   9.503  72.009  1.00  0.00    -0.426 C  
HETATM   21  C   UNL     1     -14.199   8.637  72.238  1.00  0.00    -0.497 C  
ENDBRANCH  19  20
ENDBRANCH  17  19
ENDBRANCH  16  17
ENDBRANCH  14  16
ENDBRANCH  13  14
ENDBRANCH  11  13
ENDBRANCH   4  11
BRANCH   7  22
HETATM   22  N   UNL     1     -10.705  17.231  67.139  1.00  0.00    -0.242 N  
HETATM   23  H   UNL     1     -10.402  17.438  68.091  1.00  0.00     0.000 HD 
HETATM   24  C   UNL     1     -10.606  18.212  66.176  1.00  0.00    -0.274 C  
HETATM   25  O   UNL     1     -11.043  18.063  65.036  1.00  0.00    -0.678 OA 
BRANCH  24  26
HETATM   26  C   UNL     1      -9.915  19.510  66.654  1.00  0.00    -0.407 C  
HETATM   27  N   UNL     1     -10.046  20.567  65.613  1.00  0.00    -0.443 NA 
HETATM   28  H2  UNL     1     -11.018  20.725  65.348  1.00  0.00     0.000 HD 
HETATM   29  H1  UNL     1      -9.590  21.424  65.928  1.00  0.00     0.000 HD 
BRANCH  26  30
HETATM   30  C   UNL     1      -8.471  19.264  67.050  1.00  0.00    -0.305 A  
HETATM   31  C   UNL     1      -7.537  18.899  66.066  1.00  0.00    -0.259 A  
HETATM   32  C   UNL     1      -6.204  18.654  66.401  1.00  0.00    -0.205 A  
HETATM   33  C   UNL     1      -5.781  18.778  67.723  1.00  0.00    -0.185 A  
HETATM   34  C   UNL     1      -6.689  19.160  68.707  1.00  0.00    -0.330 A  
HETATM   35  C   UNL     1      -8.022  19.410  68.373  1.00  0.00    -0.376 A  
ENDBRANCH  26  30
ENDBRANCH  24  26
ENDBRANCH   7  22
TORSDOF 10
ENDMDL
MODEL       25
REMARK 921   NORMALIZED FREE ENERGY PREDICTED BY IDOCK:   -5.79 KCAL/MOL
REMARK 922        TOTAL FREE ENERGY PREDICTED BY IDOCK:  -10.43 KCAL/MOL
REMARK 923 INTER-LIGAND FREE ENERGY PREDICTED BY IDOCK:   -9.16 KCAL/MOL
REMARK 924 INTRA-LIGAND FREE ENERGY PREDICTED BY IDOCK:   -1.27 KCAL/MOL
REMARK 927      BINDING AFFINITY PREDICTED BY RF-SCORE:    0.00 PKD
ROOT
HETATM    1  C   UNL     1     -10.786  10.342  66.134  1.00  0.00     0.028 C  
HETATM    2  S   UNL     1     -11.213  10.887  67.851  1.00  0.00    -0.315 SA 
HETATM    3  C   UNL     1     -10.009  12.293  67.854  1.00  0.00    -0.202 C  
HETATM    4  C   UNL     1      -9.707  12.585  66.370  1.00  0.00    -0.249 C  
HETATM    5  C   UNL     1     -10.583  13.476  68.635  1.00  0.00    -0.259 C  
HETATM    6  C   UNL     1      -8.753  11.808  68.609  1.00  0.00    -0.059 C  
HETATM    7  C   UNL     1      -9.710   9.230  65.978  1.00  0.00    -0.289 C  
HETATM    8  N   UNL     1      -9.779  11.308  65.661  1.00  0.00    -0.220 N  
HETATM    9  O   UNL     1      -7.550  10.592  65.747  1.00  0.00    -0.143 OA 
HETATM   10  C   UNL     1      -8.746  10.411  65.710  1.00  0.00    -0.168 C  
ENDROOT
BRANCH   4  11
HETATM   11  C   UNL     1     -10.658  13.566  65.652  1.00  0.00    -0.284 C  
HETATM   12  O   UNL     1     -11.858  13.403  65.466  1.00  0.00    -0.332 OA 
BRANCH  11  13
HETATM   13  O   UNL     1      -9.957  14.625  65.152  1.00  0.00    -0.358 OA 
BRANCH  13  14
HETATM   14  C   UNL     1      -9.764  15.681  66.106  1.00  0.00    -0.318 C  
HETATM   15  C   UNL     1      -8.303  15.767  66.523  1.00  0.00    -0.313 C  
BRANCH  14  16
HETATM   16  O   UNL     1     -10.083  16.935  65.488  1.00  0.00    -0.575 OA 
BRANCH  16  17
HETATM   17  C   UNL     1     -10.338  17.917  66.385  1.00  0.00    -0.365 C  
HETATM   18  O   UNL     1     -10.827  17.753  67.494  1.00  0.00    -0.344 OA 
BRANCH  17  19
HETATM   19  O   UNL     1     -10.078  19.109  65.798  1.00  0.00    -0.479 OA 
BRANCH  19  20
HETATM   20  C   UNL     1      -9.050  19.883  66.436  1.00  0.00    -0.369 C  
HETATM   21  C   UNL     1      -7.703  19.474  65.868  1.00  0.00    -0.288 C  
ENDBRANCH  19  20
ENDBRANCH  17  19
ENDBRANCH  16  17
ENDBRANCH  14  16
ENDBRANCH  13  14
ENDBRANCH  11  13
ENDBRANCH   4  11
BRANCH   7  22
HETATM   22  N   UNL     1      -9.413   8.396  67.166  1.00  0.00    -0.154 N  
HETATM   23  H   UNL     1      -8.596   8.618  67.735  1.00  0.00     0.000 HD 
HETATM   24  C   UNL     1     -10.209   7.329  67.524  1.00  0.00    -0.221 C  
HETATM   25  O   UNL     1     -11.148   6.945  66.830  1.00  0.00    -0.379 OA 
BRANCH  24  26
HETATM   26  C   UNL     1      -9.811   6.653  68.857  1.00  0.00    -0.139 C  
HETATM   27  N   UNL     1      -9.965   5.176  68.743  1.00  0.00    -0.168 NA 
HETATM   28  H2  UNL     1      -9.446   4.797  67.951  1.00  0.00     0.000 HD 
HETATM   29  H1  UNL     1      -9.703   4.730  69.622  1.00  0.00     0.000 HD 
BRANCH  26  30
HETATM   30  C   UNL     1     -10.585   7.226  70.030  1.00  0.00    -0.247 A  
HETATM   31  C   UNL     1     -11.771   6.600  70.448  1.00  0.00    -0.446 A  
HETATM   32  C   UNL     1     -12.512   7.111  71.515  1.00  0.00    -0.418 A  
HETATM   33  C   UNL     1     -12.075   8.251  72.187  1.00  0.00    -0.425 A  
HETATM   34  C   UNL     1     -10.890   8.871  71.800  1.00  0.00    -0.436 A  
HETATM   35  C   UNL     1     -10.145   8.359  70.735  1.00  0.00    -0.226 A  
ENDBRANCH  26  30
ENDBRANCH  24  26
ENDBRANCH   7  22
TORSDOF 10
ENDMDL
MODEL       26
REMARK 921   NORMALIZED FREE ENERGY PREDICTED BY IDOCK:   -5.74 KCAL/MOL
REMARK 922        TOTAL FREE ENERGY PREDICTED BY IDOCK:  -10.35 KCAL/MOL
REMARK 923 INTER-LIGAND FREE ENERGY PREDICTED BY IDOCK:   -9.20 KCAL/MOL
REMARK 924 INTRA-LIGAND FREE ENERGY PREDICTED BY IDOCK:   -1.16 KCAL/MOL
REMARK 927      BINDING AFFINITY PREDICTED BY RF-SCORE:    0.00 PKD
ROOT
HETATM    1  C   UNL     1      -9.439  11.528  65.834  1.00  0.00    -0.230 C  
HETATM    2  S   UNL     1     -11.268  11.755  66.003  1.00  0.00    -0.253 SA 
HETATM    3  C   UNL     1     -11.127  13.081  67.287  1.00  0.00    -0.273 C  
HETATM    4  C   UNL     1      -9.694  13.637  67.154  1.00  0.00    -0.245 C  
HETATM    5  C   UNL     1     -12.235  14.117  67.098  1.00  0.00    -0.348 C  
HETATM    6  C   UNL     1     -11.355  12.406  68.657  1.00  0.00    -0.332 C  
HETATM    7  C   UNL     1      -8.768  10.421  66.694  1.00  0.00    -0.135 C  
HETATM    8  N   UNL     1      -8.841  12.522  66.743  1.00  0.00    -0.202 N  
HETATM    9  O   UNL     1      -8.098  11.705  68.809  1.00  0.00    -0.140 OA 
HETATM   10  C   UNL     1      -8.411  11.588  67.646  1.00  0.00    -0.135 C  
ENDROOT
BRANCH   4  11
HETATM   11  C   UNL     1      -9.488  14.777  66.135  1.00  0.00    -0.292 C  
HETATM   12  O   UNL     1     -10.030  14.874  65.041  1.00  0.00    -0.328 OA 
BRANCH  11  13
HETATM   13  O   UNL     1      -8.526  15.639  66.577  1.00  0.00    -0.266 OA 
BRANCH  13  14
HETATM   14  C   UNL     1      -8.731  16.075  67.930  1.00  0.00    -0.165 C  
HETATM   15  C   UNL     1      -7.509  15.771  68.783  1.00  0.00    -0.158 C  
BRANCH  14  16
HETATM   16  O   UNL     1      -8.889  17.501  67.942  1.00  0.00    -0.238 OA 
BRANCH  16  17
HETATM   17  C   UNL     1     -10.162  17.888  68.193  1.00  0.00    -0.382 C  
HETATM   18  O   UNL     1     -11.136  17.148  68.219  1.00  0.00    -0.310 OA 
BRANCH  17  19
HETATM   19  O   UNL     1     -10.187  19.239  68.283  1.00  0.00    -0.393 OA 
BRANCH  19  20
HETATM   20  C   UNL     1      -9.541  19.926  67.200  1.00  0.00    -0.381 C  
HETATM   21  C   UNL     1     -10.411  19.817  65.960  1.00  0.00    -0.609 C  
ENDBRANCH  19  20
ENDBRANCH  17  19
ENDBRANCH  16  17
ENDBRANCH  14  16
ENDBRANCH  13  14
ENDBRANCH  11  13
ENDBRANCH   4  11
BRANCH   7  22
HETATM   22  N   UNL     1      -9.644   9.363  67.250  1.00  0.00    -0.146 N  
HETATM   23  H   UNL     1     -10.643   9.388  67.042  1.00  0.00     0.000 HD 
HETATM   24  C   UNL     1      -9.149   8.348  68.041  1.00  0.00    -0.137 C  
HETATM   25  O   UNL     1      -7.977   8.314  68.413  1.00  0.00    -0.115 OA 
BRANCH  24  26
HETATM   26  C   UNL     1     -10.191   7.273  68.429  1.00  0.00    -0.180 C  
HETATM   27  N   UNL     1     -11.163   7.084  67.316  1.00  0.00    -0.613 NA 
HETATM   28  H2  UNL     1     -10.697   6.867  66.435  1.00  0.00     0.000 HD 
HETATM   29  H1  UNL     1     -11.850   6.375  67.572  1.00  0.00     0.000 HD 
BRANCH  26  30
HETATM   30  C   UNL     1     -10.874   7.602  69.743  1.00  0.00    -0.222 A  
HETATM   31  C   UNL     1     -11.652   6.623  70.382  1.00  0.00    -0.457 A  
HETATM   32  C   UNL     1     -12.303   6.899  71.586  1.00  0.00    -0.413 A  
HETATM   33  C   UNL     1     -12.181   8.156  72.174  1.00  0.00    -0.398 A  
HETATM   34  C   UNL     1     -11.396   9.132  71.565  1.00  0.00    -0.439 A  
HETATM   35  C   UNL     1     -10.740   8.856  70.363  1.00  0.00    -0.261 A  
ENDBRANCH  26  30
ENDBRANCH  24  26
ENDBRANCH   7  22
TORSDOF 10
ENDMDL
MODEL       27
REMARK 921   NORMALIZED FREE ENERGY PREDICTED BY IDOCK:   -5.73 KCAL/MOL
REMARK 922        TOTAL FREE ENERGY PREDICTED BY IDOCK:  -10.34 KCAL/MOL
REMARK 923 INTER-LIGAND FREE ENERGY PREDICTED BY IDOCK:   -9.19 KCAL/MOL
REMARK 924 INTRA-LIGAND FREE ENERGY PREDICTED BY IDOCK:   -1.15 KCAL/MOL
REMARK 927      BINDING AFFINITY PREDICTED BY RF-SCORE:    0.00 PKD
ROOT
HETATM    1  C   UNL     1      -9.600  13.876  68.488  1.00  0.00    -0.185 C  
HETATM    2  S   UNL     1      -9.681  15.271  69.702  1.00  0.00    -0.142 SA 
HETATM    3  C   UNL     1     -11.531  15.311  69.746  1.00  0.00    -0.313 C  
HETATM    4  C   UNL     1     -11.989  13.933  69.225  1.00  0.00    -0.357 C  
HETATM    5  C   UNL     1     -12.016  15.657  71.154  1.00  0.00    -0.457 C  
HETATM    6  C   UNL     1     -11.978  16.454  68.810  1.00  0.00     0.272 C  
HETATM    7  C   UNL     1      -9.482  14.238  66.981  1.00  0.00    -0.254 C  
HETATM    8  N   UNL     1     -11.003  13.503  68.234  1.00  0.00    -0.249 N  
HETATM    9  O   UNL     1     -11.938  14.320  66.248  1.00  0.00    -0.396 OA 
HETATM   10  C   UNL     1     -11.012  14.003  66.961  1.00  0.00    -0.297 C  
ENDROOT
BRANCH   4  11
HETATM   11  C   UNL     1     -12.114  12.807  70.272  1.00  0.00    -0.297 C  
HETATM   12  O   UNL     1     -12.846  12.811  71.255  1.00  0.00    -0.359 OA 
BRANCH  11  13
HETATM   13  O   UNL     1     -11.211  11.816  70.013  1.00  0.00    -0.126 OA 
BRANCH  13  14
HETATM   14  C   UNL     1     -11.823  10.539  69.770  1.00  0.00    -0.257 C  
HETATM   15  C   UNL     1     -11.235   9.891  68.526  1.00  0.00    -0.129 C  
BRANCH  14  16
HETATM   16  O   UNL     1     -11.524   9.661  70.864  1.00  0.00    -0.296 OA 
BRANCH  16  17
HETATM   17  C   UNL     1     -12.633   9.138  71.439  1.00  0.00    -0.323 C  
HETATM   18  O   UNL     1     -13.444   9.760  72.110  1.00  0.00    -0.431 OA 
BRANCH  17  19
HETATM   19  O   UNL     1     -12.618   7.797  71.250  1.00  0.00    -0.311 OA 
BRANCH  19  20
HETATM   20  C   UNL     1     -11.312   7.200  71.272  1.00  0.00    -0.268 C  
HETATM   21  C   UNL     1     -11.188   6.248  70.096  1.00  0.00    -0.470 C  
ENDBRANCH  19  20
ENDBRANCH  17  19
ENDBRANCH  16  17
ENDBRANCH  14  16
ENDBRANCH  13  14
ENDBRANCH  11  13
ENDBRANCH   4  11
BRANCH   7  22
HETATM   22  N   UNL     1      -9.022  15.605  66.641  1.00  0.00    -0.258 N  
HETATM   23  H   UNL     1      -9.701  16.284  66.295  1.00  0.00     0.000 HD 
HETATM   24  C   UNL     1      -7.704  15.985  66.780  1.00  0.00    -0.235 C  
HETATM   25  O   UNL     1      -6.819  15.192  67.095  1.00  0.00    -0.259 OA 
BRANCH  24  26
HETATM   26  C   UNL     1      -7.436  17.480  66.491  1.00  0.00    -0.274 C  
HETATM   27  N   UNL     1      -6.083  17.858  66.985  1.00  0.00    -0.146 NA 
HETATM   28  H2  UNL     1      -5.354  17.257  66.600  1.00  0.00     0.000 HD 
HETATM   29  H1  UNL     1      -5.906  18.844  66.795  1.00  0.00     0.000 HD 
BRANCH  26  30
HETATM   30  C   UNL     1      -8.528  18.366  67.064  1.00  0.00    -0.257 A  
HETATM   31  C   UNL     1      -8.534  18.654  68.439  1.00  0.00    -0.366 A  
HETATM   32  C   UNL     1      -9.532  19.456  68.997  1.00  0.00    -0.399 A  
HETATM   33  C   UNL     1     -10.534  19.988  68.189  1.00  0.00    -0.428 A  
HETATM   34  C   UNL     1     -10.531  19.731  66.821  1.00  0.00    -0.610 A  
HETATM   35  C   UNL     1      -9.531  18.933  66.260  1.00  0.00    -0.318 A  
ENDBRANCH  26  30
ENDBRANCH  24  26
ENDBRANCH   7  22
TORSDOF 10
ENDMDL
MODEL       28
REMARK 921   NORMALIZED FREE ENERGY PREDICTED BY IDOCK:   -5.71 KCAL/MOL
REMARK 922        TOTAL FREE ENERGY PREDICTED BY IDOCK:  -10.31 KCAL/MOL
REMARK 923 INTER-LIGAND FREE ENERGY PREDICTED BY IDOCK:   -8.93 KCAL/MOL
REMARK 924 INTRA-LIGAND FREE ENERGY PREDICTED BY IDOCK:   -1.38 KCAL/MOL
REMARK 927      BINDING AFFINITY PREDICTED BY RF-SCORE:    0.00 PKD
ROOT
HETATM    1  C   UNL     1      -9.600  11.586  65.808  1.00  0.00    -0.235 C  
HETATM    2  S   UNL     1     -11.410  11.844  66.094  1.00  0.00    -0.275 SA 
HETATM    3  C   UNL     1     -11.163  13.158  67.373  1.00  0.00    -0.287 C  
HETATM    4  C   UNL     1      -9.732  13.689  67.153  1.00  0.00    -0.245 C  
HETATM    5  C   UNL     1     -12.263  14.215  67.261  1.00  0.00    -0.314 C  
HETATM    6  C   UNL     1     -11.316  12.479  68.751  1.00  0.00    -0.337 C  
HETATM    7  C   UNL     1      -8.896  10.461  66.617  1.00  0.00    -0.134 C  
HETATM    8  N   UNL     1      -8.927  12.562  66.682  1.00  0.00    -0.204 N  
HETATM    9  O   UNL     1      -8.070  11.720  68.692  1.00  0.00    -0.148 OA 
HETATM   10  C   UNL     1      -8.457  11.615  67.551  1.00  0.00    -0.150 C  
ENDROOT
BRANCH   4  11
HETATM   11  C   UNL     1      -9.571  14.832  66.129  1.00  0.00    -0.309 C  
HETATM   12  O   UNL     1     -10.000  14.840  64.981  1.00  0.00    -0.333 OA 
BRANCH  11  13
HETATM   13  O   UNL     1      -8.784  15.822  66.643  1.00  0.00    -0.235 OA 
BRANCH  13  14
HETATM   14  C   UNL     1      -8.364  15.571  67.994  1.00  0.00    -0.142 C  
HETATM   15  C   UNL     1      -6.847  15.509  68.081  1.00  0.00    -0.132 C  
BRANCH  14  16
HETATM   16  O   UNL     1      -8.775  16.666  68.823  1.00  0.00    -0.246 OA 
BRANCH  16  17
HETATM   17  C   UNL     1     -10.111  16.688  69.045  1.00  0.00    -0.293 C  
HETATM   18  O   UNL     1     -10.907  17.441  68.502  1.00  0.00    -0.308 OA 
BRANCH  17  19
HETATM   19  O   UNL     1     -10.389  15.829  70.054  1.00  0.00    -0.299 OA 
BRANCH  19  20
HETATM   20  C   UNL     1     -11.778  15.742  70.405  1.00  0.00    -0.370 C  
HETATM   21  C   UNL     1     -11.941  16.122  71.866  1.00  0.00    -0.583 C  
ENDBRANCH  19  20
ENDBRANCH  17  19
ENDBRANCH  16  17
ENDBRANCH  14  16
ENDBRANCH  13  14
ENDBRANCH  11  13
ENDBRANCH   4  11
BRANCH   7  22
HETATM   22  N   UNL     1      -9.754   9.416  67.222  1.00  0.00    -0.157 N  
HETATM   23  H   UNL     1     -10.758   9.433  67.042  1.00  0.00     0.000 HD 
HETATM   24  C   UNL     1      -9.234   8.420  68.023  1.00  0.00    -0.136 C  
HETATM   25  O   UNL     1      -8.053   8.396  68.362  1.00  0.00    -0.119 OA 
BRANCH  24  26
HETATM   26  C   UNL     1     -10.262   7.353  68.464  1.00  0.00    -0.183 C  
HETATM   27  N   UNL     1     -11.255   7.124  67.378  1.00  0.00    -0.585 NA 
HETATM   28  H2  UNL     1     -10.806   6.882  66.495  1.00  0.00     0.000 HD 
HETATM   29  H1  UNL     1     -11.934   6.421  67.669  1.00  0.00     0.000 HD 
BRANCH  26  30
HETATM   30  C   UNL     1     -10.921   7.720  69.781  1.00  0.00    -0.162 A  
HETATM   31  C   UNL     1     -10.716   9.000  70.324  1.00  0.00    -0.262 A  
HETATM   32  C   UNL     1     -11.299   9.363  71.540  1.00  0.00    -0.464 A  
HETATM   33  C   UNL     1     -12.102   8.456  72.228  1.00  0.00    -0.456 A  
HETATM   34  C   UNL     1     -12.334   7.191  71.694  1.00  0.00    -0.398 A  
HETATM   35  C   UNL     1     -11.755   6.828  70.476  1.00  0.00    -0.430 A  
ENDBRANCH  26  30
ENDBRANCH  24  26
ENDBRANCH   7  22
TORSDOF 10
ENDMDL
MODEL       29
REMARK 921   NORMALIZED FREE ENERGY PREDICTED BY IDOCK:   -5.71 KCAL/MOL
REMARK 922        TOTAL FREE ENERGY PREDICTED BY IDOCK:  -10.31 KCAL/MOL
REMARK 923 INTER-LIGAND FREE ENERGY PREDICTED BY IDOCK:   -8.92 KCAL/MOL
REMARK 924 INTRA-LIGAND FREE ENERGY PREDICTED BY IDOCK:   -1.38 KCAL/MOL
REMARK 927      BINDING AFFINITY PREDICTED BY RF-SCORE:    0.00 PKD
ROOT
HETATM    1  C   UNL     1      -9.288  12.064  66.699  1.00  0.00    -0.219 C  
HETATM    2  S   UNL     1      -8.959  11.793  68.500  1.00  0.00    -0.082 SA 
HETATM    3  C   UNL     1     -10.453  10.731  68.757  1.00  0.00    -0.199 C  
HETATM    4  C   UNL     1     -10.848  10.224  67.355  1.00  0.00    -0.277 C  
HETATM    5  C   UNL     1     -10.149   9.631  69.774  1.00  0.00    -0.258 C  
HETATM    6  C   UNL     1     -11.547  11.634  69.368  1.00  0.00    -0.392 C  
HETATM    7  C   UNL     1     -10.082  13.338  66.296  1.00  0.00    -0.294 C  
HETATM    8  N   UNL     1     -10.501  11.281  66.405  1.00  0.00    -0.249 N  
HETATM    9  O   UNL     1     -12.502  12.492  66.291  1.00  0.00    -0.475 OA 
HETATM   10  C   UNL     1     -11.298  12.381  66.247  1.00  0.00    -0.340 C  
ENDROOT
BRANCH   4  11
HETATM   11  C   UNL     1     -10.165   8.926  66.873  1.00  0.00    -0.276 C  
HETATM   12  O   UNL     1      -9.037   8.835  66.404  1.00  0.00    -0.154 OA 
BRANCH  11  13
HETATM   13  O   UNL     1     -11.035   7.877  66.947  1.00  0.00    -0.188 OA 
BRANCH  13  14
HETATM   14  C   UNL     1     -10.417   6.656  67.384  1.00  0.00    -0.260 C  
HETATM   15  C   UNL     1     -10.963   6.233  68.739  1.00  0.00    -0.424 C  
BRANCH  14  16
HETATM   16  O   UNL     1     -10.753   5.607  66.466  1.00  0.00    -0.288 OA 
BRANCH  16  17
HETATM   17  C   UNL     1      -9.668   5.071  65.857  1.00  0.00    -0.166 C  
HETATM   18  O   UNL     1      -8.814   5.699  65.249  1.00  0.00    -0.147 OA 
BRANCH  17  19
HETATM   19  O   UNL     1      -9.762   3.722  65.931  1.00  0.00    -0.181 OA 
BRANCH  19  20
HETATM   20  C   UNL     1      -8.758   3.091  66.740  1.00  0.00    -0.129 C  
HETATM   21  C   UNL     1      -9.332   2.832  68.122  1.00  0.00    -0.258 C  
ENDBRANCH  19  20
ENDBRANCH  17  19
ENDBRANCH  16  17
ENDBRANCH  14  16
ENDBRANCH  13  14
ENDBRANCH  11  13
ENDBRANCH   4  11
BRANCH   7  22
HETATM   22  N   UNL     1     -10.152  14.440  67.284  1.00  0.00    -0.250 N  
HETATM   23  H   UNL     1     -10.961  14.499  67.903  1.00  0.00     0.000 HD 
HETATM   24  C   UNL     1      -9.156  15.387  67.390  1.00  0.00    -0.197 C  
HETATM   25  O   UNL     1      -8.205  15.434  66.612  1.00  0.00    -0.248 OA 
BRANCH  24  26
HETATM   26  C   UNL     1      -9.345  16.386  68.556  1.00  0.00    -0.225 C  
HETATM   27  N   UNL     1     -10.491  15.963  69.406  1.00  0.00    -0.243 NA 
HETATM   28  H2  UNL     1     -10.388  15.003  69.737  1.00  0.00     0.000 HD 
HETATM   29  H1  UNL     1     -10.617  16.622  70.175  1.00  0.00     0.000 HD 
BRANCH  26  30
HETATM   30  C   UNL     1      -9.492  17.811  68.054  1.00  0.00    -0.281 A  
HETATM   31  C   UNL     1      -8.418  18.707  68.189  1.00  0.00    -0.336 A  
HETATM   32  C   UNL     1      -8.527  20.027  67.748  1.00  0.00    -0.338 A  
HETATM   33  C   UNL     1      -9.710  20.471  67.160  1.00  0.00    -0.581 A  
HETATM   34  C   UNL     1     -10.777  19.592  66.999  1.00  0.00    -0.592 A  
HETATM   35  C   UNL     1     -10.667  18.269  67.435  1.00  0.00    -0.377 A  
ENDBRANCH  26  30
ENDBRANCH  24  26
ENDBRANCH   7  22
TORSDOF 10
ENDMDL
MODEL       30
REMARK 921   NORMALIZED FREE ENERGY PREDICTED BY IDOCK:   -5.71 KCAL/MOL
REMARK 922        TOTAL FREE ENERGY PREDICTED BY IDOCK:  -10.31 KCAL/MOL
REMARK 923 INTER-LIGAND FREE ENERGY PREDICTED BY IDOCK:   -9.00 KCAL/MOL
REMARK 924 INTRA-LIGAND FREE ENERGY PREDICTED BY IDOCK:   -1.30 KCAL/MOL
REMARK 927      BINDING AFFINITY PREDICTED BY RF-SCORE:    0.00 PKD
ROOT
HETATM    1  C   UNL     1     -10.930  11.597  66.767  1.00  0.00    -0.290 C  
HETATM    2  S   UNL     1      -9.256  12.387  66.721  1.00  0.00    -0.210 SA 
HETATM    3  C   UNL     1      -8.378  10.891  67.366  1.00  0.00    -0.117 C  
HETATM    4  C   UNL     1      -9.330   9.705  67.105  1.00  0.00    -0.139 C  
HETATM    5  C   UNL     1      -7.003  10.764  66.708  1.00  0.00    -0.119 C  
HETATM    6  C   UNL     1      -8.148  11.119  68.875  1.00  0.00    -0.115 C  
HETATM    7  C   UNL     1     -11.795  11.817  68.040  1.00  0.00    -0.234 C  
HETATM    8  N   UNL     1     -10.694  10.218  67.231  1.00  0.00    -0.269 N  
HETATM    9  O   UNL     1     -11.150   9.804  69.491  1.00  0.00    -0.232 OA 
HETATM   10  C   UNL     1     -11.263  10.425  68.458  1.00  0.00    -0.251 C  
ENDROOT
BRANCH   4  11
HETATM   11  C   UNL     1      -9.219   9.021  65.726  1.00  0.00    -0.232 C  
HETATM   12  O   UNL     1      -9.388   9.558  64.638  1.00  0.00    -0.240 OA 
BRANCH  11  13
HETATM   13  O   UNL     1      -8.997   7.683  65.877  1.00  0.00    -0.166 OA 
BRANCH  13  14
HETATM   14  C   UNL     1      -9.641   7.127  67.035  1.00  0.00    -0.159 C  
HETATM   15  C   UNL     1     -10.767   6.190  66.624  1.00  0.00    -0.301 C  
BRANCH  14  16
HETATM   16  O   UNL     1      -8.695   6.330  67.760  1.00  0.00    -0.115 OA 
BRANCH  16  17
HETATM   17  C   UNL     1      -8.681   6.603  69.086  1.00  0.00    -0.130 C  
HETATM   18  O   UNL     1      -8.161   7.582  69.603  1.00  0.00    -0.122 OA 
BRANCH  17  19
HETATM   19  O   UNL     1      -9.225   5.551  69.743  1.00  0.00    -0.132 OA 
BRANCH  19  20
HETATM   20  C   UNL     1     -10.119   5.905  70.809  1.00  0.00    -0.199 C  
HETATM   21  C   UNL     1     -11.473   6.259  70.218  1.00  0.00    -0.428 C  
ENDBRANCH  19  20
ENDBRANCH  17  19
ENDBRANCH  16  17
ENDBRANCH  14  16
ENDBRANCH  13  14
ENDBRANCH  11  13
ENDBRANCH   4  11
BRANCH   7  22
HETATM   22  N   UNL     1     -11.435  12.951  68.923  1.00  0.00    -0.284 N  
HETATM   23  H   UNL     1     -11.006  12.757  69.828  1.00  0.00     0.000 HD 
HETATM   24  C   UNL     1     -11.663  14.260  68.557  1.00  0.00    -0.341 C  
HETATM   25  O   UNL     1     -12.266  14.562  67.528  1.00  0.00    -0.318 OA 
BRANCH  24  26
HETATM   26  C   UNL     1     -11.113  15.308  69.552  1.00  0.00    -0.281 C  
HETATM   27  N   UNL     1      -9.713  14.967  69.926  1.00  0.00    -0.447 NA 
HETATM   28  H2  UNL     1      -9.113  14.864  69.107  1.00  0.00     0.000 HD 
HETATM   29  H1  UNL     1      -9.350  15.657  70.583  1.00  0.00     0.000 HD 
BRANCH  26  30
HETATM   30  C   UNL     1     -12.014  15.458  70.764  1.00  0.00    -0.402 A  
HETATM   31  C   UNL     1     -11.487  15.976  71.958  1.00  0.00    -0.380 A  
HETATM   32  C   UNL     1     -12.287  16.115  73.094  1.00  0.00    -0.641 A  
HETATM   33  C   UNL     1     -13.630  15.744  73.051  1.00  0.00    -0.638 A  
HETATM   34  C   UNL     1     -14.175  15.248  71.870  1.00  0.00    -0.681 A  
HETATM   35  C   UNL     1     -13.376  15.114  70.732  1.00  0.00    -0.389 A  
ENDBRANCH  26  30
ENDBRANCH  24  26
ENDBRANCH   7  22
TORSDOF 10
ENDMDL
MODEL       31
REMARK 921   NORMALIZED FREE ENERGY PREDICTED BY IDOCK:   -5.70 KCAL/MOL
REMARK 922        TOTAL FREE ENERGY PREDICTED BY IDOCK:  -10.30 KCAL/MOL
REMARK 923 INTER-LIGAND FREE ENERGY PREDICTED BY IDOCK:   -9.56 KCAL/MOL
REMARK 924 INTRA-LIGAND FREE ENERGY PREDICTED BY IDOCK:   -0.74 KCAL/MOL
REMARK 927      BINDING AFFINITY PREDICTED BY RF-SCORE:    0.00 PKD
ROOT
HETATM    1  C   UNL     1     -11.521  13.914  67.951  1.00  0.00    -0.318 C  
HETATM    2  S   UNL     1      -9.969  13.596  68.908  1.00  0.00     0.088 SA 
HETATM    3  C   UNL     1      -9.069  15.051  68.202  1.00  0.00    -0.178 C  
HETATM    4  C   UNL     1     -10.163  15.993  67.658  1.00  0.00    -0.262 C  
HETATM    5  C   UNL     1      -8.159  15.672  69.262  1.00  0.00    -0.244 C  
HETATM    6  C   UNL     1      -8.163  14.515  67.072  1.00  0.00    -0.164 C  
HETATM    7  C   UNL     1     -11.694  13.176  66.593  1.00  0.00    -0.375 C  
HETATM    8  N   UNL     1     -11.259  15.146  67.187  1.00  0.00    -0.336 N  
HETATM    9  O   UNL     1     -10.697  14.855  64.932  1.00  0.00    -0.398 OA 
HETATM   10  C   UNL     1     -11.191  14.506  65.980  1.00  0.00    -0.337 C  
ENDROOT
BRANCH   4  11
HETATM   11  C   UNL     1     -10.760  17.007  68.657  1.00  0.00    -0.333 C  
HETATM   12  O   UNL     1     -10.976  16.807  69.847  1.00  0.00    -0.293 OA 
BRANCH  11  13
HETATM   13  O   UNL     1     -11.116  18.155  68.012  1.00  0.00    -0.151 OA 
BRANCH  13  14
HETATM   14  C   UNL     1     -10.038  18.750  67.272  1.00  0.00    -0.357 C  
HETATM   15  C   UNL     1     -10.541  19.322  65.956  1.00  0.00    -0.550 C  
BRANCH  14  16
HETATM   16  O   UNL     1      -9.512  19.856  68.020  1.00  0.00    -0.348 OA 
BRANCH  16  17
HETATM   17  C   UNL     1      -8.166  19.966  67.922  1.00  0.00    -0.282 C  
HETATM   18  O   UNL     1      -7.568  20.654  67.106  1.00  0.00    -0.323 OA 
BRANCH  17  19
HETATM   19  O   UNL     1      -7.602  19.094  68.792  1.00  0.00    -0.331 OA 
BRANCH  19  20
HETATM   20  C   UNL     1      -6.214  19.332  69.069  1.00  0.00    -0.261 C  
HETATM   21  C   UNL     1      -5.731  18.303  70.076  1.00  0.00    -0.236 C  
ENDBRANCH  19  20
ENDBRANCH  17  19
ENDBRANCH  16  17
ENDBRANCH  14  16
ENDBRANCH  13  14
ENDBRANCH  11  13
ENDBRANCH   4  11
BRANCH   7  22
HETATM   22  N   UNL     1     -10.851  11.981  66.353  1.00  0.00    -0.266 N  
HETATM   23  H   UNL     1     -10.145  12.013  65.618  1.00  0.00     0.000 HD 
HETATM   24  C   UNL     1     -10.995  10.829  67.096  1.00  0.00    -0.260 C  
HETATM   25  O   UNL     1     -11.889  10.687  67.928  1.00  0.00    -0.485 OA 
BRANCH  24  26
HETATM   26  C   UNL     1      -9.949   9.732  66.783  1.00  0.00    -0.218 C  
HETATM   27  N   UNL     1      -9.891   9.491  65.315  1.00  0.00    -0.441 NA 
HETATM   28  H2  UNL     1      -9.713  10.350  64.793  1.00  0.00     0.000 HD 
HETATM   29  H1  UNL     1      -9.202   8.768  65.108  1.00  0.00     0.000 HD 
BRANCH  26  30
HETATM   30  C   UNL     1     -10.219   8.461  67.567  1.00  0.00    -0.308 A  
HETATM   31  C   UNL     1      -9.961   8.432  68.948  1.00  0.00    -0.194 A  
HETATM   32  C   UNL     1     -10.187   7.274  69.694  1.00  0.00    -0.214 A  
HETATM   33  C   UNL     1     -10.681   6.128  69.073  1.00  0.00    -0.377 A  
HETATM   34  C   UNL     1     -10.963   6.146  67.709  1.00  0.00    -0.400 A  
HETATM   35  C   UNL     1     -10.742   7.305  66.963  1.00  0.00    -0.406 A  
ENDBRANCH  26  30
ENDBRANCH  24  26
ENDBRANCH   7  22
TORSDOF 10
ENDMDL
MODEL       32
REMARK 921   NORMALIZED FREE ENERGY PREDICTED BY IDOCK:   -5.69 KCAL/MOL
REMARK 922        TOTAL FREE ENERGY PREDICTED BY IDOCK:  -10.27 KCAL/MOL
REMARK 923 INTER-LIGAND FREE ENERGY PREDICTED BY IDOCK:   -8.94 KCAL/MOL
REMARK 924 INTRA-LIGAND FREE ENERGY PREDICTED BY IDOCK:   -1.33 KCAL/MOL
REMARK 927      BINDING AFFINITY PREDICTED BY RF-SCORE:    0.00 PKD
ROOT
HETATM    1  C   UNL     1     -10.656   9.117  69.177  1.00  0.00    -0.208 C  
HETATM    2  S   UNL     1     -10.344   8.442  67.483  1.00  0.00    -0.265 SA 
HETATM    3  C   UNL     1      -8.935   7.368  68.017  1.00  0.00    -0.132 C  
HETATM    4  C   UNL     1      -9.099   7.194  69.541  1.00  0.00    -0.146 C  
HETATM    5  C   UNL     1      -8.936   6.062  67.221  1.00  0.00    -0.109 C  
HETATM    6  C   UNL     1      -7.635   8.122  67.664  1.00  0.00    -0.098 C  
HETATM    7  C   UNL     1      -9.969  10.458  69.556  1.00  0.00    -0.202 C  
HETATM    8  N   UNL     1      -9.685   8.434  70.050  1.00  0.00    -0.175 N  
HETATM    9  O   UNL     1      -7.774   9.664  70.617  1.00  0.00    -0.225 OA 
HETATM   10  C   UNL     1      -8.920   9.552  70.245  1.00  0.00    -0.248 C  
ENDROOT
BRANCH   4  11
HETATM   11  C   UNL     1      -9.998   6.031  70.010  1.00  0.00    -0.177 C  
HETATM   12  O   UNL     1     -10.735   5.356  69.302  1.00  0.00    -0.248 OA 
BRANCH  11  13
HETATM   13  O   UNL     1      -9.942   5.907  71.369  1.00  0.00    -0.178 OA 
BRANCH  13  14
HETATM   14  C   UNL     1     -11.237   5.853  71.989  1.00  0.00    -0.273 C  
HETATM   15  C   UNL     1     -11.246   4.843  73.125  1.00  0.00    -0.403 C  
BRANCH  14  16
HETATM   16  O   UNL     1     -11.528   7.129  72.577  1.00  0.00    -0.278 OA 
BRANCH  16  17
HETATM   17  C   UNL     1     -12.573   7.756  71.987  1.00  0.00    -0.269 C  
HETATM   18  O   UNL     1     -13.390   7.229  71.245  1.00  0.00    -0.369 OA 
BRANCH  17  19
HETATM   19  O   UNL     1     -12.482   9.080  72.256  1.00  0.00    -0.375 OA 
BRANCH  19  20
HETATM   20  C   UNL     1     -13.398   9.909  71.525  1.00  0.00    -0.375 C  
HETATM   21  C   UNL     1     -12.959  11.357  71.650  1.00  0.00    -0.523 C  
ENDBRANCH  19  20
ENDBRANCH  17  19
ENDBRANCH  16  17
ENDBRANCH  14  16
ENDBRANCH  13  14
ENDBRANCH  11  13
ENDBRANCH   4  11
BRANCH   7  22
HETATM   22  N   UNL     1      -9.475  11.310  68.448  1.00  0.00    -0.186 N  
HETATM   23  H   UNL     1      -8.719  10.964  67.857  1.00  0.00     0.000 HD 
HETATM   24  C   UNL     1     -10.009  12.555  68.194  1.00  0.00    -0.224 C  
HETATM   25  O   UNL     1     -10.851  13.074  68.925  1.00  0.00    -0.246 OA 
BRANCH  24  26
HETATM   26  C   UNL     1      -9.451  13.243  66.926  1.00  0.00    -0.249 C  
HETATM   27  N   UNL     1      -9.107  14.660  67.228  1.00  0.00    -0.197 NA 
HETATM   28  H2  UNL     1      -8.469  14.739  68.020  1.00  0.00     0.000 HD 
HETATM   29  H1  UNL     1      -8.739  15.115  66.392  1.00  0.00     0.000 HD 
BRANCH  26  30
HETATM   30  C   UNL     1     -10.405  13.117  65.753  1.00  0.00    -0.294 A  
HETATM   31  C   UNL     1     -10.438  11.922  65.014  1.00  0.00    -0.333 A  
HETATM   32  C   UNL     1     -11.296  11.780  63.922  1.00  0.00    -0.494 A  
HETATM   33  C   UNL     1     -12.140  12.827  63.555  1.00  0.00    -0.642 A  
HETATM   34  C   UNL     1     -12.135  14.010  64.289  1.00  0.00    -0.476 A  
HETATM   35  C   UNL     1     -11.281  14.152  65.385  1.00  0.00    -0.325 A  
ENDBRANCH  26  30
ENDBRANCH  24  26
ENDBRANCH   7  22
TORSDOF 10
ENDMDL
MODEL       33
REMARK 921   NORMALIZED FREE ENERGY PREDICTED BY IDOCK:   -5.66 KCAL/MOL
REMARK 922        TOTAL FREE ENERGY PREDICTED BY IDOCK:  -10.24 KCAL/MOL
REMARK 923 INTER-LIGAND FREE ENERGY PREDICTED BY IDOCK:   -8.82 KCAL/MOL
REMARK 924 INTRA-LIGAND FREE ENERGY PREDICTED BY IDOCK:   -1.41 KCAL/MOL
REMARK 927      BINDING AFFINITY PREDICTED BY RF-SCORE:    0.00 PKD
ROOT
HETATM    1  C   UNL     1      -9.151  10.440  69.356  1.00  0.00    -0.152 C  
HETATM    2  S   UNL     1      -8.478   9.421  67.965  1.00  0.00    -0.120 SA 
HETATM    3  C   UNL     1     -10.107   9.273  67.099  1.00  0.00    -0.236 C  
HETATM    4  C   UNL     1     -10.973  10.427  67.644  1.00  0.00    -0.312 C  
HETATM    5  C   UNL     1      -9.901   9.288  65.584  1.00  0.00    -0.237 C  
HETATM    6  C   UNL     1     -10.692   7.894  67.472  1.00  0.00    -0.252 C  
HETATM    7  C   UNL     1      -9.602   9.694  70.643  1.00  0.00    -0.147 C  
HETATM    8  N   UNL     1     -10.575  10.639  69.036  1.00  0.00    -0.205 N  
HETATM    9  O   UNL     1     -12.085   9.258  70.176  1.00  0.00     0.067 OA 
HETATM   10  C   UNL     1     -11.020   9.814  70.033  1.00  0.00    -0.277 C  
ENDROOT
BRANCH   4  11
HETATM   11  C   UNL     1     -10.853  11.783  66.918  1.00  0.00    -0.271 C  
HETATM   12  O   UNL     1      -9.883  12.532  66.941  1.00  0.00    -0.219 OA 
BRANCH  11  13
HETATM   13  O   UNL     1     -12.031  12.100  66.306  1.00  0.00    -0.605 OA 
BRANCH  13  14
HETATM   14  C   UNL     1     -11.856  12.766  65.045  1.00  0.00    -0.382 C  
HETATM   15  C   UNL     1     -12.238  11.846  63.896  1.00  0.00    -0.497 C  
BRANCH  14  16
HETATM   16  O   UNL     1     -12.748  13.888  64.981  1.00  0.00    -0.635 OA 
BRANCH  16  17
HETATM   17  C   UNL     1     -12.135  15.026  64.575  1.00  0.00    -0.363 C  
HETATM   18  O   UNL     1     -12.622  15.866  63.832  1.00  0.00    -0.719 OA 
BRANCH  17  19
HETATM   19  O   UNL     1     -10.859  15.007  65.029  1.00  0.00    -0.371 OA 
BRANCH  19  20
HETATM   20  C   UNL     1     -10.430  16.219  65.668  1.00  0.00    -0.368 C  
HETATM   21  C   UNL     1     -10.419  16.003  67.172  1.00  0.00    -0.308 C  
ENDBRANCH  19  20
ENDBRANCH  17  19
ENDBRANCH  16  17
ENDBRANCH  14  16
ENDBRANCH  13  14
ENDBRANCH  11  13
ENDBRANCH   4  11
BRANCH   7  22
HETATM   22  N   UNL     1      -9.090   8.319  70.850  1.00  0.00    -0.145 N  
HETATM   23  H   UNL     1      -9.264   7.613  70.135  1.00  0.00     0.000 HD 
HETATM   24  C   UNL     1      -8.385   7.968  71.982  1.00  0.00    -0.139 C  
HETATM   25  O   UNL     1      -8.226   8.740  72.926  1.00  0.00    -0.410 OA 
BRANCH  24  26
HETATM   26  C   UNL     1      -7.830   6.525  71.967  1.00  0.00    -0.099 C  
HETATM   27  N   UNL     1      -7.283   6.205  70.619  1.00  0.00    -0.075 NA 
HETATM   28  H2  UNL     1      -6.587   6.888  70.317  1.00  0.00     0.000 HD 
HETATM   29  H1  UNL     1      -6.917   5.254  70.608  1.00  0.00     0.000 HD 
BRANCH  26  30
HETATM   30  C   UNL     1      -8.871   5.518  72.421  1.00  0.00    -0.135 A  
HETATM   31  C   UNL     1      -9.713   5.833  73.501  1.00  0.00    -0.159 A  
HETATM   32  C   UNL     1     -10.672   4.924  73.950  1.00  0.00    -0.363 A  
HETATM   33  C   UNL     1     -10.810   3.687  73.322  1.00  0.00    -0.290 A  
HETATM   34  C   UNL     1      -9.998   3.367  72.237  1.00  0.00    -0.234 A  
HETATM   35  C   UNL     1      -9.042   4.278  71.783  1.00  0.00    -0.166 A  
ENDBRANCH  26  30
ENDBRANCH  24  26
ENDBRANCH   7  22
TORSDOF 10
ENDMDL
MODEL       34
REMARK 921   NORMALIZED FREE ENERGY PREDICTED BY IDOCK:   -5.66 KCAL/MOL
REMARK 922        TOTAL FREE ENERGY PREDICTED BY IDOCK:  -10.23 KCAL/MOL
REMARK 923 INTER-LIGAND FREE ENERGY PREDICTED BY IDOCK:   -8.80 KCAL/MOL
REMARK 924 INTRA-LIGAND FREE ENERGY PREDICTED BY IDOCK:   -1.44 KCAL/MOL
REMARK 927      BINDING AFFINITY PREDICTED BY RF-SCORE:    0.00 PKD
ROOT
HETATM    1  C   UNL     1     -10.102  13.084  66.978  1.00  0.00    -0.243 C  
HETATM    2  S   UNL     1     -11.060  13.769  68.406  1.00  0.00    -0.277 SA 
HETATM    3  C   UNL     1     -10.029  15.300  68.544  1.00  0.00    -0.222 C  
HETATM    4  C   UNL     1      -9.327  15.453  67.179  1.00  0.00    -0.214 C  
HETATM    5  C   UNL     1     -10.902  16.488  68.951  1.00  0.00    -0.336 C  
HETATM    6  C   UNL     1      -9.017  15.060  69.685  1.00  0.00     0.014 C  
HETATM    7  C   UNL     1      -8.942  12.099  67.295  1.00  0.00    -0.184 C  
HETATM    8  N   UNL     1      -9.082  14.103  66.672  1.00  0.00    -0.245 N  
HETATM    9  O   UNL     1      -6.928  13.673  67.487  1.00  0.00    -0.165 OA 
HETATM   10  C   UNL     1      -8.041  13.348  67.140  1.00  0.00    -0.083 C  
ENDROOT
BRANCH   4  11
HETATM   11  C   UNL     1     -10.099  16.223  66.088  1.00  0.00    -0.344 C  
HETATM   12  O   UNL     1     -11.058  15.805  65.450  1.00  0.00    -0.303 OA 
BRANCH  11  13
HETATM   13  O   UNL     1      -9.504  17.428  65.847  1.00  0.00    -0.512 OA 
BRANCH  13  14
HETATM   14  C   UNL     1      -8.261  17.599  66.547  1.00  0.00    -0.273 C  
HETATM   15  C   UNL     1      -7.148  17.973  65.580  1.00  0.00    -0.135 C  
BRANCH  14  16
HETATM   16  O   UNL     1      -8.387  18.694  67.464  1.00  0.00    -0.261 OA 
BRANCH  16  17
HETATM   17  C   UNL     1      -7.467  18.659  68.457  1.00  0.00    -0.302 C  
HETATM   18  O   UNL     1      -7.114  17.657  69.062  1.00  0.00    -0.250 OA 
BRANCH  17  19
HETATM   19  O   UNL     1      -7.104  19.932  68.746  1.00  0.00    -0.325 OA 
BRANCH  19  20
HETATM   20  C   UNL     1      -5.845  20.340  68.190  1.00  0.00    -0.243 C  
HETATM   21  C   UNL     1      -6.101  21.358  67.091  1.00  0.00    -0.403 C  
ENDBRANCH  19  20
ENDBRANCH  17  19
ENDBRANCH  16  17
ENDBRANCH  14  16
ENDBRANCH  13  14
ENDBRANCH  11  13
ENDBRANCH   4  11
BRANCH   7  22
HETATM   22  N   UNL     1      -8.943  11.449  68.626  1.00  0.00    -0.271 N  
HETATM   23  H   UNL     1      -8.616  11.978  69.435  1.00  0.00     0.000 HD 
HETATM   24  C   UNL     1      -9.372  10.151  68.803  1.00  0.00    -0.168 C  
HETATM   25  O   UNL     1      -9.684   9.426  67.860  1.00  0.00    -0.146 OA 
BRANCH  24  26
HETATM   26  C   UNL     1      -9.414   9.686  70.277  1.00  0.00    -0.248 C  
HETATM   27  N   UNL     1      -8.795   8.338  70.402  1.00  0.00    -0.138 NA 
HETATM   28  H2  UNL     1      -7.849   8.314  70.019  1.00  0.00     0.000 HD 
HETATM   29  H1  UNL     1      -8.822   8.030  71.374  1.00  0.00     0.000 HD 
BRANCH  26  30
HETATM   30  C   UNL     1     -10.823   9.730  70.840  1.00  0.00    -0.399 A  
HETATM   31  C   UNL     1     -11.606  10.881  70.654  1.00  0.00    -0.341 A  
HETATM   32  C   UNL     1     -12.901  10.956  71.170  1.00  0.00    -0.508 A  
HETATM   33  C   UNL     1     -13.437   9.879  71.873  1.00  0.00    -0.467 A  
HETATM   34  C   UNL     1     -12.682   8.721  72.048  1.00  0.00    -0.444 A  
HETATM   35  C   UNL     1     -11.388   8.643  71.528  1.00  0.00    -0.358 A  
ENDBRANCH  26  30
ENDBRANCH  24  26
ENDBRANCH   7  22
TORSDOF 10
ENDMDL
MODEL       35
REMARK 921   NORMALIZED FREE ENERGY PREDICTED BY IDOCK:   -5.63 KCAL/MOL
REMARK 922        TOTAL FREE ENERGY PREDICTED BY IDOCK:  -10.19 KCAL/MOL
REMARK 923 INTER-LIGAND FREE ENERGY PREDICTED BY IDOCK:   -8.82 KCAL/MOL
REMARK 924 INTRA-LIGAND FREE ENERGY PREDICTED BY IDOCK:   -1.37 KCAL/MOL
REMARK 927      BINDING AFFINITY PREDICTED BY RF-SCORE:    0.00 PKD
ROOT
HETATM    1  C   UNL     1      -9.213  10.750  69.204  1.00  0.00    -0.116 C  
HETATM    2  S   UNL     1      -8.166   9.865  67.960  1.00  0.00    -0.113 SA 
HETATM    3  C   UNL     1      -8.993  10.646  66.500  1.00  0.00    -0.156 C  
HETATM    4  C   UNL     1      -9.680  11.917  67.042  1.00  0.00    -0.194 C  
HETATM    5  C   UNL     1      -7.973  10.896  65.388  1.00  0.00     0.046 C  
HETATM    6  C   UNL     1     -10.019   9.625  65.964  1.00  0.00    -0.344 C  
HETATM    7  C   UNL     1     -10.486  10.023  69.721  1.00  0.00    -0.256 C  
HETATM    8  N   UNL     1     -10.098  11.623  68.413  1.00  0.00    -0.201 N  
HETATM    9  O   UNL     1     -12.283  10.845  68.087  1.00  0.00    -0.503 OA 
HETATM   10  C   UNL     1     -11.223  10.888  68.669  1.00  0.00    -0.267 C  
ENDROOT
BRANCH   4  11
HETATM   11  C   UNL     1      -8.824  13.200  67.085  1.00  0.00    -0.222 C  
HETATM   12  O   UNL     1      -7.893  13.422  67.849  1.00  0.00    -0.123 OA 
BRANCH  11  13
HETATM   13  O   UNL     1      -9.309  14.122  66.203  1.00  0.00    -0.237 OA 
BRANCH  13  14
HETATM   14  C   UNL     1     -10.495  14.786  66.670  1.00  0.00    -0.286 C  
HETATM   15  C   UNL     1     -10.146  16.124  67.304  1.00  0.00    -0.265 C  
BRANCH  14  16
HETATM   16  O   UNL     1     -11.340  15.077  65.548  1.00  0.00    -0.347 OA 
BRANCH  16  17
HETATM   17  C   UNL     1     -12.268  14.116  65.324  1.00  0.00    -0.434 C  
HETATM   18  O   UNL     1     -12.778  13.409  66.182  1.00  0.00    -0.304 OA 
BRANCH  17  19
HETATM   19  O   UNL     1     -12.435  13.989  63.986  1.00  0.00    -0.682 OA 
BRANCH  19  20
HETATM   20  C   UNL     1     -12.261  12.657  63.481  1.00  0.00    -0.547 C  
HETATM   21  C   UNL     1     -10.789  12.289  63.563  1.00  0.00    -0.508 C  
ENDBRANCH  19  20
ENDBRANCH  17  19
ENDBRANCH  16  17
ENDBRANCH  14  16
ENDBRANCH  13  14
ENDBRANCH  11  13
ENDBRANCH   4  11
BRANCH   7  22
HETATM   22  N   UNL     1     -10.559   8.555  69.532  1.00  0.00    -0.237 N  
HETATM   23  H   UNL     1     -11.142   8.180  68.784  1.00  0.00     0.000 HD 
HETATM   24  C   UNL     1      -9.860   7.682  70.338  1.00  0.00    -0.183 C  
HETATM   25  O   UNL     1      -9.219   8.058  71.318  1.00  0.00    -0.142 OA 
BRANCH  24  26
HETATM   26  C   UNL     1      -9.964   6.198  69.915  1.00  0.00    -0.172 C  
HETATM   27  N   UNL     1     -10.963   6.051  68.820  1.00  0.00    -0.330 NA 
HETATM   28  H2  UNL     1     -10.755   6.662  68.029  1.00  0.00     0.000 HD 
HETATM   29  H1  UNL     1     -11.032   5.073  68.541  1.00  0.00     0.000 HD 
BRANCH  26  30
HETATM   30  C   UNL     1     -10.268   5.297  71.098  1.00  0.00    -0.294 A  
HETATM   31  C   UNL     1      -9.611   4.061  71.213  1.00  0.00    -0.245 A  
HETATM   32  C   UNL     1      -9.877   3.205  72.283  1.00  0.00    -0.233 A  
HETATM   33  C   UNL     1     -10.800   3.575  73.260  1.00  0.00    -0.288 A  
HETATM   34  C   UNL     1     -11.445   4.806  73.173  1.00  0.00    -0.348 A  
HETATM   35  C   UNL     1     -11.175   5.665  72.106  1.00  0.00    -0.288 A  
ENDBRANCH  26  30
ENDBRANCH  24  26
ENDBRANCH   7  22
TORSDOF 10
ENDMDL
MODEL       36
REMARK 921   NORMALIZED FREE ENERGY PREDICTED BY IDOCK:   -5.62 KCAL/MOL
REMARK 922        TOTAL FREE ENERGY PREDICTED BY IDOCK:  -10.17 KCAL/MOL
REMARK 923 INTER-LIGAND FREE ENERGY PREDICTED BY IDOCK:   -8.89 KCAL/MOL
REMARK 924 INTRA-LIGAND FREE ENERGY PREDICTED BY IDOCK:   -1.28 KCAL/MOL
REMARK 927      BINDING AFFINITY PREDICTED BY RF-SCORE:    0.00 PKD
ROOT
HETATM    1  C   UNL     1      -9.221  11.281  68.682  1.00  0.00    -0.161 C  
HETATM    2  S   UNL     1     -10.603  10.628  67.638  1.00  0.00    -0.267 SA 
HETATM    3  C   UNL     1      -9.657   9.144  67.065  1.00  0.00    -0.170 C  
HETATM    4  C   UNL     1      -8.521   8.954  68.091  1.00  0.00    -0.129 C  
HETATM    5  C   UNL     1     -10.595   7.945  66.920  1.00  0.00    -0.333 C  
HETATM    6  C   UNL     1      -9.110   9.474  65.659  1.00  0.00    -0.250 C  
HETATM    7  C   UNL     1      -8.262  12.322  68.038  1.00  0.00    -0.163 C  
HETATM    8  N   UNL     1      -8.140  10.287  68.557  1.00  0.00    -0.104 N  
HETATM    9  O   UNL     1      -6.412  10.833  67.072  1.00  0.00    -0.072 OA 
HETATM   10  C   UNL     1      -7.341  11.101  67.800  1.00  0.00    -0.093 C  
ENDROOT
BRANCH   4  11
HETATM   11  C   UNL     1      -8.850   8.106  69.337  1.00  0.00    -0.143 C  
HETATM   12  O   UNL     1      -9.069   6.900  69.353  1.00  0.00    -0.141 OA 
BRANCH  11  13
HETATM   13  O   UNL     1      -8.967   8.905  70.437  1.00  0.00    -0.152 OA 
BRANCH  13  14
HETATM   14  C   UNL     1     -10.074   8.552  71.282  1.00  0.00    -0.222 C  
HETATM   15  C   UNL     1      -9.588   8.174  72.673  1.00  0.00    -0.352 C  
BRANCH  14  16
HETATM   16  O   UNL     1     -10.921   9.697  71.446  1.00  0.00    -0.360 OA 
BRANCH  16  17
HETATM   17  C   UNL     1     -12.232   9.373  71.550  1.00  0.00    -0.369 C  
HETATM   18  O   UNL     1     -12.734   8.321  71.180  1.00  0.00    -0.237 OA 
BRANCH  17  19
HETATM   19  O   UNL     1     -12.903  10.455  72.012  1.00  0.00    -0.431 OA 
BRANCH  19  20
HETATM   20  C   UNL     1     -12.608  11.683  71.329  1.00  0.00    -0.320 C  
HETATM   21  C   UNL     1     -13.254  12.832  72.084  1.00  0.00    -0.546 C  
ENDBRANCH  19  20
ENDBRANCH  17  19
ENDBRANCH  16  17
ENDBRANCH  14  16
ENDBRANCH  13  14
ENDBRANCH  11  13
ENDBRANCH   4  11
BRANCH   7  22
HETATM   22  N   UNL     1      -8.738  13.032  66.828  1.00  0.00    -0.394 N  
HETATM   23  H   UNL     1      -8.577  12.612  65.912  1.00  0.00     0.000 HD 
HETATM   24  C   UNL     1      -9.393  14.243  66.905  1.00  0.00    -0.257 C  
HETATM   25  O   UNL     1      -9.531  14.852  67.964  1.00  0.00    -0.193 OA 
BRANCH  24  26
HETATM   26  C   UNL     1      -9.920  14.772  65.551  1.00  0.00    -0.356 C  
HETATM   27  N   UNL     1     -10.601  16.081  65.748  1.00  0.00    -0.356 NA 
HETATM   28  H2  UNL     1      -9.999  16.759  66.216  1.00  0.00     0.000 HD 
HETATM   29  H1  UNL     1     -10.949  16.431  64.855  1.00  0.00     0.000 HD 
BRANCH  26  30
HETATM   30  C   UNL     1     -10.810  13.756  64.860  1.00  0.00    -0.398 A  
HETATM   31  C   UNL     1     -12.172  13.686  65.198  1.00  0.00    -0.461 A  
HETATM   32  C   UNL     1     -13.014  12.754  64.589  1.00  0.00    -0.231 A  
HETATM   33  C   UNL     1     -12.510  11.881  63.627  1.00  0.00    -0.583 A  
HETATM   34  C   UNL     1     -11.167  11.951  63.263  1.00  0.00    -0.382 A  
HETATM   35  C   UNL     1     -10.325  12.886  63.868  1.00  0.00    -0.264 A  
ENDBRANCH  26  30
ENDBRANCH  24  26
ENDBRANCH   7  22
TORSDOF 10
ENDMDL
MODEL       37
REMARK 921   NORMALIZED FREE ENERGY PREDICTED BY IDOCK:   -5.57 KCAL/MOL
REMARK 922        TOTAL FREE ENERGY PREDICTED BY IDOCK:  -10.09 KCAL/MOL
REMARK 923 INTER-LIGAND FREE ENERGY PREDICTED BY IDOCK:   -8.56 KCAL/MOL
REMARK 924 INTRA-LIGAND FREE ENERGY PREDICTED BY IDOCK:   -1.53 KCAL/MOL
REMARK 927      BINDING AFFINITY PREDICTED BY RF-SCORE:    0.00 PKD
ROOT
HETATM    1  C   UNL     1      -8.997  10.564  69.134  1.00  0.00    -0.161 C  
HETATM    2  S   UNL     1      -8.344   9.589  67.702  1.00  0.00    -0.125 SA 
HETATM    3  C   UNL     1      -9.995   9.420  66.883  1.00  0.00    -0.229 C  
HETATM    4  C   UNL     1     -10.870  10.542  67.478  1.00  0.00    -0.301 C  
HETATM    5  C   UNL     1      -9.836   9.471  65.363  1.00  0.00    -0.248 C  
HETATM    6  C   UNL     1     -10.535   8.020  67.244  1.00  0.00    -0.384 C  
HETATM    7  C   UNL     1      -9.391   9.782  70.418  1.00  0.00    -0.126 C  
HETATM    8  N   UNL     1     -10.434  10.735  68.861  1.00  0.00    -0.194 N  
HETATM    9  O   UNL     1     -11.876   9.296  70.018  1.00  0.00    -0.006 OA 
HETATM   10  C   UNL     1     -10.829   9.880  69.854  1.00  0.00    -0.278 C  
ENDROOT
BRANCH   4  11
HETATM   11  C   UNL     1     -10.803  11.915  66.777  1.00  0.00    -0.266 C  
HETATM   12  O   UNL     1      -9.854  12.690  66.794  1.00  0.00    -0.224 OA 
BRANCH  11  13
HETATM   13  O   UNL     1     -12.004  12.211  66.198  1.00  0.00    -0.593 OA 
BRANCH  13  14
HETATM   14  C   UNL     1     -11.876  12.877  64.932  1.00  0.00    -0.366 C  
HETATM   15  C   UNL     1     -12.412  12.002  63.809  1.00  0.00    -0.594 C  
BRANCH  14  16
HETATM   16  O   UNL     1     -12.682  14.063  64.943  1.00  0.00    -0.647 OA 
BRANCH  16  17
HETATM   17  C   UNL     1     -12.002  15.167  64.553  1.00  0.00    -0.319 C  
HETATM   18  O   UNL     1     -12.463  16.088  63.894  1.00  0.00    -0.806 OA 
BRANCH  17  19
HETATM   19  O   UNL     1     -10.704  15.015  64.907  1.00  0.00    -0.400 OA 
BRANCH  19  20
HETATM   20  C   UNL     1     -10.159  16.096  65.679  1.00  0.00    -0.337 C  
HETATM   21  C   UNL     1     -10.734  16.036  67.083  1.00  0.00    -0.283 C  
ENDBRANCH  19  20
ENDBRANCH  17  19
ENDBRANCH  16  17
ENDBRANCH  14  16
ENDBRANCH  13  14
ENDBRANCH  11  13
ENDBRANCH   4  11
BRANCH   7  22
HETATM   22  N   UNL     1      -8.841   8.416  70.581  1.00  0.00    -0.140 N  
HETATM   23  H   UNL     1      -8.791   7.802  69.768  1.00  0.00     0.000 HD 
HETATM   24  C   UNL     1      -8.395   7.951  71.800  1.00  0.00    -0.118 C  
HETATM   25  O   UNL     1      -8.517   8.599  72.838  1.00  0.00    -0.403 OA 
BRANCH  24  26
HETATM   26  C   UNL     1      -7.746   6.548  71.751  1.00  0.00    -0.095 C  
HETATM   27  N   UNL     1      -6.263   6.673  71.791  1.00  0.00    -0.041 NA 
HETATM   28  H2  UNL     1      -5.946   7.215  72.596  1.00  0.00     0.000 HD 
HETATM   29  H1  UNL     1      -5.834   5.748  71.758  1.00  0.00     0.000 HD 
BRANCH  26  30
HETATM   30  C   UNL     1      -8.226   5.749  70.554  1.00  0.00    -0.118 A  
HETATM   31  C   UNL     1      -7.353   5.524  69.477  1.00  0.00    -0.066 A  
HETATM   32  C   UNL     1      -7.769   4.804  68.356  1.00  0.00    -0.081 A  
HETATM   33  C   UNL     1      -9.063   4.290  68.296  1.00  0.00    -0.172 A  
HETATM   34  C   UNL     1      -9.935   4.485  69.364  1.00  0.00    -0.212 A  
HETATM   35  C   UNL     1      -9.519   5.201  70.489  1.00  0.00    -0.229 A  
ENDBRANCH  26  30
ENDBRANCH  24  26
ENDBRANCH   7  22
TORSDOF 10
ENDMDL
MODEL       38
REMARK 921   NORMALIZED FREE ENERGY PREDICTED BY IDOCK:   -5.56 KCAL/MOL
REMARK 922        TOTAL FREE ENERGY PREDICTED BY IDOCK:  -10.08 KCAL/MOL
REMARK 923 INTER-LIGAND FREE ENERGY PREDICTED BY IDOCK:   -9.59 KCAL/MOL
REMARK 924 INTRA-LIGAND FREE ENERGY PREDICTED BY IDOCK:   -0.49 KCAL/MOL
REMARK 927      BINDING AFFINITY PREDICTED BY RF-SCORE:    0.00 PKD
ROOT
HETATM    1  C   UNL     1      -9.314  13.843  66.775  1.00  0.00    -0.275 C  
HETATM    2  S   UNL     1     -10.244  13.027  65.399  1.00  0.00    -0.264 SA 
HETATM    3  C   UNL     1     -11.724  14.127  65.560  1.00  0.00    -0.344 C  
HETATM    4  C   UNL     1     -11.231  15.380  66.312  1.00  0.00    -0.162 C  
HETATM    5  C   UNL     1     -12.326  14.404  64.181  1.00  0.00    -0.340 C  
HETATM    6  C   UNL     1     -12.778  13.348  66.375  1.00  0.00     0.031 C  
HETATM    7  C   UNL     1      -9.438  13.224  68.196  1.00  0.00    -0.222 C  
HETATM    8  N   UNL     1     -10.185  14.939  67.235  1.00  0.00    -0.240 N  
HETATM    9  O   UNL     1     -11.416  14.522  69.183  1.00  0.00    -0.261 OA 
HETATM   10  C   UNL     1     -10.496  14.332  68.420  1.00  0.00    -0.249 C  
ENDROOT
BRANCH   4  11
HETATM   11  C   UNL     1     -10.638  16.514  65.449  1.00  0.00    -0.276 C  
HETATM   12  O   UNL     1     -11.108  16.948  64.404  1.00  0.00    -1.128 OA 
BRANCH  11  13
HETATM   13  O   UNL     1      -9.439  16.921  65.960  1.00  0.00    -0.422 OA 
BRANCH  13  14
HETATM   14  C   UNL     1      -9.410  18.316  66.301  1.00  0.00    -0.213 C  
HETATM   15  C   UNL     1     -10.369  18.609  67.445  1.00  0.00    -0.447 C  
BRANCH  14  16
HETATM   16  O   UNL     1      -8.099  18.655  66.774  1.00  0.00    -0.247 OA 
BRANCH  16  17
HETATM   17  C   UNL     1      -7.751  19.933  66.492  1.00  0.00    -0.295 C  
HETATM   18  O   UNL     1      -7.693  20.847  67.303  1.00  0.00    -0.344 OA 
BRANCH  17  19
HETATM   19  O   UNL     1      -7.604  20.049  65.151  1.00  0.00    -0.279 OA 
BRANCH  19  20
HETATM   20  C   UNL     1      -6.288  20.427  64.719  1.00  0.00    -0.298 C  
HETATM   21  C   UNL     1      -5.772  19.383  63.744  1.00  0.00    -0.320 C  
ENDBRANCH  19  20
ENDBRANCH  17  19
ENDBRANCH  16  17
ENDBRANCH  14  16
ENDBRANCH  13  14
ENDBRANCH  11  13
ENDBRANCH   4  11
BRANCH   7  22
HETATM   22  N   UNL     1      -9.919  11.826  68.292  1.00  0.00    -0.195 N  
HETATM   23  H   UNL     1     -10.879  11.613  68.019  1.00  0.00     0.000 HD 
HETATM   24  C   UNL     1      -9.107  10.806  68.738  1.00  0.00    -0.178 C  
HETATM   25  O   UNL     1      -7.975  11.007  69.176  1.00  0.00    -0.138 OA 
BRANCH  24  26
HETATM   26  C   UNL     1      -9.744   9.399  68.656  1.00  0.00    -0.152 C  
HETATM   27  N   UNL     1     -10.707   9.344  67.522  1.00  0.00    -0.382 NA 
HETATM   28  H2  UNL     1     -10.276   9.622  66.640  1.00  0.00     0.000 HD 
HETATM   29  H1  UNL     1     -11.127   8.416  67.467  1.00  0.00     0.000 HD 
BRANCH  26  30
HETATM   30  C   UNL     1     -10.378   8.992  69.973  1.00  0.00    -0.226 A  
HETATM   31  C   UNL     1     -11.461   9.733  70.477  1.00  0.00    -0.370 A  
HETATM   32  C   UNL     1     -12.058   9.391  71.692  1.00  0.00    -0.462 A  
HETATM   33  C   UNL     1     -11.587   8.299  72.419  1.00  0.00    -0.464 A  
HETATM   34  C   UNL     1     -10.529   7.541  71.923  1.00  0.00    -0.235 A  
HETATM   35  C   UNL     1      -9.934   7.879  70.706  1.00  0.00    -0.192 A  
ENDBRANCH  26  30
ENDBRANCH  24  26
ENDBRANCH   7  22
TORSDOF 10
ENDMDL
MODEL       39
REMARK 921   NORMALIZED FREE ENERGY PREDICTED BY IDOCK:   -5.55 KCAL/MOL
REMARK 922        TOTAL FREE ENERGY PREDICTED BY IDOCK:  -10.05 KCAL/MOL
REMARK 923 INTER-LIGAND FREE ENERGY PREDICTED BY IDOCK:   -8.49 KCAL/MOL
REMARK 924 INTRA-LIGAND FREE ENERGY PREDICTED BY IDOCK:   -1.56 KCAL/MOL
REMARK 927      BINDING AFFINITY PREDICTED BY RF-SCORE:    0.00 PKD
ROOT
HETATM    1  C   UNL     1     -11.216  10.019  68.375  1.00  0.00    -0.127 C  
HETATM    2  S   UNL     1     -10.764  10.418  66.625  1.00  0.00    -0.070 SA 
HETATM    3  C   UNL     1      -9.169   9.481  66.676  1.00  0.00    -0.152 C  
HETATM    4  C   UNL     1      -9.302   8.496  67.855  1.00  0.00    -0.135 C  
HETATM    5  C   UNL     1      -8.900   8.825  65.322  1.00  0.00    -0.205 C  
HETATM    6  C   UNL     1      -8.047  10.515  66.918  1.00  0.00    -0.120 C  
HETATM    7  C   UNL     1     -10.817  11.045  69.474  1.00  0.00    -0.216 C  
HETATM    8  N   UNL     1     -10.131   9.152  68.867  1.00  0.00    -0.191 N  
HETATM    9  O   UNL     1      -8.513  10.192  70.204  1.00  0.00    -0.112 OA 
HETATM   10  C   UNL     1      -9.610  10.103  69.701  1.00  0.00    -0.210 C  
ENDROOT
BRANCH   4  11
HETATM   11  C   UNL     1      -9.949   7.130  67.544  1.00  0.00    -0.167 C  
HETATM   12  O   UNL     1     -10.995   6.949  66.932  1.00  0.00    -0.377 OA 
BRANCH  11  13
HETATM   13  O   UNL     1      -9.240   6.124  68.134  1.00  0.00    -0.119 OA 
BRANCH  13  14
HETATM   14  C   UNL     1      -9.997   5.393  69.113  1.00  0.00    -0.197 C  
HETATM   15  C   UNL     1      -9.470   3.973  69.248  1.00  0.00    -0.260 C  
BRANCH  14  16
HETATM   16  O   UNL     1      -9.827   6.013  70.395  1.00  0.00    -0.172 OA 
BRANCH  16  17
HETATM   17  C   UNL     1     -10.952   5.986  71.148  1.00  0.00    -0.278 C  
HETATM   18  O   UNL     1     -11.125   5.289  72.138  1.00  0.00    -0.207 OA 
BRANCH  17  19
HETATM   19  O   UNL     1     -11.886   6.761  70.547  1.00  0.00    -0.372 OA 
BRANCH  19  20
HETATM   20  C   UNL     1     -12.896   7.278  71.426  1.00  0.00    -0.382 C  
HETATM   21  C   UNL     1     -12.422   8.605  71.993  1.00  0.00    -0.433 C  
ENDBRANCH  19  20
ENDBRANCH  17  19
ENDBRANCH  16  17
ENDBRANCH  14  16
ENDBRANCH  13  14
ENDBRANCH  11  13
ENDBRANCH   4  11
BRANCH   7  22
HETATM   22  N   UNL     1     -10.502  12.425  69.037  1.00  0.00    -0.422 N  
HETATM   23  H   UNL     1      -9.615  12.604  68.565  1.00  0.00     0.000 HD 
HETATM   24  C   UNL     1     -11.371  13.473  69.251  1.00  0.00    -0.262 C  
HETATM   25  O   UNL     1     -12.408  13.348  69.900  1.00  0.00    -0.281 OA 
BRANCH  24  26
HETATM   26  C   UNL     1     -10.925  14.813  68.620  1.00  0.00    -0.255 C  
HETATM   27  N   UNL     1     -11.517  15.952  69.376  1.00  0.00    -0.340 NA 
HETATM   28  H2  UNL     1     -11.298  15.905  70.371  1.00  0.00     0.000 HD 
HETATM   29  H1  UNL     1     -11.223  16.836  68.960  1.00  0.00     0.000 HD 
BRANCH  26  30
HETATM   30  C   UNL     1     -11.250  14.871  67.139  1.00  0.00    -0.345 A  
HETATM   31  C   UNL     1     -12.235  14.019  66.613  1.00  0.00    -0.463 A  
HETATM   32  C   UNL     1     -12.547  14.041  65.252  1.00  0.00    -0.495 A  
HETATM   33  C   UNL     1     -11.886  14.920  64.397  1.00  0.00    -0.372 A  
HETATM   34  C   UNL     1     -10.922  15.787  64.906  1.00  0.00    -0.443 A  
HETATM   35  C   UNL     1     -10.612  15.770  66.267  1.00  0.00    -0.313 A  
ENDBRANCH  26  30
ENDBRANCH  24  26
ENDBRANCH   7  22
TORSDOF 10
ENDMDL
MODEL       40
REMARK 921   NORMALIZED FREE ENERGY PREDICTED BY IDOCK:   -5.54 KCAL/MOL
REMARK 922        TOTAL FREE ENERGY PREDICTED BY IDOCK:  -10.04 KCAL/MOL
REMARK 923 INTER-LIGAND FREE ENERGY PREDICTED BY IDOCK:   -9.08 KCAL/MOL
REMARK 924 INTRA-LIGAND FREE ENERGY PREDICTED BY IDOCK:   -0.95 KCAL/MOL
REMARK 927      BINDING AFFINITY PREDICTED BY RF-SCORE:    0.00 PKD
ROOT
HETATM    1  C   UNL     1     -10.183  13.351  65.881  1.00  0.00    -0.299 C  
HETATM    2  S   UNL     1     -11.727  13.611  66.868  1.00  0.00    -0.412 SA 
HETATM    3  C   UNL     1     -10.924  14.753  68.083  1.00  0.00    -0.268 C  
HETATM    4  C   UNL     1      -9.652  15.276  67.386  1.00  0.00    -0.207 C  
HETATM    5  C   UNL     1     -11.910  15.840  68.514  1.00  0.00    -0.233 C  
HETATM    6  C   UNL     1     -10.587  13.914  69.335  1.00  0.00     0.019 C  
HETATM    7  C   UNL     1      -9.301  12.120  66.234  1.00  0.00    -0.218 C  
HETATM    8  N   UNL     1      -9.164  14.198  66.526  1.00  0.00    -0.255 N  
HETATM    9  O   UNL     1      -7.666  13.096  67.950  1.00  0.00    -0.118 OA 
HETATM   10  C   UNL     1      -8.464  13.141  67.042  1.00  0.00    -0.132 C  
ENDROOT
BRANCH   4  11
HETATM   11  C   UNL     1      -9.815  16.532  66.504  1.00  0.00    -0.278 C  
HETATM   12  O   UNL     1     -10.318  16.571  65.388  1.00  0.00    -0.558 OA 
BRANCH  11  13
HETATM   13  O   UNL     1      -9.224  17.609  67.100  1.00  0.00    -0.237 OA 
BRANCH  13  14
HETATM   14  C   UNL     1      -9.537  18.856  66.459  1.00  0.00    -0.346 C  
HETATM   15  C   UNL     1     -10.743  19.510  67.116  1.00  0.00    -0.599 C  
BRANCH  14  16
HETATM   16  O   UNL     1      -8.439  19.761  66.636  1.00  0.00    -0.302 OA 
BRANCH  16  17
HETATM   17  C   UNL     1      -7.270  19.272  66.157  1.00  0.00    -0.265 C  
HETATM   18  O   UNL     1      -7.105  18.790  65.045  1.00  0.00    -0.409 OA 
BRANCH  17  19
HETATM   19  O   UNL     1      -6.358  19.293  67.158  1.00  0.00    -0.190 OA 
BRANCH  19  20
HETATM   20  C   UNL     1      -6.532  20.354  68.109  1.00  0.00    -0.304 C  
HETATM   21  C   UNL     1      -6.367  19.791  69.510  1.00  0.00    -0.372 C  
ENDBRANCH  19  20
ENDBRANCH  17  19
ENDBRANCH  16  17
ENDBRANCH  14  16
ENDBRANCH  13  14
ENDBRANCH  11  13
ENDBRANCH   4  11
BRANCH   7  22
HETATM   22  N   UNL     1      -9.933  11.028  67.010  1.00  0.00    -0.186 N  
HETATM   23  H   UNL     1     -10.935  11.069  67.197  1.00  0.00     0.000 HD 
HETATM   24  C   UNL     1      -9.206   9.957  67.485  1.00  0.00    -0.134 C  
HETATM   25  O   UNL     1      -7.983   9.893  67.382  1.00  0.00    -0.105 OA 
BRANCH  24  26
HETATM   26  C   UNL     1     -10.056   8.859  68.167  1.00  0.00    -0.189 C  
HETATM   27  N   UNL     1     -10.916   8.182  67.157  1.00  0.00    -0.421 NA 
HETATM   28  H2  UNL     1     -10.372   7.816  66.375  1.00  0.00     0.000 HD 
HETATM   29  H1  UNL     1     -11.477   7.458  67.606  1.00  0.00     0.000 HD 
BRANCH  26  30
HETATM   30  C   UNL     1     -10.859   9.412  69.330  1.00  0.00    -0.208 A  
HETATM   31  C   UNL     1     -10.682   8.868  70.613  1.00  0.00    -0.282 A  
HETATM   32  C   UNL     1     -11.414   9.347  71.701  1.00  0.00    -0.463 A  
HETATM   33  C   UNL     1     -12.329  10.383  71.525  1.00  0.00    -0.468 A  
HETATM   34  C   UNL     1     -12.501  10.950  70.265  1.00  0.00    -0.383 A  
HETATM   35  C   UNL     1     -11.765  10.474  69.176  1.00  0.00    -0.261 A  
ENDBRANCH  26  30
ENDBRANCH  24  26
ENDBRANCH   7  22
TORSDOF 10
ENDMDL
MODEL       41
REMARK 921   NORMALIZED FREE ENERGY PREDICTED BY IDOCK:   -5.51 KCAL/MOL
REMARK 922        TOTAL FREE ENERGY PREDICTED BY IDOCK:   -9.99 KCAL/MOL
REMARK 923 INTER-LIGAND FREE ENERGY PREDICTED BY IDOCK:   -8.90 KCAL/MOL
REMARK 924 INTRA-LIGAND FREE ENERGY PREDICTED BY IDOCK:   -1.09 KCAL/MOL
REMARK 927      BINDING AFFINITY PREDICTED BY RF-SCORE:    0.00 PKD
ROOT
HETATM    1  C   UNL     1      -8.332   8.444  67.906  1.00  0.00    -0.131 C  
HETATM    2  S   UNL     1     -10.113   8.597  68.390  1.00  0.00    -0.195 SA 
HETATM    3  C   UNL     1     -10.358   6.775  68.600  1.00  0.00    -0.186 C  
HETATM    4  C   UNL     1      -8.945   6.184  68.783  1.00  0.00    -0.123 C  
HETATM    5  C   UNL     1     -11.320   6.503  69.756  1.00  0.00    -0.456 C  
HETATM    6  C   UNL     1     -11.031   6.260  67.309  1.00  0.00    -0.455 C  
HETATM    7  C   UNL     1      -8.002   8.373  66.389  1.00  0.00    -0.099 C  
HETATM    8  N   UNL     1      -8.033   7.004  67.985  1.00  0.00    -0.114 N  
HETATM    9  O   UNL     1      -8.015   5.847  65.948  1.00  0.00    -0.102 OA 
HETATM   10  C   UNL     1      -7.940   6.845  66.629  1.00  0.00    -0.108 C  
ENDROOT
BRANCH   4  11
HETATM   11  C   UNL     1      -8.393   6.148  70.224  1.00  0.00    -0.125 C  
HETATM   12  O   UNL     1      -8.480   5.210  71.007  1.00  0.00    -0.116 OA 
BRANCH  11  13
HETATM   13  O   UNL     1      -7.867   7.362  70.560  1.00  0.00    -0.094 OA 
BRANCH  13  14
HETATM   14  C   UNL     1      -8.138   7.742  71.919  1.00  0.00    -0.104 C  
HETATM   15  C   UNL     1      -6.861   8.183  72.618  1.00  0.00    -0.099 C  
BRANCH  14  16
HETATM   16  O   UNL     1      -9.014   8.878  71.920  1.00  0.00    -0.331 OA 
BRANCH  16  17
HETATM   17  C   UNL     1     -10.275   8.571  72.309  1.00  0.00    -0.325 C  
HETATM   18  O   UNL     1     -10.585   7.640  73.038  1.00  0.00    -0.314 OA 
BRANCH  17  19
HETATM   19  O   UNL     1     -11.133   9.388  71.653  1.00  0.00    -0.369 OA 
BRANCH  19  20
HETATM   20  C   UNL     1     -12.514   9.219  72.007  1.00  0.00    -0.378 C  
HETATM   21  C   UNL     1     -13.225  10.554  71.862  1.00  0.00    -0.526 C  
ENDBRANCH  19  20
ENDBRANCH  17  19
ENDBRANCH  16  17
ENDBRANCH  14  16
ENDBRANCH  13  14
ENDBRANCH  11  13
ENDBRANCH   4  11
BRANCH   7  22
HETATM   22  N   UNL     1      -9.036   8.848  65.442  1.00  0.00    -0.339 N  
HETATM   23  H   UNL     1      -9.766   8.202  65.140  1.00  0.00     0.000 HD 
HETATM   24  C   UNL     1      -9.041  10.138  64.955  1.00  0.00    -0.205 C  
HETATM   25  O   UNL     1      -8.139  10.937  65.197  1.00  0.00    -0.057 OA 
BRANCH  24  26
HETATM   26  C   UNL     1     -10.264  10.485  64.074  1.00  0.00    -0.168 C  
HETATM   27  N   UNL     1      -9.842  10.627  62.654  1.00  0.00    -0.683 NA 
HETATM   28  H2  UNL     1      -9.349   9.800  62.316  1.00  0.00     0.000 HD 
HETATM   29  H1  UNL     1     -10.648  10.856  62.072  1.00  0.00     0.000 HD 
BRANCH  26  30
HETATM   30  C   UNL     1     -10.994  11.714  64.586  1.00  0.00    -0.363 A  
HETATM   31  C   UNL     1     -11.552  12.619  63.668  1.00  0.00    -0.575 A  
HETATM   32  C   UNL     1     -12.218  13.764  64.107  1.00  0.00    -0.443 A  
HETATM   33  C   UNL     1     -12.344  14.020  65.471  1.00  0.00    -0.503 A  
HETATM   34  C   UNL     1     -11.815  13.122  66.395  1.00  0.00    -0.455 A  
HETATM   35  C   UNL     1     -11.153  11.973  65.957  1.00  0.00    -0.364 A  
ENDBRANCH  26  30
ENDBRANCH  24  26
ENDBRANCH   7  22
TORSDOF 10
ENDMDL
MODEL       42
REMARK 921   NORMALIZED FREE ENERGY PREDICTED BY IDOCK:   -5.49 KCAL/MOL
REMARK 922        TOTAL FREE ENERGY PREDICTED BY IDOCK:   -9.97 KCAL/MOL
REMARK 923 INTER-LIGAND FREE ENERGY PREDICTED BY IDOCK:   -8.24 KCAL/MOL
REMARK 924 INTRA-LIGAND FREE ENERGY PREDICTED BY IDOCK:   -1.73 KCAL/MOL
REMARK 927      BINDING AFFINITY PREDICTED BY RF-SCORE:    0.00 PKD
ROOT
HETATM    1  C   UNL     1      -8.372   8.217  67.219  1.00  0.00    -0.121 C  
HETATM    2  S   UNL     1      -8.412   9.692  68.337  1.00  0.00    -0.119 SA 
HETATM    3  C   UNL     1      -9.437   8.857  69.632  1.00  0.00    -0.168 C  
HETATM    4  C   UNL     1      -9.272   7.344  69.383  1.00  0.00    -0.145 C  
HETATM    5  C   UNL     1      -9.011   9.327  71.024  1.00  0.00    -0.225 C  
HETATM    6  C   UNL     1     -10.896   9.317  69.417  1.00  0.00    -0.184 C  
HETATM    7  C   UNL     1      -9.450   8.129  66.103  1.00  0.00    -0.147 C  
HETATM    8  N   UNL     1      -9.111   7.165  67.940  1.00  0.00    -0.129 N  
HETATM    9  O   UNL     1     -11.323   6.813  67.257  1.00  0.00    -0.300 OA 
HETATM   10  C   UNL     1     -10.188   7.201  67.097  1.00  0.00    -0.257 C  
ENDROOT
BRANCH   4  11
HETATM   11  C   UNL     1      -8.072   6.659  70.071  1.00  0.00    -0.121 C  
HETATM   12  O   UNL     1      -6.905   6.702  69.699  1.00  0.00    -0.054 OA 
BRANCH  11  13
HETATM   13  O   UNL     1      -8.498   5.898  71.121  1.00  0.00    -0.122 OA 
BRANCH  13  14
HETATM   14  C   UNL     1      -9.814   5.353  70.931  1.00  0.00    -0.188 C  
HETATM   15  C   UNL     1      -9.738   3.984  70.274  1.00  0.00    -0.263 C  
BRANCH  14  16
HETATM   16  O   UNL     1     -10.428   5.156  72.212  1.00  0.00    -0.207 OA 
BRANCH  16  17
HETATM   17  C   UNL     1     -11.052   6.266  72.675  1.00  0.00    -0.263 C  
HETATM   18  O   UNL     1     -10.593   7.046  73.496  1.00  0.00    -0.332 OA 
BRANCH  17  19
HETATM   19  O   UNL     1     -12.308   6.289  72.170  1.00  0.00    -0.315 OA 
BRANCH  19  20
HETATM   20  C   UNL     1     -12.776   7.589  71.779  1.00  0.00    -0.331 C  
HETATM   21  C   UNL     1     -14.290   7.554  71.667  1.00  0.00    -0.621 C  
ENDBRANCH  19  20
ENDBRANCH  17  19
ENDBRANCH  16  17
ENDBRANCH  14  16
ENDBRANCH  13  14
ENDBRANCH  11  13
ENDBRANCH   4  11
BRANCH   7  22
HETATM   22  N   UNL     1     -10.149   9.381  65.729  1.00  0.00    -0.353 N  
HETATM   23  H   UNL     1     -10.972   9.666  66.260  1.00  0.00     0.000 HD 
HETATM   24  C   UNL     1      -9.719  10.171  64.684  1.00  0.00    -0.309 C  
HETATM   25  O   UNL     1      -8.798   9.838  63.941  1.00  0.00    -0.202 OA 
BRANCH  24  26
HETATM   26  C   UNL     1     -10.501  11.495  64.521  1.00  0.00    -0.314 C  
HETATM   27  N   UNL     1      -9.856  12.340  63.477  1.00  0.00    -0.633 NA 
HETATM   28  H2  UNL     1      -9.755  11.842  62.592  1.00  0.00     0.000 HD 
HETATM   29  H1  UNL     1     -10.371  13.213  63.369  1.00  0.00     0.000 HD 
BRANCH  26  30
HETATM   30  C   UNL     1     -10.650  12.225  65.843  1.00  0.00    -0.290 A  
HETATM   31  C   UNL     1      -9.506  12.711  66.498  1.00  0.00    -0.247 A  
HETATM   32  C   UNL     1      -9.609  13.376  67.721  1.00  0.00    -0.213 A  
HETATM   33  C   UNL     1     -10.859  13.572  68.306  1.00  0.00    -0.277 A  
HETATM   34  C   UNL     1     -12.005  13.116  67.660  1.00  0.00    -0.363 A  
HETATM   35  C   UNL     1     -11.904  12.455  66.434  1.00  0.00    -0.421 A  
ENDBRANCH  26  30
ENDBRANCH  24  26
ENDBRANCH   7  22
TORSDOF 10
ENDMDL
MODEL       43
REMARK 921   NORMALIZED FREE ENERGY PREDICTED BY IDOCK:   -5.46 KCAL/MOL
REMARK 922        TOTAL FREE ENERGY PREDICTED BY IDOCK:   -9.91 KCAL/MOL
REMARK 923 INTER-LIGAND FREE ENERGY PREDICTED BY IDOCK:   -8.79 KCAL/MOL
REMARK 924 INTRA-LIGAND FREE ENERGY PREDICTED BY IDOCK:   -1.12 KCAL/MOL
REMARK 927      BINDING AFFINITY PREDICTED BY RF-SCORE:    0.00 PKD
ROOT
HETATM    1  C   UNL     1      -9.410  13.698  67.196  1.00  0.00    -0.240 C  
HETATM    2  S   UNL     1     -10.070  13.404  65.492  1.00  0.00    -0.229 SA 
HETATM    3  C   UNL     1     -11.478  14.591  65.681  1.00  0.00    -0.341 C  
HETATM    4  C   UNL     1     -11.082  15.524  66.843  1.00  0.00    -0.221 C  
HETATM    5  C   UNL     1     -11.749  15.301  64.354  1.00  0.00    -0.289 C  
HETATM    6  C   UNL     1     -12.730  13.753  66.020  1.00  0.00    -0.407 C  
HETATM    7  C   UNL     1      -9.877  12.738  68.325  1.00  0.00    -0.224 C  
HETATM    8  N   UNL     1     -10.290  14.726  67.779  1.00  0.00    -0.243 N  
HETATM    9  O   UNL     1     -11.937  13.951  69.252  1.00  0.00    -0.321 OA 
HETATM   10  C   UNL     1     -10.888  13.863  68.656  1.00  0.00    -0.262 C  
ENDROOT
BRANCH   4  11
HETATM   11  C   UNL     1     -10.247  16.769  66.475  1.00  0.00    -0.316 C  
HETATM   12  O   UNL     1      -9.344  16.814  65.648  1.00  0.00    -0.511 OA 
BRANCH  11  13
HETATM   13  O   UNL     1     -10.585  17.820  67.277  1.00  0.00    -0.362 OA 
BRANCH  13  14
HETATM   14  C   UNL     1      -9.544  18.804  67.393  1.00  0.00    -0.306 C  
HETATM   15  C   UNL     1     -10.125  20.208  67.342  1.00  0.00    -0.556 C  
BRANCH  14  16
HETATM   16  O   UNL     1      -8.916  18.671  68.676  1.00  0.00    -0.324 OA 
BRANCH  16  17
HETATM   17  C   UNL     1      -7.797  17.909  68.640  1.00  0.00    -0.290 C  
HETATM   18  O   UNL     1      -7.743  16.716  68.903  1.00  0.00    -0.222 OA 
BRANCH  17  19
HETATM   19  O   UNL     1      -6.740  18.717  68.388  1.00  0.00    -0.234 OA 
BRANCH  19  20
HETATM   20  C   UNL     1      -6.573  19.798  69.319  1.00  0.00    -0.352 C  
HETATM   21  C   UNL     1      -5.387  19.494  70.217  1.00  0.00    -0.237 C  
ENDBRANCH  19  20
ENDBRANCH  17  19
ENDBRANCH  16  17
ENDBRANCH  14  16
ENDBRANCH  13  14
ENDBRANCH  11  13
ENDBRANCH   4  11
BRANCH   7  22
HETATM   22  N   UNL     1     -10.454  11.435  67.919  1.00  0.00    -0.179 N  
HETATM   23  H   UNL     1     -11.255  11.424  67.288  1.00  0.00     0.000 HD 
HETATM   24  C   UNL     1      -9.939  10.239  68.370  1.00  0.00    -0.157 C  
HETATM   25  O   UNL     1      -9.041  10.181  69.208  1.00  0.00    -0.175 OA 
BRANCH  24  26
HETATM   26  C   UNL     1     -10.594   8.985  67.745  1.00  0.00    -0.214 C  
HETATM   27  N   UNL     1     -11.044   8.058  68.820  1.00  0.00    -0.382 NA 
HETATM   28  H2  UNL     1     -11.661   8.520  69.489  1.00  0.00     0.000 HD 
HETATM   29  H1  UNL     1     -11.476   7.231  68.408  1.00  0.00     0.000 HD 
BRANCH  26  30
HETATM   30  C   UNL     1      -9.670   8.308  66.748  1.00  0.00    -0.307 A  
HETATM   31  C   UNL     1      -9.096   9.064  65.713  1.00  0.00    -0.272 A  
HETATM   32  C   UNL     1      -8.252   8.468  64.774  1.00  0.00    -0.164 A  
HETATM   33  C   UNL     1      -7.964   7.107  64.858  1.00  0.00    -0.127 A  
HETATM   34  C   UNL     1      -8.508   6.347  65.890  1.00  0.00    -0.147 A  
HETATM   35  C   UNL     1      -9.348   6.943  66.834  1.00  0.00    -0.177 A  
ENDBRANCH  26  30
ENDBRANCH  24  26
ENDBRANCH   7  22
TORSDOF 10
ENDMDL
MODEL       44
REMARK 921   NORMALIZED FREE ENERGY PREDICTED BY IDOCK:   -5.44 KCAL/MOL
REMARK 922        TOTAL FREE ENERGY PREDICTED BY IDOCK:   -9.89 KCAL/MOL
REMARK 923 INTER-LIGAND FREE ENERGY PREDICTED BY IDOCK:   -8.21 KCAL/MOL
REMARK 924 INTRA-LIGAND FREE ENERGY PREDICTED BY IDOCK:   -1.68 KCAL/MOL
REMARK 927      BINDING AFFINITY PREDICTED BY RF-SCORE:    0.00 PKD
ROOT
HETATM    1  C   UNL     1     -10.525  10.957  65.542  1.00  0.00    -0.219 C  
HETATM    2  S   UNL     1     -11.388  11.005  67.179  1.00  0.00    -0.013 SA 
HETATM    3  C   UNL     1     -10.019  11.913  68.032  1.00  0.00    -0.190 C  
HETATM    4  C   UNL     1      -9.197  12.577  66.909  1.00  0.00    -0.211 C  
HETATM    5  C   UNL     1     -10.595  12.884  69.063  1.00  0.00    -0.079 C  
HETATM    6  C   UNL     1      -9.192  10.861  68.801  1.00  0.00    -0.187 C  
HETATM    7  C   UNL     1      -9.678   9.697  65.211  1.00  0.00    -0.260 C  
HETATM    8  N   UNL     1      -9.261  11.686  65.750  1.00  0.00    -0.208 N  
HETATM    9  O   UNL     1      -7.354  10.362  66.064  1.00  0.00    -0.122 OA 
HETATM   10  C   UNL     1      -8.483  10.563  65.676  1.00  0.00    -0.176 C  
ENDROOT
BRANCH   4  11
HETATM   11  C   UNL     1      -9.664  13.973  66.444  1.00  0.00    -0.296 C  
HETATM   12  O   UNL     1     -10.695  14.223  65.832  1.00  0.00    -0.291 OA 
BRANCH  11  13
HETATM   13  O   UNL     1      -8.711  14.909  66.725  1.00  0.00    -0.243 OA 
BRANCH  13  14
HETATM   14  C   UNL     1      -9.244  16.100  67.325  1.00  0.00    -0.208 C  
HETATM   15  C   UNL     1      -8.707  16.275  68.737  1.00  0.00    -0.244 C  
BRANCH  14  16
HETATM   16  O   UNL     1      -8.799  17.240  66.578  1.00  0.00    -0.239 OA 
BRANCH  16  17
HETATM   17  C   UNL     1      -9.821  17.977  66.080  1.00  0.00    -0.249 C  
HETATM   18  O   UNL     1     -10.752  17.541  65.417  1.00  0.00    -0.612 OA 
BRANCH  17  19
HETATM   19  O   UNL     1      -9.568  19.283  66.334  1.00  0.00    -0.341 OA 
BRANCH  19  20
HETATM   20  C   UNL     1     -10.531  19.930  67.179  1.00  0.00    -0.433 C  
HETATM   21  C   UNL     1     -10.136  19.712  68.629  1.00  0.00    -0.547 C  
ENDBRANCH  19  20
ENDBRANCH  17  19
ENDBRANCH  16  17
ENDBRANCH  14  16
ENDBRANCH  13  14
ENDBRANCH  11  13
ENDBRANCH   4  11
BRANCH   7  22
HETATM   22  N   UNL     1      -9.946   8.469  65.995  1.00  0.00    -0.465 N  
HETATM   23  H   UNL     1     -10.685   8.482  66.698  1.00  0.00     0.000 HD 
HETATM   24  C   UNL     1      -9.223   7.310  65.804  1.00  0.00     0.129 C  
HETATM   25  O   UNL     1      -8.255   7.254  65.047  1.00  0.00    -0.137 OA 
BRANCH  24  26
HETATM   26  C   UNL     1      -9.724   6.101  66.627  1.00  0.00    -0.160 C  
HETATM   27  N   UNL     1     -10.992   5.581  66.046  1.00  0.00    -0.736 NA 
HETATM   28  H2  UNL     1     -10.895   5.356  65.055  1.00  0.00     0.000 HD 
HETATM   29  H1  UNL     1     -11.323   4.783  66.589  1.00  0.00     0.000 HD 
BRANCH  26  30
HETATM   30  C   UNL     1      -9.861   6.443  68.100  1.00  0.00    -0.127 A  
HETATM   31  C   UNL     1     -11.088   6.226  68.749  1.00  0.00    -0.424 A  
HETATM   32  C   UNL     1     -11.249   6.542  70.099  1.00  0.00    -0.437 A  
HETATM   33  C   UNL     1     -10.184   7.073  70.824  1.00  0.00    -0.208 A  
HETATM   34  C   UNL     1      -8.954   7.274  70.202  1.00  0.00    -0.148 A  
HETATM   35  C   UNL     1      -8.790   6.954  68.852  1.00  0.00    -0.129 A  
ENDBRANCH  26  30
ENDBRANCH  24  26
ENDBRANCH   7  22
TORSDOF 10
ENDMDL
MODEL       45
REMARK 921   NORMALIZED FREE ENERGY PREDICTED BY IDOCK:   -5.44 KCAL/MOL
REMARK 922        TOTAL FREE ENERGY PREDICTED BY IDOCK:   -9.88 KCAL/MOL
REMARK 923 INTER-LIGAND FREE ENERGY PREDICTED BY IDOCK:   -8.20 KCAL/MOL
REMARK 924 INTRA-LIGAND FREE ENERGY PREDICTED BY IDOCK:   -1.68 KCAL/MOL
REMARK 927      BINDING AFFINITY PREDICTED BY RF-SCORE:    0.00 PKD
ROOT
HETATM    1  C   UNL     1      -8.442  10.325  65.743  1.00  0.00    -0.157 C  
HETATM    2  S   UNL     1      -8.231  11.781  66.866  1.00  0.00    -0.147 SA 
HETATM    3  C   UNL     1      -8.417  10.788  68.417  1.00  0.00    -0.137 C  
HETATM    4  C   UNL     1      -8.125   9.328  68.014  1.00  0.00    -0.104 C  
HETATM    5  C   UNL     1      -7.505  11.345  69.511  1.00  0.00     0.133 C  
HETATM    6  C   UNL     1      -9.874  10.969  68.896  1.00  0.00    -0.189 C  
HETATM    7  C   UNL     1      -9.871  10.028  65.208  1.00  0.00    -0.318 C  
HETATM    8  N   UNL     1      -8.593   9.164  66.638  1.00  0.00    -0.125 N  
HETATM    9  O   UNL     1     -10.784   8.405  66.969  1.00  0.00    -0.289 OA 
HETATM   10  C   UNL     1      -9.921   8.992  66.357  1.00  0.00    -0.300 C  
ENDROOT
BRANCH   4  11
HETATM   11  C   UNL     1      -6.649   8.883  68.056  1.00  0.00    -0.061 C  
HETATM   12  O   UNL     1      -5.743   9.315  67.353  1.00  0.00    -0.041 OA 
BRANCH  11  13
HETATM   13  O   UNL     1      -6.490   7.849  68.933  1.00  0.00    -0.045 OA 
BRANCH  13  14
HETATM   14  C   UNL     1      -7.734   7.294  69.389  1.00  0.00    -0.107 C  
HETATM   15  C   UNL     1      -7.976   5.931  68.760  1.00  0.00    -0.103 C  
BRANCH  14  16
HETATM   16  O   UNL     1      -7.660   7.080  70.805  1.00  0.00    -0.087 OA 
BRANCH  16  17
HETATM   17  C   UNL     1      -8.436   7.937  71.510  1.00  0.00    -0.114 C  
HETATM   18  O   UNL     1      -8.045   8.956  72.062  1.00  0.00    -0.355 OA 
BRANCH  17  19
HETATM   19  O   UNL     1      -9.679   7.408  71.602  1.00  0.00    -0.155 OA 
BRANCH  19  20
HETATM   20  C   UNL     1     -10.582   8.137  72.448  1.00  0.00    -0.323 C  
HETATM   21  C   UNL     1     -11.473   9.007  71.580  1.00  0.00    -0.431 C  
ENDBRANCH  19  20
ENDBRANCH  17  19
ENDBRANCH  16  17
ENDBRANCH  14  16
ENDBRANCH  13  14
ENDBRANCH  11  13
ENDBRANCH   4  11
BRANCH   7  22
HETATM   22  N   UNL     1     -10.864  11.126  65.268  1.00  0.00    -0.203 N  
HETATM   23  H   UNL     1     -11.477  11.194  66.081  1.00  0.00     0.000 HD 
HETATM   24  C   UNL     1     -10.983  12.056  64.258  1.00  0.00    -0.346 C  
HETATM   25  O   UNL     1     -10.348  11.975  63.208  1.00  0.00    -0.434 OA 
BRANCH  24  26
HETATM   26  C   UNL     1     -11.989  13.194  64.552  1.00  0.00    -0.389 C  
HETATM   27  N   UNL     1     -12.347  13.894  63.287  1.00  0.00    -1.148 NA 
HETATM   28  H2  UNL     1     -12.695  13.248  62.578  1.00  0.00     0.000 HD 
HETATM   29  H1  UNL     1     -13.010  14.644  63.480  1.00  0.00     0.000 HD 
BRANCH  26  30
HETATM   30  C   UNL     1     -11.465  14.146  65.611  1.00  0.00    -0.325 A  
HETATM   31  C   UNL     1     -11.948  14.051  66.927  1.00  0.00    -0.479 A  
HETATM   32  C   UNL     1     -11.494  14.920  67.920  1.00  0.00    -0.357 A  
HETATM   33  C   UNL     1     -10.545  15.894  67.616  1.00  0.00    -0.307 A  
HETATM   34  C   UNL     1     -10.039  15.989  66.322  1.00  0.00    -0.329 A  
HETATM   35  C   UNL     1     -10.488  15.116  65.328  1.00  0.00    -0.434 A  
ENDBRANCH  26  30
ENDBRANCH  24  26
ENDBRANCH   7  22
TORSDOF 10
ENDMDL
MODEL       46
REMARK 921   NORMALIZED FREE ENERGY PREDICTED BY IDOCK:   -5.44 KCAL/MOL
REMARK 922        TOTAL FREE ENERGY PREDICTED BY IDOCK:   -9.88 KCAL/MOL
REMARK 923 INTER-LIGAND FREE ENERGY PREDICTED BY IDOCK:   -8.72 KCAL/MOL
REMARK 924 INTRA-LIGAND FREE ENERGY PREDICTED BY IDOCK:   -1.16 KCAL/MOL
REMARK 927      BINDING AFFINITY PREDICTED BY RF-SCORE:    0.00 PKD
ROOT
HETATM    1  C   UNL     1      -9.123  13.231  67.998  1.00  0.00    -0.202 C  
HETATM    2  S   UNL     1      -9.298  12.546  66.288  1.00  0.00    -0.123 SA 
HETATM    3  C   UNL     1     -10.689  13.676  65.826  1.00  0.00    -0.280 C  
HETATM    4  C   UNL     1     -10.613  14.855  66.817  1.00  0.00    -0.305 C  
HETATM    5  C   UNL     1     -10.581  14.070  64.353  1.00  0.00    -0.196 C  
HETATM    6  C   UNL     1     -11.997  12.871  65.993  1.00  0.00    -0.505 C  
HETATM    7  C   UNL     1      -9.891  12.515  69.144  1.00  0.00     0.448 C  
HETATM    8  N   UNL     1     -10.116  14.317  68.083  1.00  0.00    -0.227 N  
HETATM    9  O   UNL     1     -12.111  13.796  69.195  1.00  0.00    -0.346 OA 
HETATM   10  C   UNL     1     -10.940  13.634  68.936  1.00  0.00    -0.249 C  
ENDROOT
BRANCH   4  11
HETATM   11  C   UNL     1      -9.695  16.031  66.422  1.00  0.00    -0.284 C  
HETATM   12  O   UNL     1      -8.473  16.054  66.510  1.00  0.00    -0.257 OA 
BRANCH  11  13
HETATM   13  O   UNL     1     -10.442  17.108  66.042  1.00  0.00    -0.334 OA 
BRANCH  13  14
HETATM   14  C   UNL     1     -10.024  18.336  66.660  1.00  0.00    -0.364 C  
HETATM   15  C   UNL     1     -10.700  19.527  65.998  1.00  0.00    -0.529 C  
BRANCH  14  16
HETATM   16  O   UNL     1     -10.451  18.338  68.030  1.00  0.00    -0.381 OA 
BRANCH  16  17
HETATM   17  C   UNL     1      -9.653  19.086  68.829  1.00  0.00    -0.396 C  
HETATM   18  O   UNL     1     -10.031  19.987  69.564  1.00  0.00    -0.247 OA 
BRANCH  17  19
HETATM   19  O   UNL     1      -8.365  18.749  68.580  1.00  0.00    -0.332 OA 
BRANCH  19  20
HETATM   20  C   UNL     1      -7.498  19.856  68.293  1.00  0.00    -0.284 C  
HETATM   21  C   UNL     1      -6.539  20.044  69.455  1.00  0.00    -0.343 C  
ENDBRANCH  19  20
ENDBRANCH  17  19
ENDBRANCH  16  17
ENDBRANCH  14  16
ENDBRANCH  13  14
ENDBRANCH  11  13
ENDBRANCH   4  11
BRANCH   7  22
HETATM   22  N   UNL     1     -10.351  11.128  68.894  1.00  0.00    -0.201 N  
HETATM   23  H   UNL     1     -11.249  10.980  68.434  1.00  0.00     0.000 HD 
HETATM   24  C   UNL     1      -9.599  10.034  69.266  1.00  0.00    -0.216 C  
HETATM   25  O   UNL     1      -8.558  10.138  69.911  1.00  0.00    -0.177 OA 
BRANCH  24  26
HETATM   26  C   UNL     1     -10.184   8.674  68.817  1.00  0.00    -0.207 C  
HETATM   27  N   UNL     1     -11.151   8.880  67.704  1.00  0.00    -0.417 NA 
HETATM   28  H2  UNL     1     -10.735   9.395  66.926  1.00  0.00     0.000 HD 
HETATM   29  H1  UNL     1     -11.537   7.984  67.407  1.00  0.00     0.000 HD 
BRANCH  26  30
HETATM   30  C   UNL     1     -10.795   7.915  69.980  1.00  0.00    -0.238 A  
HETATM   31  C   UNL     1     -11.695   8.570  70.837  1.00  0.00    -0.274 A  
HETATM   32  C   UNL     1     -12.265   7.902  71.922  1.00  0.00    -0.351 A  
HETATM   33  C   UNL     1     -11.950   6.567  72.165  1.00  0.00    -0.334 A  
HETATM   34  C   UNL     1     -11.076   5.896  71.313  1.00  0.00    -0.307 A  
HETATM   35  C   UNL     1     -10.509   6.561  70.224  1.00  0.00    -0.261 A  
ENDBRANCH  26  30
ENDBRANCH  24  26
ENDBRANCH   7  22
TORSDOF 10
ENDMDL
MODEL       47
REMARK 921   NORMALIZED FREE ENERGY PREDICTED BY IDOCK:   -5.43 KCAL/MOL
REMARK 922        TOTAL FREE ENERGY PREDICTED BY IDOCK:   -9.86 KCAL/MOL
REMARK 923 INTER-LIGAND FREE ENERGY PREDICTED BY IDOCK:   -8.33 KCAL/MOL
REMARK 924 INTRA-LIGAND FREE ENERGY PREDICTED BY IDOCK:   -1.53 KCAL/MOL
REMARK 927      BINDING AFFINITY PREDICTED BY RF-SCORE:    0.00 PKD
ROOT
HETATM    1  C   UNL     1     -10.085   8.953  67.840  1.00  0.00    -0.206 C  
HETATM    2  S   UNL     1      -8.294   9.106  67.402  1.00  0.00    -0.115 SA 
HETATM    3  C   UNL     1      -7.817   9.858  69.025  1.00  0.00    -0.095 C  
HETATM    4  C   UNL     1      -8.951   9.489  70.003  1.00  0.00    -0.223 C  
HETATM    5  C   UNL     1      -6.429   9.373  69.443  1.00  0.00    -0.044 C  
HETATM    6  C   UNL     1      -7.726  11.384  68.804  1.00  0.00    -0.135 C  
HETATM    7  C   UNL     1     -11.032  10.110  67.416  1.00  0.00    -0.229 C  
HETATM    8  N   UNL     1     -10.189   9.447  69.225  1.00  0.00    -0.194 N  
HETATM    9  O   UNL     1     -10.982  11.636  69.475  1.00  0.00    -0.200 OA 
HETATM   10  C   UNL     1     -10.845  10.595  68.874  1.00  0.00    -0.231 C  
ENDROOT
BRANCH   4  11
HETATM   11  C   UNL     1      -8.819   8.137  70.735  1.00  0.00    -0.141 C  
HETATM   12  O   UNL     1      -8.545   7.060  70.218  1.00  0.00    -0.137 OA 
BRANCH  11  13
HETATM   13  O   UNL     1      -9.149   8.276  72.052  1.00  0.00    -0.160 OA 
BRANCH  13  14
HETATM   14  C   UNL     1     -10.171   7.361  72.481  1.00  0.00    -0.216 C  
HETATM   15  C   UNL     1      -9.732   6.614  73.731  1.00  0.00    -0.248 C  
BRANCH  14  16
HETATM   16  O   UNL     1     -11.342   8.105  72.843  1.00  0.00    -0.387 OA 
BRANCH  16  17
HETATM   17  C   UNL     1     -12.361   7.947  71.965  1.00  0.00    -0.308 C  
HETATM   18  O   UNL     1     -12.342   7.221  70.981  1.00  0.00    -0.331 OA 
BRANCH  17  19
HETATM   19  O   UNL     1     -13.344   8.819  72.292  1.00  0.00    -0.385 OA 
BRANCH  19  20
HETATM   20  C   UNL     1     -13.523   9.901  71.365  1.00  0.00    -0.302 C  
HETATM   21  C   UNL     1     -13.130  11.200  72.044  1.00  0.00    -0.433 C  
ENDBRANCH  19  20
ENDBRANCH  17  19
ENDBRANCH  16  17
ENDBRANCH  14  16
ENDBRANCH  13  14
ENDBRANCH  11  13
ENDBRANCH   4  11
BRANCH   7  22
HETATM   22  N   UNL     1     -10.558  11.025  66.352  1.00  0.00    -0.262 N  
HETATM   23  H   UNL     1      -9.651  10.852  65.918  1.00  0.00     0.000 HD 
HETATM   24  C   UNL     1     -11.306  12.104  65.933  1.00  0.00    -0.356 C  
HETATM   25  O   UNL     1     -12.359  12.430  66.479  1.00  0.00    -0.511 OA 
BRANCH  24  26
HETATM   26  C   UNL     1     -10.704  12.873  64.733  1.00  0.00    -0.333 C  
HETATM   27  N   UNL     1      -9.461  12.197  64.270  1.00  0.00    -0.475 NA 
HETATM   28  H2  UNL     1      -9.619  11.212  64.054  1.00  0.00     0.000 HD 
HETATM   29  H1  UNL     1      -9.063  12.704  63.479  1.00  0.00     0.000 HD 
BRANCH  26  30
HETATM   30  C   UNL     1     -10.477  14.337  65.063  1.00  0.00    -0.458 A  
HETATM   31  C   UNL     1     -11.288  15.315  64.462  1.00  0.00    -0.307 A  
HETATM   32  C   UNL     1     -11.096  16.670  64.735  1.00  0.00    -0.120 A  
HETATM   33  C   UNL     1     -10.095  17.070  65.619  1.00  0.00    -0.136 A  
HETATM   34  C   UNL     1      -9.296  16.113  66.239  1.00  0.00    -0.351 A  
HETATM   35  C   UNL     1      -9.491  14.756  65.971  1.00  0.00    -0.299 A  
ENDBRANCH  26  30
ENDBRANCH  24  26
ENDBRANCH   7  22
TORSDOF 10
ENDMDL
MODEL       48
REMARK 921   NORMALIZED FREE ENERGY PREDICTED BY IDOCK:   -5.42 KCAL/MOL
REMARK 922        TOTAL FREE ENERGY PREDICTED BY IDOCK:   -9.85 KCAL/MOL
REMARK 923 INTER-LIGAND FREE ENERGY PREDICTED BY IDOCK:   -8.88 KCAL/MOL
REMARK 924 INTRA-LIGAND FREE ENERGY PREDICTED BY IDOCK:   -0.97 KCAL/MOL
REMARK 927      BINDING AFFINITY PREDICTED BY RF-SCORE:    0.00 PKD
ROOT
HETATM    1  C   UNL     1     -10.998  11.283  66.819  1.00  0.00    -0.281 C  
HETATM    2  S   UNL     1      -9.192  10.980  66.550  1.00  0.00    -0.176 SA 
HETATM    3  C   UNL     1      -8.839  10.642  68.335  1.00  0.00    -0.145 C  
HETATM    4  C   UNL     1     -10.200  10.281  68.967  1.00  0.00    -0.210 C  
HETATM    5  C   UNL     1      -7.767   9.560  68.464  1.00  0.00    -0.081 C  
HETATM    6  C   UNL     1      -8.258  11.941  68.933  1.00  0.00     0.089 C  
HETATM    7  C   UNL     1     -11.456  12.753  67.037  1.00  0.00    -0.341 C  
HETATM    8  N   UNL     1     -11.217  11.058  68.259  1.00  0.00    -0.253 N  
HETATM    9  O   UNL     1     -11.357  12.981  69.589  1.00  0.00    -0.208 OA 
HETATM   10  C   UNL     1     -11.421  12.381  68.540  1.00  0.00    -0.306 C  
ENDROOT
BRANCH   4  11
HETATM   11  C   UNL     1     -10.620   8.798  68.899  1.00  0.00    -0.155 C  
HETATM   12  O   UNL     1     -10.571   8.078  67.909  1.00  0.00    -0.209 OA 
BRANCH  11  13
HETATM   13  O   UNL     1     -11.160   8.404  70.089  1.00  0.00    -0.245 OA 
BRANCH  13  14
HETATM   14  C   UNL     1     -11.043   9.395  71.123  1.00  0.00    -0.362 C  
HETATM   15  C   UNL     1     -12.386  10.061  71.381  1.00  0.00    -0.512 C  
BRANCH  14  16
HETATM   16  O   UNL     1     -10.667   8.751  72.348  1.00  0.00    -0.315 OA 
BRANCH  16  17
HETATM   17  C   UNL     1      -9.385   8.315  72.342  1.00  0.00    -0.268 C  
HETATM   18  O   UNL     1      -8.439   8.901  71.835  1.00  0.00    -0.348 OA 
BRANCH  17  19
HETATM   19  O   UNL     1      -9.356   7.071  72.878  1.00  0.00    -0.137 OA 
BRANCH  19  20
HETATM   20  C   UNL     1     -10.430   6.781  73.784  1.00  0.00    -0.354 C  
HETATM   21  C   UNL     1     -10.539   5.275  73.951  1.00  0.00    -0.335 C  
ENDBRANCH  19  20
ENDBRANCH  17  19
ENDBRANCH  16  17
ENDBRANCH  14  16
ENDBRANCH  13  14
ENDBRANCH  11  13
ENDBRANCH   4  11
BRANCH   7  22
HETATM   22  N   UNL     1     -10.534  13.828  66.604  1.00  0.00    -0.270 N  
HETATM   23  H   UNL     1      -9.638  13.573  66.187  1.00  0.00     0.000 HD 
HETATM   24  C   UNL     1     -10.850  15.162  66.748  1.00  0.00    -0.322 C  
HETATM   25  O   UNL     1     -11.865  15.539  67.331  1.00  0.00    -0.080 OA 
BRANCH  24  26
HETATM   26  C   UNL     1      -9.819  16.134  66.131  1.00  0.00    -0.333 C  
HETATM   27  N   UNL     1      -8.474  15.496  66.099  1.00  0.00    -0.365 NA 
HETATM   28  H2  UNL     1      -8.489  14.596  65.618  1.00  0.00     0.000 HD 
HETATM   29  H1  UNL     1      -7.793  16.137  65.692  1.00  0.00     0.000 HD 
BRANCH  26  30
HETATM   30  C   UNL     1      -9.807  17.471  66.850  1.00  0.00    -0.302 A  
HETATM   31  C   UNL     1      -8.936  17.664  67.935  1.00  0.00    -0.250 A  
HETATM   32  C   UNL     1      -8.910  18.878  68.625  1.00  0.00    -0.374 A  
HETATM   33  C   UNL     1      -9.750  19.920  68.237  1.00  0.00    -0.479 A  
HETATM   34  C   UNL     1     -10.605  19.752  67.150  1.00  0.00    -0.577 A  
HETATM   35  C   UNL     1     -10.628  18.541  66.456  1.00  0.00    -0.375 A  
ENDBRANCH  26  30
ENDBRANCH  24  26
ENDBRANCH   7  22
TORSDOF 10
ENDMDL
MODEL       49
REMARK 921   NORMALIZED FREE ENERGY PREDICTED BY IDOCK:   -5.42 KCAL/MOL
REMARK 922        TOTAL FREE ENERGY PREDICTED BY IDOCK:   -9.84 KCAL/MOL
REMARK 923 INTER-LIGAND FREE ENERGY PREDICTED BY IDOCK:   -8.88 KCAL/MOL
REMARK 924 INTRA-LIGAND FREE ENERGY PREDICTED BY IDOCK:   -0.96 KCAL/MOL
REMARK 927      BINDING AFFINITY PREDICTED BY RF-SCORE:    0.00 PKD
ROOT
HETATM    1  C   UNL     1      -9.674  14.838  66.318  1.00  0.00    -0.303 C  
HETATM    2  S   UNL     1      -7.990  15.428  66.810  1.00  0.00    -0.026 SA 
HETATM    3  C   UNL     1      -7.928  14.404  68.351  1.00  0.00    -0.141 C  
HETATM    4  C   UNL     1      -8.973  13.287  68.150  1.00  0.00    -0.195 C  
HETATM    5  C   UNL     1      -6.502  13.909  68.597  1.00  0.00    -0.092 C  
HETATM    6  C   UNL     1      -8.303  15.334  69.525  1.00  0.00    -0.190 C  
HETATM    7  C   UNL     1     -10.894  15.693  66.761  1.00  0.00    -0.277 C  
HETATM    8  N   UNL     1     -10.056  13.856  67.348  1.00  0.00    -0.242 N  
HETATM    9  O   UNL     1     -11.520  14.626  69.006  1.00  0.00    -0.260 OA 
HETATM   10  C   UNL     1     -11.006  14.663  67.912  1.00  0.00    -0.277 C  
ENDROOT
BRANCH   4  11
HETATM   11  C   UNL     1      -8.488  12.010  67.433  1.00  0.00    -0.170 C  
HETATM   12  O   UNL     1      -7.350  11.557  67.453  1.00  0.00    -0.107 OA 
BRANCH  11  13
HETATM   13  O   UNL     1      -9.492  11.484  66.672  1.00  0.00    -0.184 OA 
BRANCH  13  14
HETATM   14  C   UNL     1      -9.456  10.049  66.596  1.00  0.00    -0.171 C  
HETATM   15  C   UNL     1     -10.238   9.431  67.744  1.00  0.00    -0.273 C  
BRANCH  14  16
HETATM   16  O   UNL     1     -10.106   9.629  65.389  1.00  0.00    -0.272 OA 
BRANCH  16  17
HETATM   17  C   UNL     1      -9.838  10.436  64.335  1.00  0.00    -0.328 C  
HETATM   18  O   UNL     1      -8.725  10.665  63.883  1.00  0.00    -0.173 OA 
BRANCH  17  19
HETATM   19  O   UNL     1     -10.990  11.038  63.955  1.00  0.00    -0.313 OA 
BRANCH  19  20
HETATM   20  C   UNL     1     -10.878  12.446  63.699  1.00  0.00    -0.462 C  
HETATM   21  C   UNL     1     -12.128  13.140  64.211  1.00  0.00    -0.477 C  
ENDBRANCH  19  20
ENDBRANCH  17  19
ENDBRANCH  16  17
ENDBRANCH  14  16
ENDBRANCH  13  14
ENDBRANCH  11  13
ENDBRANCH   4  11
BRANCH   7  22
HETATM   22  N   UNL     1     -10.637  17.097  67.157  1.00  0.00    -0.286 N  
HETATM   23  H   UNL     1     -10.539  17.322  68.147  1.00  0.00     0.000 HD 
HETATM   24  C   UNL     1     -10.525  18.107  66.226  1.00  0.00    -0.361 C  
HETATM   25  O   UNL     1     -10.730  17.925  65.027  1.00  0.00    -0.653 OA 
BRANCH  24  26
HETATM   26  C   UNL     1     -10.137  19.482  66.818  1.00  0.00    -0.412 C  
HETATM   27  N   UNL     1     -10.410  20.558  65.825  1.00  0.00    -0.355 NA 
HETATM   28  H2  UNL     1     -11.377  20.540  65.498  1.00  0.00     0.000 HD 
HETATM   29  H1  UNL     1     -10.154  21.465  66.215  1.00  0.00     0.000 HD 
BRANCH  26  30
HETATM   30  C   UNL     1      -8.699  19.498  67.305  1.00  0.00    -0.348 A  
HETATM   31  C   UNL     1      -7.679  19.919  66.436  1.00  0.00    -0.323 A  
HETATM   32  C   UNL     1      -6.346  19.933  66.851  1.00  0.00    -0.204 A  
HETATM   33  C   UNL     1      -6.013  19.533  68.143  1.00  0.00    -0.234 A  
HETATM   34  C   UNL     1      -7.014  19.132  69.025  1.00  0.00    -0.371 A  
HETATM   35  C   UNL     1      -8.348  19.123  68.613  1.00  0.00    -0.403 A  
ENDBRANCH  26  30
ENDBRANCH  24  26
ENDBRANCH   7  22
TORSDOF 10
ENDMDL
MODEL       50
REMARK 921   NORMALIZED FREE ENERGY PREDICTED BY IDOCK:   -5.42 KCAL/MOL
REMARK 922        TOTAL FREE ENERGY PREDICTED BY IDOCK:   -9.84 KCAL/MOL
REMARK 923 INTER-LIGAND FREE ENERGY PREDICTED BY IDOCK:   -8.51 KCAL/MOL
REMARK 924 INTRA-LIGAND FREE ENERGY PREDICTED BY IDOCK:   -1.34 KCAL/MOL
REMARK 927      BINDING AFFINITY PREDICTED BY RF-SCORE:    0.00 PKD
ROOT
HETATM    1  C   UNL     1     -10.738   9.429  67.648  1.00  0.00    -0.230 C  
HETATM    2  S   UNL     1      -9.587  10.431  66.600  1.00  0.00    -0.183 SA 
HETATM    3  C   UNL     1      -8.066   9.884  67.502  1.00  0.00    -0.110 C  
HETATM    4  C   UNL     1      -8.458   8.581  68.227  1.00  0.00    -0.135 C  
HETATM    5  C   UNL     1      -6.897   9.747  66.526  1.00  0.00    -0.084 C  
HETATM    6  C   UNL     1      -7.706  11.007  68.498  1.00  0.00    -0.122 C  
HETATM    7  C   UNL     1     -11.390  10.129  68.874  1.00  0.00    -0.120 C  
HETATM    8  N   UNL     1      -9.870   8.704  68.592  1.00  0.00    -0.165 N  
HETATM    9  O   UNL     1      -9.725   9.603  70.750  1.00  0.00    -0.250 OA 
HETATM   10  C   UNL     1     -10.259   9.442  69.677  1.00  0.00    -0.212 C  
ENDROOT
BRANCH   4  11
HETATM   11  C   UNL     1      -8.301   7.271  67.426  1.00  0.00    -0.119 C  
HETATM   12  O   UNL     1      -8.679   7.078  66.277  1.00  0.00    -0.135 OA 
BRANCH  11  13
HETATM   13  O   UNL     1      -7.759   6.296  68.213  1.00  0.00    -0.100 OA 
BRANCH  13  14
HETATM   14  C   UNL     1      -8.737   5.393  68.753  1.00  0.00    -0.097 C  
HETATM   15  C   UNL     1      -8.217   3.964  68.732  1.00  0.00    -0.083 C  
BRANCH  14  16
HETATM   16  O   UNL     1      -8.967   5.721  70.130  1.00  0.00    -0.137 OA 
BRANCH  16  17
HETATM   17  C   UNL     1     -10.263   5.580  70.497  1.00  0.00    -0.242 C  
HETATM   18  O   UNL     1     -11.229   5.770  69.772  1.00  0.00    -0.355 OA 
BRANCH  17  19
HETATM   19  O   UNL     1     -10.303   5.320  71.826  1.00  0.00    -0.203 OA 
BRANCH  19  20
HETATM   20  C   UNL     1     -11.378   5.957  72.532  1.00  0.00    -0.304 C  
HETATM   21  C   UNL     1     -10.907   7.314  73.025  1.00  0.00    -0.399 C  
ENDBRANCH  19  20
ENDBRANCH  17  19
ENDBRANCH  16  17
ENDBRANCH  14  16
ENDBRANCH  13  14
ENDBRANCH  11  13
ENDBRANCH   4  11
BRANCH   7  22
HETATM   22  N   UNL     1     -11.400  11.610  68.888  1.00  0.00    -0.241 N  
HETATM   23  H   UNL     1     -10.976  12.116  68.110  1.00  0.00     0.000 HD 
HETATM   24  C   UNL     1     -11.966  12.325  69.923  1.00  0.00    -0.306 C  
HETATM   25  O   UNL     1     -12.404  11.783  70.936  1.00  0.00    -0.375 OA 
BRANCH  24  26
HETATM   26  C   UNL     1     -11.988  13.856  69.706  1.00  0.00    -0.338 C  
HETATM   27  N   UNL     1     -10.629  14.335  69.332  1.00  0.00    -0.421 NA 
HETATM   28  H2  UNL     1     -10.258  13.839  68.522  1.00  0.00     0.000 HD 
HETATM   29  H1  UNL     1     -10.643  15.345  69.189  1.00  0.00     0.000 HD 
BRANCH  26  30
HETATM   30  C   UNL     1     -12.546  14.585  70.915  1.00  0.00    -0.414 A  
HETATM   31  C   UNL     1     -11.663  15.190  71.825  1.00  0.00    -0.480 A  
HETATM   32  C   UNL     1     -12.145  15.858  72.952  1.00  0.00    -0.612 A  
HETATM   33  C   UNL     1     -13.516  15.938  73.184  1.00  0.00    -0.650 A  
HETATM   34  C   UNL     1     -14.407  15.363  72.280  1.00  0.00    -0.576 A  
HETATM   35  C   UNL     1     -13.926  14.699  71.150  1.00  0.00    -0.305 A  
ENDBRANCH  26  30
ENDBRANCH  24  26
ENDBRANCH   7  22
TORSDOF 10
ENDMDL
MODEL       51
REMARK 921   NORMALIZED FREE ENERGY PREDICTED BY IDOCK:   -5.42 KCAL/MOL
REMARK 922        TOTAL FREE ENERGY PREDICTED BY IDOCK:   -9.84 KCAL/MOL
REMARK 923 INTER-LIGAND FREE ENERGY PREDICTED BY IDOCK:   -8.91 KCAL/MOL
REMARK 924 INTRA-LIGAND FREE ENERGY PREDICTED BY IDOCK:   -0.93 KCAL/MOL
REMARK 927      BINDING AFFINITY PREDICTED BY RF-SCORE:    0.00 PKD
ROOT
HETATM    1  C   UNL     1     -10.637   8.469  66.769  1.00  0.00    -0.157 C  
HETATM    2  S   UNL     1     -10.882  10.098  67.614  1.00  0.00    -0.260 SA 
HETATM    3  C   UNL     1      -9.072  10.437  67.791  1.00  0.00    -0.131 C  
HETATM    4  C   UNL     1      -8.376   9.537  66.750  1.00  0.00    -0.116 C  
HETATM    5  C   UNL     1      -8.798  11.933  67.628  1.00  0.00    -0.169 C  
HETATM    6  C   UNL     1      -8.681  10.051  69.234  1.00  0.00    -0.182 C  
HETATM    7  C   UNL     1     -10.633   7.192  67.654  1.00  0.00    -0.248 C  
HETATM    8  N   UNL     1      -9.177   8.318  66.637  1.00  0.00    -0.167 N  
HETATM    9  O   UNL     1      -8.145   6.924  68.210  1.00  0.00    -0.116 OA 
HETATM   10  C   UNL     1      -9.092   7.325  67.574  1.00  0.00    -0.124 C  
ENDROOT
BRANCH   4  11
HETATM   11  C   UNL     1      -8.218  10.119  65.330  1.00  0.00    -0.157 C  
HETATM   12  O   UNL     1      -7.233  10.704  64.894  1.00  0.00    -0.029 OA 
BRANCH  11  13
HETATM   13  O   UNL     1      -9.381   9.983  64.629  1.00  0.00    -0.239 OA 
BRANCH  13  14
HETATM   14  C   UNL     1      -9.841  11.214  64.046  1.00  0.00    -0.302 C  
HETATM   15  C   UNL     1      -9.365  11.335  62.607  1.00  0.00    -0.313 C  
BRANCH  14  16
HETATM   16  O   UNL     1     -11.274  11.203  64.000  1.00  0.00    -0.272 OA 
BRANCH  16  17
HETATM   17  C   UNL     1     -11.830  12.262  64.635  1.00  0.00    -0.367 C  
HETATM   18  O   UNL     1     -13.023  12.405  64.863  1.00  0.00    -0.762 OA 
BRANCH  17  19
HETATM   19  O   UNL     1     -10.862  13.182  64.857  1.00  0.00    -0.302 OA 
BRANCH  19  20
HETATM   20  C   UNL     1     -11.338  14.521  65.057  1.00  0.00    -0.377 C  
HETATM   21  C   UNL     1     -10.149  15.434  65.298  1.00  0.00    -0.354 C  
ENDBRANCH  19  20
ENDBRANCH  17  19
ENDBRANCH  16  17
ENDBRANCH  14  16
ENDBRANCH  13  14
ENDBRANCH  11  13
ENDBRANCH   4  11
BRANCH   7  22
HETATM   22  N   UNL     1     -11.233   7.295  69.005  1.00  0.00    -0.455 N  
HETATM   23  H   UNL     1     -11.666   8.174  69.288  1.00  0.00     0.000 HD 
HETATM   24  C   UNL     1     -11.222   6.237  69.889  1.00  0.00    -0.429 C  
HETATM   25  O   UNL     1     -10.631   5.185  69.652  1.00  0.00    -0.261 OA 
BRANCH  24  26
HETATM   26  C   UNL     1     -11.999   6.493  71.202  1.00  0.00    -0.306 C  
HETATM   27  N   UNL     1     -12.895   7.671  71.039  1.00  0.00    -0.550 NA 
HETATM   28  H2  UNL     1     -13.519   7.570  70.238  1.00  0.00     0.000 HD 
HETATM   29  H1  UNL     1     -13.408   7.841  71.905  1.00  0.00     0.000 HD 
BRANCH  26  30
HETATM   30  C   UNL     1     -11.064   6.638  72.388  1.00  0.00    -0.294 A  
HETATM   31  C   UNL     1     -10.252   7.780  72.493  1.00  0.00    -0.320 A  
HETATM   32  C   UNL     1      -9.373   7.937  73.567  1.00  0.00    -0.333 A  
HETATM   33  C   UNL     1      -9.296   6.958  74.555  1.00  0.00    -0.224 A  
HETATM   34  C   UNL     1     -10.110   5.830  74.478  1.00  0.00    -0.301 A  
HETATM   35  C   UNL     1     -10.993   5.675  73.408  1.00  0.00    -0.293 A  
ENDBRANCH  26  30
ENDBRANCH  24  26
ENDBRANCH   7  22
TORSDOF 10
ENDMDL
MODEL       52
REMARK 921   NORMALIZED FREE ENERGY PREDICTED BY IDOCK:   -5.40 KCAL/MOL
REMARK 922        TOTAL FREE ENERGY PREDICTED BY IDOCK:   -9.82 KCAL/MOL
REMARK 923 INTER-LIGAND FREE ENERGY PREDICTED BY IDOCK:   -9.45 KCAL/MOL
REMARK 924 INTRA-LIGAND FREE ENERGY PREDICTED BY IDOCK:   -0.36 KCAL/MOL
REMARK 927      BINDING AFFINITY PREDICTED BY RF-SCORE:    0.00 PKD
ROOT
HETATM    1  C   UNL     1     -10.432  13.786  66.847  1.00  0.00    -0.272 C  
HETATM    2  S   UNL     1     -11.644  14.865  67.738  1.00  0.00    -0.306 SA 
HETATM    3  C   UNL     1     -10.367  16.090  68.281  1.00  0.00    -0.261 C  
HETATM    4  C   UNL     1      -9.167  15.888  67.334  1.00  0.00    -0.201 C  
HETATM    5  C   UNL     1     -10.956  17.501  68.275  1.00  0.00    -0.103 C  
HETATM    6  C   UNL     1     -10.008  15.747  69.743  1.00  0.00    -0.250 C  
HETATM    7  C   UNL     1      -9.825  12.587  67.629  1.00  0.00    -0.202 C  
HETATM    8  N   UNL     1      -9.133  14.467  66.987  1.00  0.00    -0.225 N  
HETATM    9  O   UNL     1      -7.700  13.612  68.631  1.00  0.00    -0.131 OA 
HETATM   10  C   UNL     1      -8.624  13.538  67.854  1.00  0.00    -0.182 C  
ENDROOT
BRANCH   4  11
HETATM   11  C   UNL     1      -9.188  16.685  66.013  1.00  0.00    -0.228 C  
HETATM   12  O   UNL     1     -10.129  16.766  65.233  1.00  0.00    -0.577 OA 
BRANCH  11  13
HETATM   13  O   UNL     1      -7.959  17.226  65.766  1.00  0.00    -0.511 OA 
BRANCH  13  14
HETATM   14  C   UNL     1      -7.250  17.594  66.960  1.00  0.00    -0.183 C  
HETATM   15  C   UNL     1      -5.788  17.188  66.862  1.00  0.00    -0.223 C  
BRANCH  14  16
HETATM   16  O   UNL     1      -7.266  19.022  67.092  1.00  0.00    -0.208 OA 
BRANCH  16  17
HETATM   17  C   UNL     1      -7.486  19.658  65.916  1.00  0.00    -0.316 C  
HETATM   18  O   UNL     1      -8.583  19.954  65.464  1.00  0.00    -0.261 OA 
BRANCH  17  19
HETATM   19  O   UNL     1      -6.299  19.792  65.277  1.00  0.00    -0.228 OA 
BRANCH  19  20
HETATM   20  C   UNL     1      -6.319  20.682  64.151  1.00  0.00    -0.275 C  
HETATM   21  C   UNL     1      -5.750  19.958  62.943  1.00  0.00    -0.299 C  
ENDBRANCH  19  20
ENDBRANCH  17  19
ENDBRANCH  16  17
ENDBRANCH  14  16
ENDBRANCH  13  14
ENDBRANCH  11  13
ENDBRANCH   4  11
BRANCH   7  22
HETATM   22  N   UNL     1     -10.540  12.132  68.844  1.00  0.00    -0.359 N  
HETATM   23  H   UNL     1     -10.350  12.594  69.733  1.00  0.00     0.000 HD 
HETATM   24  C   UNL     1     -11.455  11.101  68.807  1.00  0.00    -0.299 C  
HETATM   25  O   UNL     1     -11.658  10.435  67.793  1.00  0.00    -0.405 OA 
BRANCH  24  26
HETATM   26  C   UNL     1     -12.187  10.847  70.145  1.00  0.00    -0.343 C  
HETATM   27  N   UNL     1     -12.308  12.120  70.907  1.00  0.00    -0.348 NA 
HETATM   28  H2  UNL     1     -12.757  12.853  70.358  1.00  0.00     0.000 HD 
HETATM   29  H1  UNL     1     -12.790  11.953  71.790  1.00  0.00     0.000 HD 
BRANCH  26  30
HETATM   30  C   UNL     1     -11.514   9.752  70.953  1.00  0.00    -0.447 A  
HETATM   31  C   UNL     1     -10.129   9.555  70.832  1.00  0.00    -0.330 A  
HETATM   32  C   UNL     1      -9.483   8.548  71.552  1.00  0.00    -0.290 A  
HETATM   33  C   UNL     1     -10.211   7.727  72.411  1.00  0.00    -0.305 A  
HETATM   34  C   UNL     1     -11.582   7.922  72.560  1.00  0.00    -0.443 A  
HETATM   35  C   UNL     1     -12.228   8.932  71.843  1.00  0.00    -0.445 A  
ENDBRANCH  26  30
ENDBRANCH  24  26
ENDBRANCH   7  22
TORSDOF 10
ENDMDL
MODEL       53
REMARK 921   NORMALIZED FREE ENERGY PREDICTED BY IDOCK:   -5.39 KCAL/MOL
REMARK 922        TOTAL FREE ENERGY PREDICTED BY IDOCK:   -9.80 KCAL/MOL
REMARK 923 INTER-LIGAND FREE ENERGY PREDICTED BY IDOCK:   -8.45 KCAL/MOL
REMARK 924 INTRA-LIGAND FREE ENERGY PREDICTED BY IDOCK:   -1.35 KCAL/MOL
REMARK 927      BINDING AFFINITY PREDICTED BY RF-SCORE:    0.00 PKD
ROOT
HETATM    1  C   UNL     1      -9.560  10.266  66.658  1.00  0.00    -0.175 C  
HETATM    2  S   UNL     1     -10.991   9.602  67.627  1.00  0.00     0.005 SA 
HETATM    3  C   UNL     1     -10.779  10.797  69.025  1.00  0.00    -0.228 C  
HETATM    4  C   UNL     1      -9.950  11.964  68.453  1.00  0.00    -0.203 C  
HETATM    5  C   UNL     1     -12.144  11.197  69.586  1.00  0.00    -0.406 C  
HETATM    6  C   UNL     1     -10.021  10.050  70.144  1.00  0.00    -0.239 C  
HETATM    7  C   UNL     1      -8.180   9.576  66.847  1.00  0.00    -0.113 C  
HETATM    8  N   UNL     1      -9.045  11.394  67.454  1.00  0.00    -0.158 N  
HETATM    9  O   UNL     1      -7.136  10.955  68.739  1.00  0.00    -0.070 OA 
HETATM   10  C   UNL     1      -7.900  10.743  67.825  1.00  0.00    -0.109 C  
ENDROOT
BRANCH   4  11
HETATM   11  C   UNL     1     -10.738  13.100  67.767  1.00  0.00    -0.240 C  
HETATM   12  O   UNL     1     -11.774  13.609  68.176  1.00  0.00    -0.317 OA 
BRANCH  11  13
HETATM   13  O   UNL     1     -10.172  13.411  66.565  1.00  0.00    -0.270 OA 
BRANCH  13  14
HETATM   14  C   UNL     1     -10.582  14.692  66.058  1.00  0.00    -0.309 C  
HETATM   15  C   UNL     1      -9.455  15.705  66.186  1.00  0.00    -0.376 C  
BRANCH  14  16
HETATM   16  O   UNL     1     -10.862  14.572  64.657  1.00  0.00    -0.391 OA 
BRANCH  16  17
HETATM   17  C   UNL     1     -12.081  14.036  64.407  1.00  0.00    -0.458 C  
HETATM   18  O   UNL     1     -13.077  14.188  65.100  1.00  0.00    -0.757 OA 
BRANCH  17  19
HETATM   19  O   UNL     1     -11.972  13.210  63.339  1.00  0.00    -0.538 OA 
BRANCH  19  20
HETATM   20  C   UNL     1     -11.668  11.845  63.662  1.00  0.00    -0.474 C  
HETATM   21  C   UNL     1     -10.242  11.545  63.235  1.00  0.00    -0.432 C  
ENDBRANCH  19  20
ENDBRANCH  17  19
ENDBRANCH  16  17
ENDBRANCH  14  16
ENDBRANCH  13  14
ENDBRANCH  11  13
ENDBRANCH   4  11
BRANCH   7  22
HETATM   22  N   UNL     1      -8.172   8.214  67.429  1.00  0.00    -0.121 N  
HETATM   23  H   UNL     1      -8.017   8.105  68.431  1.00  0.00     0.000 HD 
HETATM   24  C   UNL     1      -8.368   7.090  66.655  1.00  0.00    -0.118 C  
HETATM   25  O   UNL     1      -8.460   7.141  65.430  1.00  0.00    -0.137 OA 
BRANCH  24  26
HETATM   26  C   UNL     1      -8.445   5.768  67.454  1.00  0.00    -0.103 C  
HETATM   27  N   UNL     1      -8.925   4.669  66.572  1.00  0.00    -0.111 NA 
HETATM   28  H2  UNL     1      -8.354   4.575  65.732  1.00  0.00     0.000 HD 
HETATM   29  H1  UNL     1      -8.977   3.797  67.099  1.00  0.00     0.000 HD 
BRANCH  26  30
HETATM   30  C   UNL     1      -9.294   5.918  68.704  1.00  0.00    -0.126 A  
HETATM   31  C   UNL     1     -10.685   6.072  68.582  1.00  0.00    -0.363 A  
HETATM   32  C   UNL     1     -11.490   6.224  69.712  1.00  0.00    -0.449 A  
HETATM   33  C   UNL     1     -10.919   6.217  70.983  1.00  0.00    -0.340 A  
HETATM   34  C   UNL     1      -9.544   6.044  71.124  1.00  0.00    -0.195 A  
HETATM   35  C   UNL     1      -8.738   5.886  69.994  1.00  0.00    -0.133 A  
ENDBRANCH  26  30
ENDBRANCH  24  26
ENDBRANCH   7  22
TORSDOF 10
ENDMDL
MODEL       54
REMARK 921   NORMALIZED FREE ENERGY PREDICTED BY IDOCK:   -5.39 KCAL/MOL
REMARK 922        TOTAL FREE ENERGY PREDICTED BY IDOCK:   -9.80 KCAL/MOL
REMARK 923 INTER-LIGAND FREE ENERGY PREDICTED BY IDOCK:   -8.34 KCAL/MOL
REMARK 924 INTRA-LIGAND FREE ENERGY PREDICTED BY IDOCK:   -1.46 KCAL/MOL
REMARK 927      BINDING AFFINITY PREDICTED BY RF-SCORE:    0.00 PKD
ROOT
HETATM    1  C   UNL     1      -9.115   9.568  70.502  1.00  0.00    -0.219 C  
HETATM    2  S   UNL     1      -8.478   8.405  69.211  1.00  0.00    -0.126 SA 
HETATM    3  C   UNL     1     -10.078   8.337  68.283  1.00  0.00    -0.198 C  
HETATM    4  C   UNL     1     -10.862   9.594  68.713  1.00  0.00    -0.168 C  
HETATM    5  C   UNL     1      -9.810   8.233  66.781  1.00  0.00    -0.333 C  
HETATM    6  C   UNL     1     -10.794   7.040  68.714  1.00  0.00    -0.198 C  
HETATM    7  C   UNL     1      -9.682   8.951  71.812  1.00  0.00    -0.295 C  
HETATM    8  N   UNL     1     -10.503   9.864  70.105  1.00  0.00    -0.269 N  
HETATM    9  O   UNL     1     -12.172   8.695  71.260  1.00  0.00    -0.294 OA 
HETATM   10  C   UNL     1     -11.058   9.149  71.131  1.00  0.00    -0.323 C  
ENDROOT
BRANCH   4  11
HETATM   11  C   UNL     1     -10.594  10.883  67.908  1.00  0.00    -0.207 C  
HETATM   12  O   UNL     1      -9.614  11.611  68.014  1.00  0.00    -0.172 OA 
BRANCH  11  13
HETATM   13  O   UNL     1     -11.662  11.173  67.109  1.00  0.00    -0.501 OA 
BRANCH  13  14
HETATM   14  C   UNL     1     -11.330  12.029  66.004  1.00  0.00    -0.343 C  
HETATM   15  C   UNL     1     -10.702  11.228  64.874  1.00  0.00    -0.337 C  
BRANCH  14  16
HETATM   16  O   UNL     1     -12.535  12.600  65.475  1.00  0.00    -0.622 OA 
BRANCH  16  17
HETATM   17  C   UNL     1     -12.329  13.789  64.860  1.00  0.00    -0.405 C  
HETATM   18  O   UNL     1     -12.587  14.036  63.690  1.00  0.00    -0.818 OA 
BRANCH  17  19
HETATM   19  O   UNL     1     -11.680  14.608  65.722  1.00  0.00    -0.352 OA 
BRANCH  19  20
HETATM   20  C   UNL     1     -10.729  15.493  65.111  1.00  0.00    -0.440 C  
HETATM   21  C   UNL     1      -9.474  15.532  65.966  1.00  0.00    -0.387 C  
ENDBRANCH  19  20
ENDBRANCH  17  19
ENDBRANCH  16  17
ENDBRANCH  14  16
ENDBRANCH  13  14
ENDBRANCH  11  13
ENDBRANCH   4  11
BRANCH   7  22
HETATM   22  N   UNL     1      -9.300   7.555  72.130  1.00  0.00    -0.138 N  
HETATM   23  H   UNL     1      -9.914   6.795  71.836  1.00  0.00     0.000 HD 
HETATM   24  C   UNL     1      -8.139   7.255  72.810  1.00  0.00    -0.106 C  
HETATM   25  O   UNL     1      -7.406   8.123  73.279  1.00  0.00    -0.121 OA 
BRANCH  24  26
HETATM   26  C   UNL     1      -7.849   5.742  72.944  1.00  0.00    -0.104 C  
HETATM   27  N   UNL     1      -6.454   5.532  73.419  1.00  0.00    -0.065 NA 
HETATM   28  H2  UNL     1      -6.265   6.036  74.286  1.00  0.00     0.000 HD 
HETATM   29  H1  UNL     1      -6.262   4.534  73.507  1.00  0.00     0.000 HD 
BRANCH  26  30
HETATM   30  C   UNL     1      -8.137   4.999  71.651  1.00  0.00    -0.114 A  
HETATM   31  C   UNL     1      -9.178   4.056  71.613  1.00  0.00    -0.186 A  
HETATM   32  C   UNL     1      -9.459   3.349  70.442  1.00  0.00    -0.245 A  
HETATM   33  C   UNL     1      -8.710   3.577  69.290  1.00  0.00    -0.133 A  
HETATM   34  C   UNL     1      -7.689   4.524  69.305  1.00  0.00    -0.055 A  
HETATM   35  C   UNL     1      -7.409   5.236  70.473  1.00  0.00    -0.070 A  
ENDBRANCH  26  30
ENDBRANCH  24  26
ENDBRANCH   7  22
TORSDOF 10
ENDMDL
MODEL       55
REMARK 921   NORMALIZED FREE ENERGY PREDICTED BY IDOCK:   -5.38 KCAL/MOL
REMARK 922        TOTAL FREE ENERGY PREDICTED BY IDOCK:   -9.79 KCAL/MOL
REMARK 923 INTER-LIGAND FREE ENERGY PREDICTED BY IDOCK:   -8.99 KCAL/MOL
REMARK 924 INTRA-LIGAND FREE ENERGY PREDICTED BY IDOCK:   -0.80 KCAL/MOL
REMARK 927      BINDING AFFINITY PREDICTED BY RF-SCORE:    0.00 PKD
ROOT
HETATM    1  C   UNL     1      -9.904  10.189  65.674  1.00  0.00    -0.280 C  
HETATM    2  S   UNL     1     -11.160  10.234  67.033  1.00  0.00     0.121 SA 
HETATM    3  C   UNL     1     -10.000  10.979  68.269  1.00  0.00    -0.179 C  
HETATM    4  C   UNL     1      -8.867  11.620  67.442  1.00  0.00    -0.160 C  
HETATM    5  C   UNL     1     -10.754  11.947  69.181  1.00  0.00    -0.143 C  
HETATM    6  C   UNL     1      -9.481   9.823  69.152  1.00  0.00    -0.191 C  
HETATM    7  C   UNL     1      -9.093   8.876  65.486  1.00  0.00    -0.190 C  
HETATM    8  N   UNL     1      -8.690  10.794  66.248  1.00  0.00    -0.163 N  
HETATM    9  O   UNL     1      -7.032   9.295  66.951  1.00  0.00    -0.080 OA 
HETATM   10  C   UNL     1      -8.002   9.612  66.301  1.00  0.00    -0.108 C  
ENDROOT
BRANCH   4  11
HETATM   11  C   UNL     1      -9.095  13.072  66.969  1.00  0.00    -0.230 C  
HETATM   12  O   UNL     1      -8.281  13.986  67.026  1.00  0.00    -0.158 OA 
BRANCH  11  13
HETATM   13  O   UNL     1     -10.385  13.239  66.557  1.00  0.00    -0.275 OA 
BRANCH  13  14
HETATM   14  C   UNL     1     -10.504  14.058  65.382  1.00  0.00    -0.351 C  
HETATM   15  C   UNL     1     -11.295  13.334  64.302  1.00  0.00    -0.428 C  
BRANCH  14  16
HETATM   16  O   UNL     1     -11.250  15.239  65.708  1.00  0.00    -0.325 OA 
BRANCH  16  17
HETATM   17  C   UNL     1     -10.836  16.331  65.022  1.00  0.00    -0.320 C  
HETATM   18  O   UNL     1     -11.408  16.822  64.060  1.00  0.00    -1.153 OA 
BRANCH  17  19
HETATM   19  O   UNL     1      -9.625  16.701  65.503  1.00  0.00    -0.502 OA 
BRANCH  19  20
HETATM   20  C   UNL     1      -9.633  17.166  66.861  1.00  0.00    -0.262 C  
HETATM   21  C   UNL     1      -8.206  17.467  67.286  1.00  0.00    -0.222 C  
ENDBRANCH  19  20
ENDBRANCH  17  19
ENDBRANCH  16  17
ENDBRANCH  14  16
ENDBRANCH  13  14
ENDBRANCH  11  13
ENDBRANCH   4  11
BRANCH   7  22
HETATM   22  N   UNL     1      -9.644   7.640  66.090  1.00  0.00    -0.422 N  
HETATM   23  H   UNL     1     -10.407   7.717  66.764  1.00  0.00     0.000 HD 
HETATM   24  C   UNL     1      -9.157   6.392  65.768  1.00  0.00     0.003 C  
HETATM   25  O   UNL     1      -8.177   6.234  65.043  1.00  0.00    -0.139 OA 
BRANCH  24  26
HETATM   26  C   UNL     1      -9.935   5.217  66.406  1.00  0.00    -0.203 C  
HETATM   27  N   UNL     1     -11.238   5.035  65.711  1.00  0.00    -0.867 NA 
HETATM   28  H2  UNL     1     -11.122   4.915  64.704  1.00  0.00     0.000 HD 
HETATM   29  H1  UNL     1     -11.752   4.260  66.131  1.00  0.00     0.000 HD 
BRANCH  26  30
HETATM   30  C   UNL     1     -10.099   5.401  67.904  1.00  0.00    -0.215 A  
HETATM   31  C   UNL     1      -9.165   4.822  68.779  1.00  0.00    -0.170 A  
HETATM   32  C   UNL     1      -9.296   4.963  70.161  1.00  0.00    -0.217 A  
HETATM   33  C   UNL     1     -10.359   5.692  70.691  1.00  0.00    -0.320 A  
HETATM   34  C   UNL     1     -11.282   6.291  69.838  1.00  0.00    -0.498 A  
HETATM   35  C   UNL     1     -11.150   6.155  68.455  1.00  0.00    -0.343 A  
ENDBRANCH  26  30
ENDBRANCH  24  26
ENDBRANCH   7  22
TORSDOF 10
ENDMDL
MODEL       56
REMARK 921   NORMALIZED FREE ENERGY PREDICTED BY IDOCK:   -5.38 KCAL/MOL
REMARK 922        TOTAL FREE ENERGY PREDICTED BY IDOCK:   -9.79 KCAL/MOL
REMARK 923 INTER-LIGAND FREE ENERGY PREDICTED BY IDOCK:   -8.47 KCAL/MOL
REMARK 924 INTRA-LIGAND FREE ENERGY PREDICTED BY IDOCK:   -1.32 KCAL/MOL
REMARK 927      BINDING AFFINITY PREDICTED BY RF-SCORE:    0.00 PKD
ROOT
HETATM    1  C   UNL     1      -9.307  11.977  66.077  1.00  0.00    -0.190 C  
HETATM    2  S   UNL     1      -8.881  12.039  67.877  1.00  0.00    -0.182 SA 
HETATM    3  C   UNL     1     -10.378  11.089  68.407  1.00  0.00    -0.183 C  
HETATM    4  C   UNL     1     -10.862  10.339  67.149  1.00  0.00    -0.212 C  
HETATM    5  C   UNL     1     -10.038  10.190  69.596  1.00  0.00    -0.265 C  
HETATM    6  C   UNL     1     -11.418  12.122  68.893  1.00  0.00    -0.350 C  
HETATM    7  C   UNL     1     -10.098  13.176  65.482  1.00  0.00    -0.261 C  
HETATM    8  N   UNL     1     -10.549  11.189  66.000  1.00  0.00    -0.256 N  
HETATM    9  O   UNL     1     -12.530  12.416  65.763  1.00  0.00    -0.615 OA 
HETATM   10  C   UNL     1     -11.332  12.264  65.679  1.00  0.00    -0.350 C  
ENDROOT
BRANCH   4  11
HETATM   11  C   UNL     1     -10.233   8.955  66.885  1.00  0.00    -0.276 C  
HETATM   12  O   UNL     1      -9.127   8.745  66.402  1.00  0.00    -0.154 OA 
BRANCH  11  13
HETATM   13  O   UNL     1     -11.126   7.965  67.177  1.00  0.00    -0.094 OA 
BRANCH  13  14
HETATM   14  C   UNL     1     -10.506   6.771  67.682  1.00  0.00    -0.229 C  
HETATM   15  C   UNL     1     -10.993   6.467  69.090  1.00  0.00    -0.380 C  
BRANCH  14  16
HETATM   16  O   UNL     1     -10.902   5.659  66.867  1.00  0.00    -0.286 OA 
BRANCH  16  17
HETATM   17  C   UNL     1      -9.854   5.044  66.267  1.00  0.00    -0.200 C  
HETATM   18  O   UNL     1      -8.686   5.395  66.349  1.00  0.00    -0.117 OA 
BRANCH  17  19
HETATM   19  O   UNL     1     -10.337   4.062  65.470  1.00  0.00    -0.156 OA 
BRANCH  19  20
HETATM   20  C   UNL     1      -9.548   3.793  64.301  1.00  0.00    -0.166 C  
HETATM   21  C   UNL     1     -10.470   3.689  63.099  1.00  0.00    -0.225 C  
ENDBRANCH  19  20
ENDBRANCH  17  19
ENDBRANCH  16  17
ENDBRANCH  14  16
ENDBRANCH  13  14
ENDBRANCH  11  13
ENDBRANCH   4  11
BRANCH   7  22
HETATM   22  N   UNL     1     -10.090  14.445  66.247  1.00  0.00    -0.286 N  
HETATM   23  H   UNL     1      -9.906  14.418  67.250  1.00  0.00     0.000 HD 
HETATM   24  C   UNL     1     -10.324  15.662  65.641  1.00  0.00    -0.385 C  
HETATM   25  O   UNL     1     -10.650  15.758  64.460  1.00  0.00    -0.406 OA 
BRANCH  24  26
HETATM   26  C   UNL     1     -10.157  16.884  66.575  1.00  0.00    -0.315 C  
HETATM   27  N   UNL     1     -10.615  18.119  65.881  1.00  0.00    -0.494 NA 
HETATM   28  H2  UNL     1     -11.570  18.030  65.533  1.00  0.00     0.000 HD 
HETATM   29  H1  UNL     1     -10.505  18.925  66.496  1.00  0.00     0.000 HD 
BRANCH  26  30
HETATM   30  C   UNL     1      -8.735  17.005  67.091  1.00  0.00    -0.226 A  
HETATM   31  C   UNL     1      -8.497  16.986  68.475  1.00  0.00    -0.257 A  
HETATM   32  C   UNL     1      -7.202  17.107  68.981  1.00  0.00    -0.229 A  
HETATM   33  C   UNL     1      -6.122  17.242  68.111  1.00  0.00    -0.139 A  
HETATM   34  C   UNL     1      -6.337  17.242  66.735  1.00  0.00    -0.238 A  
HETATM   35  C   UNL     1      -7.632  17.115  66.227  1.00  0.00    -0.352 A  
ENDBRANCH  26  30
ENDBRANCH  24  26
ENDBRANCH   7  22
TORSDOF 10
ENDMDL
MODEL       57
REMARK 921   NORMALIZED FREE ENERGY PREDICTED BY IDOCK:   -5.38 KCAL/MOL
REMARK 922        TOTAL FREE ENERGY PREDICTED BY IDOCK:   -9.79 KCAL/MOL
REMARK 923 INTER-LIGAND FREE ENERGY PREDICTED BY IDOCK:   -8.43 KCAL/MOL
REMARK 924 INTRA-LIGAND FREE ENERGY PREDICTED BY IDOCK:   -1.36 KCAL/MOL
REMARK 927      BINDING AFFINITY PREDICTED BY RF-SCORE:    0.00 PKD
ROOT
HETATM    1  C   UNL     1     -10.381  10.674  67.591  1.00  0.00    -0.209 C  
HETATM    2  S   UNL     1      -8.824  10.566  68.587  1.00  0.00    -0.154 SA 
HETATM    3  C   UNL     1      -7.974  11.927  67.666  1.00  0.00    -0.146 C  
HETATM    4  C   UNL     1      -9.099  12.732  66.983  1.00  0.00    -0.220 C  
HETATM    5  C   UNL     1      -7.094  12.738  68.618  1.00  0.00    -0.100 C  
HETATM    6  C   UNL     1      -7.042  11.258  66.633  1.00  0.00    -0.127 C  
HETATM    7  C   UNL     1     -10.517   9.730  66.364  1.00  0.00    -0.120 C  
HETATM    8  N   UNL     1     -10.160  11.783  66.647  1.00  0.00    -0.201 N  
HETATM    9  O   UNL     1      -9.573  11.169  64.464  1.00  0.00    -0.235 OA 
HETATM   10  C   UNL     1     -10.060  10.967  65.553  1.00  0.00    -0.267 C  
ENDROOT
BRANCH   4  11
HETATM   11  C   UNL     1      -9.739  13.865  67.813  1.00  0.00    -0.225 C  
HETATM   12  O   UNL     1     -10.538  13.725  68.731  1.00  0.00    -0.248 OA 
BRANCH  11  13
HETATM   13  O   UNL     1      -9.367  15.082  67.321  1.00  0.00    -0.194 OA 
BRANCH  13  14
HETATM   14  C   UNL     1     -10.476  15.874  66.865  1.00  0.00    -0.309 C  
HETATM   15  C   UNL     1     -10.668  17.092  67.755  1.00  0.00    -0.329 C  
BRANCH  14  16
HETATM   16  O   UNL     1     -10.187  16.372  65.551  1.00  0.00    -0.496 OA 
BRANCH  16  17
HETATM   17  C   UNL     1     -10.998  15.853  64.599  1.00  0.00    -0.305 C  
HETATM   18  O   UNL     1     -11.785  16.490  63.914  1.00  0.00    -1.148 OA 
BRANCH  17  19
HETATM   19  O   UNL     1     -10.880  14.504  64.628  1.00  0.00    -0.391 OA 
BRANCH  19  20
HETATM   20  C   UNL     1     -11.925  13.793  63.948  1.00  0.00    -0.371 C  
HETATM   21  C   UNL     1     -12.774  13.065  64.976  1.00  0.00    -0.475 C  
ENDBRANCH  19  20
ENDBRANCH  17  19
ENDBRANCH  16  17
ENDBRANCH  14  16
ENDBRANCH  13  14
ENDBRANCH  11  13
ENDBRANCH   4  11
BRANCH   7  22
HETATM   22  N   UNL     1      -9.630   8.545  66.312  1.00  0.00    -0.290 N  
HETATM   23  H   UNL     1      -8.686   8.649  65.940  1.00  0.00     0.000 HD 
HETATM   24  C   UNL     1     -10.044   7.305  66.751  1.00  0.00    -0.221 C  
HETATM   25  O   UNL     1     -11.197   7.086  67.117  1.00  0.00    -0.315 OA 
BRANCH  24  26
HETATM   26  C   UNL     1      -8.943   6.219  66.730  1.00  0.00    -0.125 C  
HETATM   27  N   UNL     1      -8.921   5.544  65.403  1.00  0.00    -0.269 NA 
HETATM   28  H2  UNL     1      -8.817   6.210  64.637  1.00  0.00     0.000 HD 
HETATM   29  H1  UNL     1      -8.196   4.827  65.389  1.00  0.00     0.000 HD 
BRANCH  26  30
HETATM   30  C   UNL     1      -9.103   5.236  67.876  1.00  0.00    -0.117 A  
HETATM   31  C   UNL     1      -9.483   3.911  67.602  1.00  0.00    -0.233 A  
HETATM   32  C   UNL     1      -9.650   2.987  68.636  1.00  0.00    -0.094 A  
HETATM   33  C   UNL     1      -9.433   3.371  69.957  1.00  0.00    -0.243 A  
HETATM   34  C   UNL     1      -9.035   4.674  70.245  1.00  0.00    -0.144 A  
HETATM   35  C   UNL     1      -8.863   5.598  69.212  1.00  0.00    -0.112 A  
ENDBRANCH  26  30
ENDBRANCH  24  26
ENDBRANCH   7  22
TORSDOF 10
ENDMDL
MODEL       58
REMARK 921   NORMALIZED FREE ENERGY PREDICTED BY IDOCK:   -5.38 KCAL/MOL
REMARK 922        TOTAL FREE ENERGY PREDICTED BY IDOCK:   -9.79 KCAL/MOL
REMARK 923 INTER-LIGAND FREE ENERGY PREDICTED BY IDOCK:   -8.60 KCAL/MOL
REMARK 924 INTRA-LIGAND FREE ENERGY PREDICTED BY IDOCK:   -1.19 KCAL/MOL
REMARK 927      BINDING AFFINITY PREDICTED BY RF-SCORE:    0.00 PKD
ROOT
HETATM    1  C   UNL     1     -10.236   9.096  69.028  1.00  0.00    -0.207 C  
HETATM    2  S   UNL     1     -10.171   8.906  67.188  1.00  0.00    -0.281 SA 
HETATM    3  C   UNL     1      -8.408   8.342  67.168  1.00  0.00    -0.123 C  
HETATM    4  C   UNL     1      -8.115   7.843  68.598  1.00  0.00    -0.126 C  
HETATM    5  C   UNL     1      -8.202   7.297  66.071  1.00  0.00    -0.138 C  
HETATM    6  C   UNL     1      -7.546   9.570  66.803  1.00  0.00    -0.098 C  
HETATM    7  C   UNL     1      -9.932  10.501  69.618  1.00  0.00    -0.112 C  
HETATM    8  N   UNL     1      -8.911   8.666  69.508  1.00  0.00    -0.142 N  
HETATM    9  O   UNL     1      -7.405  10.382  70.033  1.00  0.00    -0.160 OA 
HETATM   10  C   UNL     1      -8.512   9.930  69.851  1.00  0.00    -0.191 C  
ENDROOT
BRANCH   4  11
HETATM   11  C   UNL     1      -8.452   6.367  68.896  1.00  0.00    -0.121 C  
HETATM   12  O   UNL     1      -8.723   5.506  68.068  1.00  0.00    -0.108 OA 
BRANCH  11  13
HETATM   13  O   UNL     1      -8.507   6.156  70.244  1.00  0.00    -0.122 OA 
BRANCH  13  14
HETATM   14  C   UNL     1      -9.647   5.384  70.653  1.00  0.00    -0.172 C  
HETATM   15  C   UNL     1      -9.213   4.181  71.476  1.00  0.00    -0.194 C  
BRANCH  14  16
HETATM   16  O   UNL     1     -10.473   6.185  71.508  1.00  0.00    -0.210 OA 
BRANCH  16  17
HETATM   17  C   UNL     1     -11.645   6.539  70.930  1.00  0.00    -0.359 C  
HETATM   18  O   UNL     1     -11.905   6.444  69.739  1.00  0.00    -0.357 OA 
BRANCH  17  19
HETATM   19  O   UNL     1     -12.423   7.129  71.870  1.00  0.00    -0.321 OA 
BRANCH  19  20
HETATM   20  C   UNL     1     -12.013   8.452  72.247  1.00  0.00    -0.389 C  
HETATM   21  C   UNL     1     -13.129   9.426  71.912  1.00  0.00    -0.505 C  
ENDBRANCH  19  20
ENDBRANCH  17  19
ENDBRANCH  16  17
ENDBRANCH  14  16
ENDBRANCH  13  14
ENDBRANCH  11  13
ENDBRANCH   4  11
BRANCH   7  22
HETATM   22  N   UNL     1     -10.031  11.662  68.703  1.00  0.00    -0.280 N  
HETATM   23  H   UNL     1      -9.188  11.997  68.235  1.00  0.00     0.000 HD 
HETATM   24  C   UNL     1     -11.229  12.302  68.465  1.00  0.00    -0.271 C  
HETATM   25  O   UNL     1     -12.261  12.016  69.070  1.00  0.00    -0.216 OA 
BRANCH  24  26
HETATM   26  C   UNL     1     -11.159  13.413  67.392  1.00  0.00    -0.278 C  
HETATM   27  N   UNL     1     -12.223  14.425  67.638  1.00  0.00    -0.623 NA 
HETATM   28  H2  UNL     1     -12.180  14.803  68.585  1.00  0.00     0.000 HD 
HETATM   29  H1  UNL     1     -12.177  15.158  66.930  1.00  0.00     0.000 HD 
BRANCH  26  30
HETATM   30  C   UNL     1     -11.219  12.841  65.988  1.00  0.00    -0.335 A  
HETATM   31  C   UNL     1     -10.039  12.385  65.375  1.00  0.00    -0.289 A  
HETATM   32  C   UNL     1     -10.060  11.865  64.080  1.00  0.00    -0.361 A  
HETATM   33  C   UNL     1     -11.262  11.785  63.379  1.00  0.00    -0.440 A  
HETATM   34  C   UNL     1     -12.444  12.211  63.979  1.00  0.00    -0.541 A  
HETATM   35  C   UNL     1     -12.425  12.728  65.276  1.00  0.00    -0.528 A  
ENDBRANCH  26  30
ENDBRANCH  24  26
ENDBRANCH   7  22
TORSDOF 10
ENDMDL
MODEL       59
REMARK 921   NORMALIZED FREE ENERGY PREDICTED BY IDOCK:   -5.37 KCAL/MOL
REMARK 922        TOTAL FREE ENERGY PREDICTED BY IDOCK:   -9.77 KCAL/MOL
REMARK 923 INTER-LIGAND FREE ENERGY PREDICTED BY IDOCK:   -8.59 KCAL/MOL
REMARK 924 INTRA-LIGAND FREE ENERGY PREDICTED BY IDOCK:   -1.18 KCAL/MOL
REMARK 927      BINDING AFFINITY PREDICTED BY RF-SCORE:    0.00 PKD
ROOT
HETATM    1  C   UNL     1      -8.947  11.225  67.189  1.00  0.00    -0.155 C  
HETATM    2  S   UNL     1      -8.237  10.771  68.837  1.00  0.00    -0.138 SA 
HETATM    3  C   UNL     1      -9.547   9.519  69.213  1.00  0.00    -0.175 C  
HETATM    4  C   UNL     1     -10.170   9.148  67.852  1.00  0.00    -0.216 C  
HETATM    5  C   UNL     1      -8.945   8.343  69.983  1.00  0.00    -0.138 C  
HETATM    6  C   UNL     1     -10.570  10.204  70.144  1.00  0.00    -0.337 C  
HETATM    7  C   UNL     1      -9.918  12.439  67.133  1.00  0.00    -0.207 C  
HETATM    8  N   UNL     1     -10.119  10.349  67.018  1.00  0.00    -0.206 N  
HETATM    9  O   UNL     1     -12.202  11.323  67.461  1.00  0.00    -0.330 OA 
HETATM   10  C   UNL     1     -11.027  11.360  67.176  1.00  0.00    -0.285 C  
ENDROOT
BRANCH   4  11
HETATM   11  C   UNL     1      -9.486   8.010  67.067  1.00  0.00    -0.174 C  
HETATM   12  O   UNL     1      -8.325   7.998  66.676  1.00  0.00    -0.114 OA 
BRANCH  11  13
HETATM   13  O   UNL     1     -10.388   7.030  66.768  1.00  0.00    -0.245 OA 
BRANCH  13  14
HETATM   14  C   UNL     1     -10.076   5.765  67.373  1.00  0.00    -0.175 C  
HETATM   15  C   UNL     1     -10.764   5.632  68.723  1.00  0.00    -0.267 C  
BRANCH  14  16
HETATM   16  O   UNL     1     -10.593   4.712  66.549  1.00  0.00    -0.221 OA 
BRANCH  16  17
HETATM   17  C   UNL     1      -9.716   4.306  65.600  1.00  0.00    -0.205 C  
HETATM   18  O   UNL     1      -8.529   4.077  65.783  1.00  0.00    -0.108 OA 
BRANCH  17  19
HETATM   19  O   UNL     1     -10.348   4.320  64.402  1.00  0.00    -0.140 OA 
BRANCH  19  20
HETATM   20  C   UNL     1      -9.919   3.306  63.482  1.00  0.00    -0.155 C  
HETATM   21  C   UNL     1     -11.034   2.288  63.317  1.00  0.00    -0.223 C  
ENDBRANCH  19  20
ENDBRANCH  17  19
ENDBRANCH  16  17
ENDBRANCH  14  16
ENDBRANCH  13  14
ENDBRANCH  11  13
ENDBRANCH   4  11
BRANCH   7  22
HETATM   22  N   UNL     1      -9.885  13.392  68.267  1.00  0.00    -0.233 N  
HETATM   23  H   UNL     1      -9.193  13.260  69.005  1.00  0.00     0.000 HD 
HETATM   24  C   UNL     1     -10.761  14.453  68.352  1.00  0.00    -0.245 C  
HETATM   25  O   UNL     1     -11.682  14.614  67.552  1.00  0.00    -0.365 OA 
BRANCH  24  26
HETATM   26  C   UNL     1     -10.497  15.407  69.540  1.00  0.00    -0.261 C  
HETATM   27  N   UNL     1      -9.074  15.305  69.966  1.00  0.00    -0.339 NA 
HETATM   28  H2  UNL     1      -8.430  15.470  69.192  1.00  0.00     0.000 HD 
HETATM   29  H1  UNL     1      -8.900  15.934  70.750  1.00  0.00     0.000 HD 
BRANCH  26  30
HETATM   30  C   UNL     1     -11.463  15.158  70.684  1.00  0.00    -0.345 A  
HETATM   31  C   UNL     1     -11.690  16.172  71.630  1.00  0.00    -0.558 A  
HETATM   32  C   UNL     1     -12.563  15.969  72.701  1.00  0.00    -0.551 A  
HETATM   33  C   UNL     1     -13.228  14.752  72.839  1.00  0.00    -0.597 A  
HETATM   34  C   UNL     1     -13.031  13.744  71.899  1.00  0.00    -0.439 A  
HETATM   35  C   UNL     1     -12.162  13.947  70.824  1.00  0.00    -0.441 A  
ENDBRANCH  26  30
ENDBRANCH  24  26
ENDBRANCH   7  22
TORSDOF 10
ENDMDL
MODEL       60
REMARK 921   NORMALIZED FREE ENERGY PREDICTED BY IDOCK:   -5.37 KCAL/MOL
REMARK 922        TOTAL FREE ENERGY PREDICTED BY IDOCK:   -9.77 KCAL/MOL
REMARK 923 INTER-LIGAND FREE ENERGY PREDICTED BY IDOCK:   -8.80 KCAL/MOL
REMARK 924 INTRA-LIGAND FREE ENERGY PREDICTED BY IDOCK:   -0.96 KCAL/MOL
REMARK 927      BINDING AFFINITY PREDICTED BY RF-SCORE:    0.00 PKD
ROOT
HETATM    1  C   UNL     1     -10.534  11.991  67.779  1.00  0.00    -0.203 C  
HETATM    2  S   UNL     1     -11.906  12.473  66.634  1.00  0.00    -0.280 SA 
HETATM    3  C   UNL     1     -10.819  12.550  65.138  1.00  0.00    -0.288 C  
HETATM    4  C   UNL     1      -9.570  11.716  65.488  1.00  0.00    -0.218 C  
HETATM    5  C   UNL     1     -11.585  12.069  63.905  1.00  0.00    -0.536 C  
HETATM    6  C   UNL     1     -10.469  14.037  64.912  1.00  0.00    -0.453 C  
HETATM    7  C   UNL     1      -9.804  13.128  68.548  1.00  0.00    -0.153 C  
HETATM    8  N   UNL     1      -9.339  11.876  66.924  1.00  0.00    -0.191 N  
HETATM    9  O   UNL     1      -7.867  13.696  66.968  1.00  0.00    -0.067 OA 
HETATM   10  C   UNL     1      -8.746  13.002  67.425  1.00  0.00    -0.205 C  
ENDROOT
BRANCH   4  11
HETATM   11  C   UNL     1      -9.647  10.203  65.198  1.00  0.00    -0.292 C  
HETATM   12  O   UNL     1      -9.141   9.623  64.245  1.00  0.00    -0.238 OA 
BRANCH  11  13
HETATM   13  O   UNL     1     -10.455   9.586  66.109  1.00  0.00    -0.170 OA 
BRANCH  13  14
HETATM   14  C   UNL     1      -9.978   8.290  66.506  1.00  0.00    -0.250 C  
HETATM   15  C   UNL     1      -8.844   8.420  67.510  1.00  0.00    -0.139 C  
BRANCH  14  16
HETATM   16  O   UNL     1     -11.035   7.588  67.176  1.00  0.00    -0.293 OA 
BRANCH  16  17
HETATM   17  C   UNL     1     -10.774   6.268  67.335  1.00  0.00    -0.331 C  
HETATM   18  O   UNL     1     -10.586   5.707  68.404  1.00  0.00    -0.208 OA 
BRANCH  17  19
HETATM   19  O   UNL     1     -10.634   5.712  66.108  1.00  0.00    -0.140 OA 
BRANCH  19  20
HETATM   20  C   UNL     1      -9.707   4.617  66.045  1.00  0.00    -0.202 C  
HETATM   21  C   UNL     1      -8.419   5.101  65.402  1.00  0.00    -0.141 C  
ENDBRANCH  19  20
ENDBRANCH  17  19
ENDBRANCH  16  17
ENDBRANCH  14  16
ENDBRANCH  13  14
ENDBRANCH  11  13
ENDBRANCH   4  11
BRANCH   7  22
HETATM   22  N   UNL     1     -10.497  14.433  68.655  1.00  0.00    -0.241 N  
HETATM   23  H   UNL     1     -11.430  14.533  68.256  1.00  0.00     0.000 HD 
HETATM   24  C   UNL     1      -9.916  15.517  69.278  1.00  0.00    -0.264 C  
HETATM   25  O   UNL     1      -8.758  15.498  69.691  1.00  0.00    -0.251 OA 
BRANCH  24  26
HETATM   26  C   UNL     1     -10.835  16.755  69.397  1.00  0.00    -0.250 C  
HETATM   27  N   UNL     1     -12.262  16.335  69.335  1.00  0.00    -0.298 NA 
HETATM   28  H2  UNL     1     -12.483  15.625  70.034  1.00  0.00     0.000 HD 
HETATM   29  H1  UNL     1     -12.869  17.151  69.414  1.00  0.00     0.000 HD 
BRANCH  26  30
HETATM   30  C   UNL     1     -10.497  17.808  68.358  1.00  0.00    -0.351 A  
HETATM   31  C   UNL     1     -10.610  17.493  66.993  1.00  0.00    -0.245 A  
HETATM   32  C   UNL     1     -10.294  18.436  66.013  1.00  0.00    -0.397 A  
HETATM   33  C   UNL     1      -9.868  19.710  66.381  1.00  0.00    -0.536 A  
HETATM   34  C   UNL     1      -9.771  20.046  67.729  1.00  0.00    -0.528 A  
HETATM   35  C   UNL     1     -10.091  19.106  68.710  1.00  0.00    -0.445 A  
ENDBRANCH  26  30
ENDBRANCH  24  26
ENDBRANCH   7  22
TORSDOF 10
ENDMDL
MODEL       61
REMARK 921   NORMALIZED FREE ENERGY PREDICTED BY IDOCK:   -5.36 KCAL/MOL
REMARK 922        TOTAL FREE ENERGY PREDICTED BY IDOCK:   -9.76 KCAL/MOL
REMARK 923 INTER-LIGAND FREE ENERGY PREDICTED BY IDOCK:   -8.89 KCAL/MOL
REMARK 924 INTRA-LIGAND FREE ENERGY PREDICTED BY IDOCK:   -0.86 KCAL/MOL
REMARK 927      BINDING AFFINITY PREDICTED BY RF-SCORE:    0.00 PKD
ROOT
HETATM    1  C   UNL     1      -9.885  14.803  69.233  1.00  0.00    -0.116 C  
HETATM    2  S   UNL     1     -11.071  15.703  68.135  1.00  0.00    -0.337 SA 
HETATM    3  C   UNL     1     -11.056  14.403  66.818  1.00  0.00    -0.323 C  
HETATM    4  C   UNL     1     -10.545  13.121  67.506  1.00  0.00    -0.235 C  
HETATM    5  C   UNL     1     -12.443  14.280  66.184  1.00  0.00    -0.362 C  
HETATM    6  C   UNL     1     -10.088  14.888  65.718  1.00  0.00    -0.367 C  
HETATM    7  C   UNL     1      -8.376  15.156  69.106  1.00  0.00    -0.221 C  
HETATM    8  N   UNL     1      -9.593  13.539  68.534  1.00  0.00    -0.191 N  
HETATM    9  O   UNL     1      -7.565  13.459  67.365  1.00  0.00    -0.162 OA 
HETATM   10  C   UNL     1      -8.312  13.895  68.211  1.00  0.00    -0.163 C  
ENDROOT
BRANCH   4  11
HETATM   11  C   UNL     1     -11.606  12.235  68.192  1.00  0.00    -0.339 C  
HETATM   12  O   UNL     1     -12.288  12.544  69.161  1.00  0.00    -0.084 OA 
BRANCH  11  13
HETATM   13  O   UNL     1     -11.624  10.992  67.627  1.00  0.00    -0.526 OA 
BRANCH  13  14
HETATM   14  C   UNL     1     -10.496  10.183  67.999  1.00  0.00    -0.209 C  
HETATM   15  C   UNL     1     -10.372  10.100  69.513  1.00  0.00    -0.263 C  
BRANCH  14  16
HETATM   16  O   UNL     1     -10.710   8.843  67.536  1.00  0.00    -0.258 OA 
BRANCH  16  17
HETATM   17  C   UNL     1     -10.028   8.563  66.400  1.00  0.00    -0.244 C  
HETATM   18  O   UNL     1      -9.676   9.383  65.564  1.00  0.00    -0.284 OA 
BRANCH  17  19
HETATM   19  O   UNL     1      -9.918   7.217  66.290  1.00  0.00    -0.076 OA 
BRANCH  19  20
HETATM   20  C   UNL     1     -10.821   6.469  67.118  1.00  0.00    -0.401 C  
HETATM   21  C   UNL     1     -10.083   5.273  67.694  1.00  0.00    -0.216 C  
ENDBRANCH  19  20
ENDBRANCH  17  19
ENDBRANCH  16  17
ENDBRANCH  14  16
ENDBRANCH  13  14
ENDBRANCH  11  13
ENDBRANCH   4  11
BRANCH   7  22
HETATM   22  N   UNL     1      -8.028  16.442  68.457  1.00  0.00    -0.192 N  
HETATM   23  H   UNL     1      -8.568  16.750  67.649  1.00  0.00     0.000 HD 
HETATM   24  C   UNL     1      -6.995  17.232  68.914  1.00  0.00    -0.233 C  
HETATM   25  O   UNL     1      -6.241  16.875  69.818  1.00  0.00    -0.229 OA 
BRANCH  24  26
HETATM   26  C   UNL     1      -6.858  18.590  68.187  1.00  0.00    -0.229 C  
HETATM   27  N   UNL     1      -6.172  19.572  69.070  1.00  0.00    -0.259 NA 
HETATM   28  H2  UNL     1      -5.272  19.224  69.403  1.00  0.00     0.000 HD 
HETATM   29  H1  UNL     1      -6.082  20.468  68.591  1.00  0.00     0.000 HD 
BRANCH  26  30
HETATM   30  C   UNL     1      -8.200  19.098  67.691  1.00  0.00    -0.316 A  
HETATM   31  C   UNL     1      -8.391  19.320  66.317  1.00  0.00    -0.327 A  
HETATM   32  C   UNL     1      -9.609  19.799  65.832  1.00  0.00    -0.318 A  
HETATM   33  C   UNL     1     -10.659  20.055  66.711  1.00  0.00    -0.454 A  
HETATM   34  C   UNL     1     -10.495  19.820  68.074  1.00  0.00    -0.523 A  
HETATM   35  C   UNL     1      -9.278  19.337  68.560  1.00  0.00    -0.434 A  
ENDBRANCH  26  30
ENDBRANCH  24  26
ENDBRANCH   7  22
TORSDOF 10
ENDMDL
MODEL       62
REMARK 921   NORMALIZED FREE ENERGY PREDICTED BY IDOCK:   -5.36 KCAL/MOL
REMARK 922        TOTAL FREE ENERGY PREDICTED BY IDOCK:   -9.75 KCAL/MOL
REMARK 923 INTER-LIGAND FREE ENERGY PREDICTED BY IDOCK:   -8.40 KCAL/MOL
REMARK 924 INTRA-LIGAND FREE ENERGY PREDICTED BY IDOCK:   -1.35 KCAL/MOL
REMARK 927      BINDING AFFINITY PREDICTED BY RF-SCORE:    0.00 PKD
ROOT
HETATM    1  C   UNL     1      -9.546  10.243  69.160  1.00  0.00    -0.218 C  
HETATM    2  S   UNL     1     -10.905   9.412  68.217  1.00  0.00    -0.046 SA 
HETATM    3  C   UNL     1      -9.755   8.464  67.121  1.00  0.00    -0.190 C  
HETATM    4  C   UNL     1      -8.401   8.440  67.859  1.00  0.00    -0.131 C  
HETATM    5  C   UNL     1     -10.339   7.085  66.812  1.00  0.00    -0.291 C  
HETATM    6  C   UNL     1      -9.666   9.236  65.787  1.00  0.00    -0.339 C  
HETATM    7  C   UNL     1      -9.086  11.646  68.674  1.00  0.00    -0.100 C  
HETATM    8  N   UNL     1      -8.297   9.698  68.599  1.00  0.00    -0.112 N  
HETATM    9  O   UNL     1      -7.184  11.065  67.056  1.00  0.00    -0.107 OA 
HETATM   10  C   UNL     1      -7.951  10.863  67.970  1.00  0.00    -0.109 C  
ENDROOT
BRANCH   4  11
HETATM   11  C   UNL     1      -8.184   7.292  68.868  1.00  0.00    -0.125 C  
HETATM   12  O   UNL     1      -7.899   6.133  68.592  1.00  0.00    -0.098 OA 
BRANCH  11  13
HETATM   13  O   UNL     1      -8.453   7.719  70.136  1.00  0.00    -0.130 OA 
BRANCH  13  14
HETATM   14  C   UNL     1      -9.125   6.733  70.937  1.00  0.00    -0.153 C  
HETATM   15  C   UNL     1      -8.294   6.378  72.160  1.00  0.00    -0.108 C  
BRANCH  14  16
HETATM   16  O   UNL     1     -10.354   7.287  71.427  1.00  0.00    -0.200 OA 
BRANCH  16  17
HETATM   17  C   UNL     1     -11.446   6.777  70.811  1.00  0.00    -0.342 C  
HETATM   18  O   UNL     1     -11.429   6.006  69.862  1.00  0.00    -0.388 OA 
BRANCH  17  19
HETATM   19  O   UNL     1     -12.546   7.363  71.341  1.00  0.00    -0.345 OA 
BRANCH  19  20
HETATM   20  C   UNL     1     -12.290   8.564  72.084  1.00  0.00    -0.382 C  
HETATM   21  C   UNL     1     -13.592   9.328  72.247  1.00  0.00    -0.544 C  
ENDBRANCH  19  20
ENDBRANCH  17  19
ENDBRANCH  16  17
ENDBRANCH  14  16
ENDBRANCH  13  14
ENDBRANCH  11  13
ENDBRANCH   4  11
BRANCH   7  22
HETATM   22  N   UNL     1     -10.009  12.400  67.794  1.00  0.00    -0.200 N  
HETATM   23  H   UNL     1     -10.761  11.900  67.320  1.00  0.00     0.000 HD 
HETATM   24  C   UNL     1      -9.880  13.759  67.596  1.00  0.00    -0.234 C  
HETATM   25  O   UNL     1      -8.939  14.405  68.055  1.00  0.00    -0.170 OA 
BRANCH  24  26
HETATM   26  C   UNL     1     -11.004  14.391  66.743  1.00  0.00    -0.314 C  
HETATM   27  N   UNL     1     -12.205  14.637  67.587  1.00  0.00    -0.587 NA 
HETATM   28  H2  UNL     1     -11.986  15.199  68.410  1.00  0.00     0.000 HD 
HETATM   29  H1  UNL     1     -12.947  15.053  67.025  1.00  0.00     0.000 HD 
BRANCH  26  30
HETATM   30  C   UNL     1     -11.320  13.549  65.520  1.00  0.00    -0.310 A  
HETATM   31  C   UNL     1     -12.637  13.110  65.304  1.00  0.00    -0.531 A  
HETATM   32  C   UNL     1     -12.956  12.324  64.195  1.00  0.00    -0.276 A  
HETATM   33  C   UNL     1     -11.967  11.972  63.280  1.00  0.00    -0.477 A  
HETATM   34  C   UNL     1     -10.660  12.417  63.467  1.00  0.00    -0.451 A  
HETATM   35  C   UNL     1     -10.340  13.207  64.573  1.00  0.00    -0.389 A  
ENDBRANCH  26  30
ENDBRANCH  24  26
ENDBRANCH   7  22
TORSDOF 10
ENDMDL
MODEL       63
REMARK 921   NORMALIZED FREE ENERGY PREDICTED BY IDOCK:   -5.33 KCAL/MOL
REMARK 922        TOTAL FREE ENERGY PREDICTED BY IDOCK:   -9.71 KCAL/MOL
REMARK 923 INTER-LIGAND FREE ENERGY PREDICTED BY IDOCK:   -8.33 KCAL/MOL
REMARK 924 INTRA-LIGAND FREE ENERGY PREDICTED BY IDOCK:   -1.38 KCAL/MOL
REMARK 927      BINDING AFFINITY PREDICTED BY RF-SCORE:    0.00 PKD
ROOT
HETATM    1  C   UNL     1      -9.564  10.525  69.701  1.00  0.00    -0.027 C  
HETATM    2  S   UNL     1      -8.724   9.114  68.847  1.00  0.00    -0.133 SA 
HETATM    3  C   UNL     1      -9.074   9.753  67.145  1.00  0.00    -0.135 C  
HETATM    4  C   UNL     1      -9.368  11.257  67.319  1.00  0.00    -0.166 C  
HETATM    5  C   UNL     1      -7.906   9.433  66.212  1.00  0.00    -0.100 C  
HETATM    6  C   UNL     1     -10.307   8.986  66.621  1.00  0.00    -0.289 C  
HETATM    7  C   UNL     1     -11.056  10.342  70.098  1.00  0.00    -0.319 C  
HETATM    8  N   UNL     1     -10.016  11.418  68.620  1.00  0.00    -0.207 N  
HETATM    9  O   UNL     1     -12.281  11.265  68.044  1.00  0.00    -0.621 OA 
HETATM   10  C   UNL     1     -11.341  11.124  68.793  1.00  0.00    -0.277 C  
ENDROOT
BRANCH   4  11
HETATM   11  C   UNL     1      -8.152  12.206  67.288  1.00  0.00    -0.176 C  
HETATM   12  O   UNL     1      -7.128  12.090  67.950  1.00  0.00    -0.082 OA 
BRANCH  11  13
HETATM   13  O   UNL     1      -8.405  13.277  66.480  1.00  0.00     0.125 OA 
BRANCH  13  14
HETATM   14  C   UNL     1      -8.773  14.462  67.204  1.00  0.00    -0.226 C  
HETATM   15  C   UNL     1      -7.600  15.427  67.284  1.00  0.00    -0.246 C  
BRANCH  14  16
HETATM   16  O   UNL     1      -9.812  15.144  66.488  1.00  0.00    -0.240 OA 
BRANCH  16  17
HETATM   17  C   UNL     1     -11.021  15.042  67.089  1.00  0.00    -0.329 C  
HETATM   18  O   UNL     1     -11.927  14.300  66.737  1.00  0.00    -0.414 OA 
BRANCH  17  19
HETATM   19  O   UNL     1     -11.096  15.986  68.057  1.00  0.00    -0.341 OA 
BRANCH  19  20
HETATM   20  C   UNL     1     -10.871  17.330  67.607  1.00  0.00    -0.238 C  
HETATM   21  C   UNL     1     -10.006  18.051  68.626  1.00  0.00    -0.396 C  
ENDBRANCH  19  20
ENDBRANCH  17  19
ENDBRANCH  16  17
ENDBRANCH  14  16
ENDBRANCH  13  14
ENDBRANCH  11  13
ENDBRANCH   4  11
BRANCH   7  22
HETATM   22  N   UNL     1     -11.580   8.957  70.162  1.00  0.00    -0.462 N  
HETATM   23  H   UNL     1     -11.437   8.336  69.366  1.00  0.00     0.000 HD 
HETATM   24  C   UNL     1     -12.255   8.485  71.268  1.00  0.00    -0.277 C  
HETATM   25  O   UNL     1     -12.549   9.207  72.219  1.00  0.00    -0.376 OA 
BRANCH  24  26
HETATM   26  C   UNL     1     -12.620   6.984  71.201  1.00  0.00    -0.339 C  
HETATM   27  N   UNL     1     -13.699   6.680  72.181  1.00  0.00    -0.465 NA 
HETATM   28  H2  UNL     1     -14.514   7.279  72.051  1.00  0.00     0.000 HD 
HETATM   29  H1  UNL     1     -13.940   5.689  72.138  1.00  0.00     0.000 HD 
BRANCH  26  30
HETATM   30  C   UNL     1     -11.400   6.101  71.392  1.00  0.00    -0.336 A  
HETATM   31  C   UNL     1     -10.755   5.561  70.268  1.00  0.00    -0.333 A  
HETATM   32  C   UNL     1      -9.638   4.735  70.411  1.00  0.00    -0.267 A  
HETATM   33  C   UNL     1      -9.144   4.443  71.681  1.00  0.00    -0.174 A  
HETATM   34  C   UNL     1      -9.759   4.987  72.806  1.00  0.00    -0.175 A  
HETATM   35  C   UNL     1     -10.873   5.817  72.663  1.00  0.00    -0.296 A  
ENDBRANCH  26  30
ENDBRANCH  24  26
ENDBRANCH   7  22
TORSDOF 10
ENDMDL
MODEL       64
REMARK 921   NORMALIZED FREE ENERGY PREDICTED BY IDOCK:   -5.32 KCAL/MOL
REMARK 922        TOTAL FREE ENERGY PREDICTED BY IDOCK:   -9.69 KCAL/MOL
REMARK 923 INTER-LIGAND FREE ENERGY PREDICTED BY IDOCK:   -8.65 KCAL/MOL
REMARK 924 INTRA-LIGAND FREE ENERGY PREDICTED BY IDOCK:   -1.04 KCAL/MOL
REMARK 927      BINDING AFFINITY PREDICTED BY RF-SCORE:    0.00 PKD
ROOT
HETATM    1  C   UNL     1     -10.836  15.447  67.135  1.00  0.00    -0.321 C  
HETATM    2  S   UNL     1      -9.308  14.675  66.431  1.00  0.00    -0.259 SA 
HETATM    3  C   UNL     1      -9.306  13.258  67.622  1.00  0.00    -0.212 C  
HETATM    4  C   UNL     1     -10.746  13.170  68.166  1.00  0.00    -0.242 C  
HETATM    5  C   UNL     1      -8.805  11.990  66.929  1.00  0.00    -0.197 C  
HETATM    6  C   UNL     1      -8.294  13.607  68.734  1.00  0.00     0.041 C  
HETATM    7  C   UNL     1     -10.655  16.547  68.218  1.00  0.00    -0.326 C  
HETATM    8  N   UNL     1     -11.270  14.536  68.209  1.00  0.00    -0.265 N  
HETATM    9  O   UNL     1     -10.718  15.187  70.390  1.00  0.00    -0.256 OA 
HETATM   10  C   UNL     1     -10.925  15.395  69.217  1.00  0.00    -0.261 C  
ENDROOT
BRANCH   4  11
HETATM   11  C   UNL     1     -11.742  12.319  67.350  1.00  0.00    -0.335 C  
HETATM   12  O   UNL     1     -12.167  12.580  66.232  1.00  0.00    -0.600 OA 
BRANCH  11  13
HETATM   13  O   UNL     1     -12.177  11.259  68.091  1.00  0.00    -0.622 OA 
BRANCH  13  14
HETATM   14  C   UNL     1     -11.486  11.117  69.343  1.00  0.00    -0.298 C  
HETATM   15  C   UNL     1     -12.357  11.595  70.494  1.00  0.00    -0.410 C  
BRANCH  14  16
HETATM   16  O   UNL     1     -11.227   9.727  69.580  1.00  0.00    -0.218 OA 
BRANCH  16  17
HETATM   17  C   UNL     1     -10.193   9.520  70.430  1.00  0.00    -0.279 C  
HETATM   18  O   UNL     1     -10.286   9.060  71.560  1.00  0.00    -0.291 OA 
BRANCH  17  19
HETATM   19  O   UNL     1      -9.070  10.024  69.866  1.00  0.00    -0.213 OA 
BRANCH  19  20
HETATM   20  C   UNL     1      -7.872   9.283  70.144  1.00  0.00    -0.125 C  
HETATM   21  C   UNL     1      -6.938   9.394  68.951  1.00  0.00    -0.063 C  
ENDBRANCH  19  20
ENDBRANCH  17  19
ENDBRANCH  16  17
ENDBRANCH  14  16
ENDBRANCH  13  14
ENDBRANCH  11  13
ENDBRANCH   4  11
BRANCH   7  22
HETATM   22  N   UNL     1      -9.328  17.200  68.312  1.00  0.00    -0.257 N  
HETATM   23  H   UNL     1      -8.686  16.912  69.050  1.00  0.00     0.000 HD 
HETATM   24  C   UNL     1      -8.938  18.185  67.430  1.00  0.00    -0.256 C  
HETATM   25  O   UNL     1      -9.697  18.649  66.581  1.00  0.00    -0.311 OA 
BRANCH  24  26
HETATM   26  C   UNL     1      -7.478  18.663  67.610  1.00  0.00    -0.229 C  
HETATM   27  N   UNL     1      -7.416  19.725  68.651  1.00  0.00    -0.319 NA 
HETATM   28  H2  UNL     1      -7.832  19.422  69.532  1.00  0.00     0.000 HD 
HETATM   29  H1  UNL     1      -6.453  20.041  68.770  1.00  0.00     0.000 HD 
BRANCH  26  30
HETATM   30  C   UNL     1      -6.867  19.108  66.293  1.00  0.00    -0.236 A  
HETATM   31  C   UNL     1      -6.068  18.211  65.564  1.00  0.00    -0.243 A  
HETATM   32  C   UNL     1      -5.483  18.595  64.356  1.00  0.00    -0.191 A  
HETATM   33  C   UNL     1      -5.692  19.878  63.854  1.00  0.00    -0.316 A  
HETATM   34  C   UNL     1      -6.499  20.772  64.553  1.00  0.00    -0.302 A  
HETATM   35  C   UNL     1      -7.090  20.388  65.759  1.00  0.00    -0.234 A  
ENDBRANCH  26  30
ENDBRANCH  24  26
ENDBRANCH   7  22
TORSDOF 10
ENDMDL
MODEL       65
REMARK 921   NORMALIZED FREE ENERGY PREDICTED BY IDOCK:   -5.30 KCAL/MOL
REMARK 922        TOTAL FREE ENERGY PREDICTED BY IDOCK:   -9.67 KCAL/MOL
REMARK 923 INTER-LIGAND FREE ENERGY PREDICTED BY IDOCK:   -8.33 KCAL/MOL
REMARK 924 INTRA-LIGAND FREE ENERGY PREDICTED BY IDOCK:   -1.33 KCAL/MOL
REMARK 927      BINDING AFFINITY PREDICTED BY RF-SCORE:    0.00 PKD
ROOT
HETATM    1  C   UNL     1     -10.059  14.836  66.420  1.00  0.00    -0.280 C  
HETATM    2  S   UNL     1      -8.301  15.253  66.818  1.00  0.00    -0.165 SA 
HETATM    3  C   UNL     1      -8.287  14.302  68.406  1.00  0.00    -0.164 C  
HETATM    4  C   UNL     1      -9.458  13.303  68.302  1.00  0.00    -0.209 C  
HETATM    5  C   UNL     1      -6.917  13.660  68.624  1.00  0.00    -0.103 C  
HETATM    6  C   UNL     1      -8.505  15.323  69.544  1.00  0.00    -0.188 C  
HETATM    7  C   UNL     1     -11.157  15.844  66.864  1.00  0.00    -0.082 C  
HETATM    8  N   UNL     1     -10.504  13.953  67.513  1.00  0.00    -0.247 N  
HETATM    9  O   UNL     1     -11.800  14.962  69.183  1.00  0.00    -0.299 OA 
HETATM   10  C   UNL     1     -11.333  14.889  68.069  1.00  0.00    -0.324 C  
ENDROOT
BRANCH   4  11
HETATM   11  C   UNL     1      -9.151  11.947  67.633  1.00  0.00    -0.179 C  
HETATM   12  O   UNL     1      -9.198  11.706  66.433  1.00  0.00    -0.201 OA 
BRANCH  11  13
HETATM   13  O   UNL     1      -8.906  10.995  68.581  1.00  0.00    -0.156 OA 
BRANCH  13  14
HETATM   14  C   UNL     1      -9.012   9.653  68.080  1.00  0.00    -0.123 C  
HETATM   15  C   UNL     1      -7.670   8.942  68.163  1.00  0.00    -0.100 C  
BRANCH  14  16
HETATM   16  O   UNL     1      -9.915   8.913  68.913  1.00  0.00    -0.179 OA 
BRANCH  16  17
HETATM   17  C   UNL     1     -10.293   7.734  68.364  1.00  0.00    -0.196 C  
HETATM   18  O   UNL     1     -10.806   7.597  67.262  1.00  0.00    -0.293 OA 
BRANCH  17  19
HETATM   19  O   UNL     1     -10.123   6.760  69.290  1.00  0.00    -0.161 OA 
BRANCH  19  20
HETATM   20  C   UNL     1     -11.331   6.101  69.699  1.00  0.00    -0.372 C  
HETATM   21  C   UNL     1     -11.688   6.557  71.103  1.00  0.00    -0.392 C  
ENDBRANCH  19  20
ENDBRANCH  17  19
ENDBRANCH  16  17
ENDBRANCH  14  16
ENDBRANCH  13  14
ENDBRANCH  11  13
ENDBRANCH   4  11
BRANCH   7  22
HETATM   22  N   UNL     1     -10.727  17.227  67.178  1.00  0.00    -0.242 N  
HETATM   23  H   UNL     1     -10.553  17.483  68.150  1.00  0.00     0.000 HD 
HETATM   24  C   UNL     1     -10.555  18.177  66.194  1.00  0.00    -0.274 C  
HETATM   25  O   UNL     1     -10.842  17.967  65.016  1.00  0.00    -0.767 OA 
BRANCH  24  26
HETATM   26  C   UNL     1      -9.989  19.525  66.698  1.00  0.00    -0.407 C  
HETATM   27  N   UNL     1     -10.108  20.556  65.631  1.00  0.00    -0.443 NA 
HETATM   28  H2  UNL     1     -11.065  20.647  65.290  1.00  0.00     0.000 HD 
HETATM   29  H1  UNL     1      -9.734  21.446  65.963  1.00  0.00     0.000 HD 
BRANCH  26  30
HETATM   30  C   UNL     1      -8.566  19.380  67.206  1.00  0.00    -0.329 A  
HETATM   31  C   UNL     1      -8.298  19.564  68.573  1.00  0.00    -0.372 A  
HETATM   32  C   UNL     1      -6.998  19.450  69.068  1.00  0.00    -0.390 A  
HETATM   33  C   UNL     1      -5.946  19.143  68.207  1.00  0.00    -0.228 A  
HETATM   34  C   UNL     1      -6.197  18.936  66.853  1.00  0.00    -0.191 A  
HETATM   35  C   UNL     1      -7.498  19.045  66.357  1.00  0.00    -0.274 A  
ENDBRANCH  26  30
ENDBRANCH  24  26
ENDBRANCH   7  22
TORSDOF 10
ENDMDL
MODEL       66
REMARK 921   NORMALIZED FREE ENERGY PREDICTED BY IDOCK:   -5.30 KCAL/MOL
REMARK 922        TOTAL FREE ENERGY PREDICTED BY IDOCK:   -9.66 KCAL/MOL
REMARK 923 INTER-LIGAND FREE ENERGY PREDICTED BY IDOCK:   -8.19 KCAL/MOL
REMARK 924 INTRA-LIGAND FREE ENERGY PREDICTED BY IDOCK:   -1.47 KCAL/MOL
REMARK 927      BINDING AFFINITY PREDICTED BY RF-SCORE:    0.00 PKD
ROOT
HETATM    1  C   UNL     1     -11.658  11.636  67.167  1.00  0.00    -0.212 C  
HETATM    2  S   UNL     1     -11.113  12.261  68.822  1.00  0.00    -0.263 SA 
HETATM    3  C   UNL     1      -9.582  13.070  68.168  1.00  0.00    -0.227 C  
HETATM    4  C   UNL     1      -9.823  13.257  66.657  1.00  0.00    -0.276 C  
HETATM    5  C   UNL     1      -9.301  14.362  68.936  1.00  0.00    -0.096 C  
HETATM    6  C   UNL     1      -8.409  12.104  68.446  1.00  0.00    -0.143 C  
HETATM    7  C   UNL     1     -11.241  10.193  66.769  1.00  0.00     0.342 C  
HETATM    8  N   UNL     1     -10.649  12.133  66.215  1.00  0.00    -0.243 N  
HETATM    9  O   UNL     1      -9.025  10.586  65.542  1.00  0.00    -0.168 OA 
HETATM   10  C   UNL     1     -10.104  10.898  65.990  1.00  0.00    -0.249 C  
ENDROOT
BRANCH   4  11
HETATM   11  C   UNL     1     -10.540  14.554  66.227  1.00  0.00    -0.304 C  
HETATM   12  O   UNL     1     -11.726  14.813  66.394  1.00  0.00    -0.346 OA 
BRANCH  11  13
HETATM   13  O   UNL     1      -9.686  15.360  65.532  1.00  0.00    -0.331 OA 
BRANCH  13  14
HETATM   14  C   UNL     1      -9.521  16.659  66.124  1.00  0.00    -0.287 C  
HETATM   15  C   UNL     1      -8.062  17.087  66.082  1.00  0.00    -0.292 C  
BRANCH  14  16
HETATM   16  O   UNL     1     -10.249  17.622  65.350  1.00  0.00    -0.576 OA 
BRANCH  16  17
HETATM   17  C   UNL     1     -10.519  18.757  66.038  1.00  0.00    -0.432 C  
HETATM   18  O   UNL     1     -10.539  19.884  65.565  1.00  0.00    -0.464 OA 
BRANCH  17  19
HETATM   19  O   UNL     1     -10.635  18.442  67.350  1.00  0.00    -0.406 OA 
BRANCH  19  20
HETATM   20  C   UNL     1     -10.381  19.528  68.254  1.00  0.00    -0.411 C  
HETATM   21  C   UNL     1      -8.932  19.463  68.704  1.00  0.00    -0.419 C  
ENDBRANCH  19  20
ENDBRANCH  17  19
ENDBRANCH  16  17
ENDBRANCH  14  16
ENDBRANCH  13  14
ENDBRANCH  11  13
ENDBRANCH   4  11
BRANCH   7  22
HETATM   22  N   UNL     1     -10.823   9.278  67.857  1.00  0.00    -0.473 N  
HETATM   23  H   UNL     1     -10.839   9.615  68.820  1.00  0.00     0.000 HD 
HETATM   24  C   UNL     1     -10.414   7.986  67.605  1.00  0.00    -0.232 C  
HETATM   25  O   UNL     1     -10.275   7.548  66.465  1.00  0.00    -0.210 OA 
BRANCH  24  26
HETATM   26  C   UNL     1     -10.132   7.146  68.873  1.00  0.00    -0.177 C  
HETATM   27  N   UNL     1     -11.395   6.931  69.631  1.00  0.00    -0.513 NA 
HETATM   28  H2  UNL     1     -12.124   6.516  69.050  1.00  0.00     0.000 HD 
HETATM   29  H1  UNL     1     -11.210   6.378  70.467  1.00  0.00     0.000 HD 
BRANCH  26  30
HETATM   30  C   UNL     1      -9.044   7.769  69.728  1.00  0.00    -0.147 A  
HETATM   31  C   UNL     1      -9.265   7.952  71.103  1.00  0.00    -0.165 A  
HETATM   32  C   UNL     1      -8.288   8.533  71.914  1.00  0.00    -0.218 A  
HETATM   33  C   UNL     1      -7.072   8.934  71.364  1.00  0.00    -0.096 A  
HETATM   34  C   UNL     1      -6.828   8.740  70.007  1.00  0.00    -0.042 A  
HETATM   35  C   UNL     1      -7.802   8.154  69.196  1.00  0.00    -0.107 A  
ENDBRANCH  26  30
ENDBRANCH  24  26
ENDBRANCH   7  22
TORSDOF 10
ENDMDL
MODEL       67
REMARK 921   NORMALIZED FREE ENERGY PREDICTED BY IDOCK:   -5.30 KCAL/MOL
REMARK 922        TOTAL FREE ENERGY PREDICTED BY IDOCK:   -9.65 KCAL/MOL
REMARK 923 INTER-LIGAND FREE ENERGY PREDICTED BY IDOCK:   -8.67 KCAL/MOL
REMARK 924 INTRA-LIGAND FREE ENERGY PREDICTED BY IDOCK:   -0.98 KCAL/MOL
REMARK 927      BINDING AFFINITY PREDICTED BY RF-SCORE:    0.00 PKD
ROOT
HETATM    1  C   UNL     1     -10.609  10.827  66.252  1.00  0.00    -0.192 C  
HETATM    2  S   UNL     1      -8.783  10.666  65.997  1.00  0.00    -0.183 SA 
HETATM    3  C   UNL     1      -8.462  10.012  67.699  1.00  0.00    -0.114 C  
HETATM    4  C   UNL     1      -9.818   9.474  68.200  1.00  0.00    -0.155 C  
HETATM    5  C   UNL     1      -7.337   8.977  67.661  1.00  0.00    -0.084 C  
HETATM    6  C   UNL     1      -7.967  11.200  68.551  1.00  0.00    -0.143 C  
HETATM    7  C   UNL     1     -11.151  12.205  66.726  1.00  0.00    -0.300 C  
HETATM    8  N   UNL     1     -10.856  10.322  67.614  1.00  0.00    -0.292 N  
HETATM    9  O   UNL     1     -11.134  11.949  69.276  1.00  0.00    -0.240 OA 
HETATM   10  C   UNL     1     -11.137  11.557  68.132  1.00  0.00    -0.246 C  
ENDROOT
BRANCH   4  11
HETATM   11  C   UNL     1     -10.157   8.013  67.839  1.00  0.00    -0.194 C  
HETATM   12  O   UNL     1     -10.874   7.644  66.917  1.00  0.00    -0.328 OA 
BRANCH  11  13
HETATM   13  O   UNL     1      -9.620   7.160  68.760  1.00  0.00    -0.144 OA 
BRANCH  13  14
HETATM   14  C   UNL     1     -10.604   6.355  69.431  1.00  0.00    -0.257 C  
HETATM   15  C   UNL     1     -10.231   4.883  69.359  1.00  0.00    -0.229 C  
BRANCH  14  16
HETATM   16  O   UNL     1     -10.623   6.703  70.822  1.00  0.00    -0.215 OA 
BRANCH  16  17
HETATM   17  C   UNL     1     -11.847   6.563  71.384  1.00  0.00    -0.329 C  
HETATM   18  O   UNL     1     -12.879   7.074  70.973  1.00  0.00    -0.349 OA 
BRANCH  17  19
HETATM   19  O   UNL     1     -11.708   5.871  72.540  1.00  0.00    -0.303 OA 
BRANCH  19  20
HETATM   20  C   UNL     1     -10.352   5.699  72.980  1.00  0.00    -0.203 C  
HETATM   21  C   UNL     1     -10.161   6.448  74.287  1.00  0.00    -0.365 C  
ENDBRANCH  19  20
ENDBRANCH  17  19
ENDBRANCH  16  17
ENDBRANCH  14  16
ENDBRANCH  13  14
ENDBRANCH  11  13
ENDBRANCH   4  11
BRANCH   7  22
HETATM   22  N   UNL     1     -10.275  13.385  66.537  1.00  0.00    -0.276 N  
HETATM   23  H   UNL     1      -9.278  13.297  66.732  1.00  0.00     0.000 HD 
HETATM   24  C   UNL     1     -10.770  14.598  66.105  1.00  0.00    -0.314 C  
HETATM   25  O   UNL     1     -11.972  14.801  65.948  1.00  0.00    -0.281 OA 
BRANCH  24  26
HETATM   26  C   UNL     1      -9.690  15.675  65.853  1.00  0.00    -0.353 C  
HETATM   27  N   UNL     1      -8.351  15.153  66.241  1.00  0.00    -0.324 NA 
HETATM   28  H2  UNL     1      -8.132  14.274  65.772  1.00  0.00     0.000 HD 
HETATM   29  H1  UNL     1      -7.638  15.863  66.075  1.00  0.00     0.000 HD 
BRANCH  26  30
HETATM   30  C   UNL     1     -10.026  16.980  66.551  1.00  0.00    -0.318 A  
HETATM   31  C   UNL     1      -9.913  17.066  67.949  1.00  0.00    -0.281 A  
HETATM   32  C   UNL     1     -10.226  18.249  68.621  1.00  0.00    -0.377 A  
HETATM   33  C   UNL     1     -10.650  19.367  67.906  1.00  0.00    -0.501 A  
HETATM   34  C   UNL     1     -10.746  19.307  66.518  1.00  0.00    -0.487 A  
HETATM   35  C   UNL     1     -10.429  18.126  65.844  1.00  0.00    -0.292 A  
ENDBRANCH  26  30
ENDBRANCH  24  26
ENDBRANCH   7  22
TORSDOF 10
ENDMDL
MODEL       68
REMARK 921   NORMALIZED FREE ENERGY PREDICTED BY IDOCK:   -5.28 KCAL/MOL
REMARK 922        TOTAL FREE ENERGY PREDICTED BY IDOCK:   -9.63 KCAL/MOL
REMARK 923 INTER-LIGAND FREE ENERGY PREDICTED BY IDOCK:   -8.05 KCAL/MOL
REMARK 924 INTRA-LIGAND FREE ENERGY PREDICTED BY IDOCK:   -1.57 KCAL/MOL
REMARK 927      BINDING AFFINITY PREDICTED BY RF-SCORE:    0.00 PKD
ROOT
HETATM    1  C   UNL     1      -9.553  11.335  66.264  1.00  0.00    -0.209 C  
HETATM    2  S   UNL     1     -10.883  10.347  67.088  1.00  0.00    -0.193 SA 
HETATM    3  C   UNL     1     -10.592  11.088  68.759  1.00  0.00    -0.202 C  
HETATM    4  C   UNL     1      -9.841  12.411  68.503  1.00  0.00    -0.151 C  
HETATM    5  C   UNL     1     -11.917  11.239  69.507  1.00  0.00    -0.421 C  
HETATM    6  C   UNL     1      -9.727  10.084  69.552  1.00  0.00    -0.253 C  
HETATM    7  C   UNL     1      -8.145  10.688  66.143  1.00  0.00    -0.154 C  
HETATM    8  N   UNL     1      -9.005  12.204  67.320  1.00  0.00    -0.177 N  
HETATM    9  O   UNL     1      -6.989  11.501  68.282  1.00  0.00    -0.066 OA 
HETATM   10  C   UNL     1      -7.818  11.529  67.401  1.00  0.00    -0.143 C  
ENDROOT
BRANCH   4  11
HETATM   11  C   UNL     1     -10.711  13.658  68.241  1.00  0.00    -0.254 C  
HETATM   12  O   UNL     1     -11.454  13.832  67.283  1.00  0.00    -0.309 OA 
BRANCH  11  13
HETATM   13  O   UNL     1     -10.470  14.612  69.187  1.00  0.00    -0.240 OA 
BRANCH  13  14
HETATM   14  C   UNL     1     -11.453  15.660  69.202  1.00  0.00    -0.359 C  
HETATM   15  C   UNL     1     -12.425  15.466  70.355  1.00  0.00    -0.447 C  
BRANCH  14  16
HETATM   16  O   UNL     1     -10.796  16.914  69.432  1.00  0.00    -0.308 OA 
BRANCH  16  17
HETATM   17  C   UNL     1     -10.505  17.575  68.286  1.00  0.00    -0.383 C  
HETATM   18  O   UNL     1     -10.682  17.144  67.155  1.00  0.00    -0.284 OA 
BRANCH  17  19
HETATM   19  O   UNL     1      -9.876  18.730  68.609  1.00  0.00    -0.358 OA 
BRANCH  19  20
HETATM   20  C   UNL     1     -10.227  19.856  67.790  1.00  0.00    -0.429 C  
HETATM   21  C   UNL     1      -8.971  20.390  67.125  1.00  0.00    -0.453 C  
ENDBRANCH  19  20
ENDBRANCH  17  19
ENDBRANCH  16  17
ENDBRANCH  14  16
ENDBRANCH  13  14
ENDBRANCH  11  13
ENDBRANCH   4  11
BRANCH   7  22
HETATM   22  N   UNL     1      -8.054   9.217  66.294  1.00  0.00    -0.107 N  
HETATM   23  H   UNL     1      -7.697   8.830  67.168  1.00  0.00     0.000 HD 
HETATM   24  C   UNL     1      -8.438   8.357  65.287  1.00  0.00    -0.171 C  
HETATM   25  O   UNL     1      -8.782   8.754  64.176  1.00  0.00    -0.127 OA 
BRANCH  24  26
HETATM   26  C   UNL     1      -8.385   6.860  65.671  1.00  0.00    -0.146 C  
HETATM   27  N   UNL     1      -8.888   6.029  64.542  1.00  0.00    -0.339 NA 
HETATM   28  H2  UNL     1      -8.388   6.220  63.674  1.00  0.00     0.000 HD 
HETATM   29  H1  UNL     1      -8.854   5.041  64.795  1.00  0.00     0.000 HD 
BRANCH  26  30
HETATM   30  C   UNL     1      -9.128   6.586  66.966  1.00  0.00    -0.133 A  
HETATM   31  C   UNL     1     -10.533   6.585  66.970  1.00  0.00    -0.364 A  
HETATM   32  C   UNL     1     -11.245   6.349  68.147  1.00  0.00    -0.270 A  
HETATM   33  C   UNL     1     -10.564   6.101  69.338  1.00  0.00    -0.349 A  
HETATM   34  C   UNL     1      -9.172   6.076  69.347  1.00  0.00    -0.140 A  
HETATM   35  C   UNL     1      -8.458   6.308  68.169  1.00  0.00    -0.114 A  
ENDBRANCH  26  30
ENDBRANCH  24  26
ENDBRANCH   7  22
TORSDOF 10
ENDMDL
MODEL       69
REMARK 921   NORMALIZED FREE ENERGY PREDICTED BY IDOCK:   -5.26 KCAL/MOL
REMARK 922        TOTAL FREE ENERGY PREDICTED BY IDOCK:   -9.60 KCAL/MOL
REMARK 923 INTER-LIGAND FREE ENERGY PREDICTED BY IDOCK:   -9.02 KCAL/MOL
REMARK 924 INTRA-LIGAND FREE ENERGY PREDICTED BY IDOCK:   -0.58 KCAL/MOL
REMARK 927      BINDING AFFINITY PREDICTED BY RF-SCORE:    0.00 PKD
ROOT
HETATM    1  C   UNL     1      -9.176  11.965  67.011  1.00  0.00    -0.191 C  
HETATM    2  S   UNL     1      -9.187  11.863  68.859  1.00  0.00     0.262 SA 
HETATM    3  C   UNL     1     -10.585  10.653  68.923  1.00  0.00    -0.212 C  
HETATM    4  C   UNL     1     -10.638  10.003  67.525  1.00  0.00    -0.280 C  
HETATM    5  C   UNL     1     -10.379   9.671  70.077  1.00  0.00    -0.298 C  
HETATM    6  C   UNL     1     -11.866  11.460  69.228  1.00  0.00    -0.417 C  
HETATM    7  C   UNL     1     -10.000  13.104  66.347  1.00  0.00    -0.282 C  
HETATM    8  N   UNL     1     -10.218  11.024  66.565  1.00  0.00    -0.226 N  
HETATM    9  O   UNL     1     -12.270  11.978  65.959  1.00  0.00    -0.546 OA 
HETATM   10  C   UNL     1     -11.076  12.008  66.156  1.00  0.00    -0.322 C  
ENDROOT
BRANCH   4  11
HETATM   11  C   UNL     1      -9.743   8.766  67.304  1.00  0.00    -0.183 C  
HETATM   12  O   UNL     1      -8.572   8.651  67.645  1.00  0.00    -0.133 OA 
BRANCH  11  13
HETATM   13  O   UNL     1     -10.408   7.823  66.575  1.00  0.00    -0.234 OA 
BRANCH  13  14
HETATM   14  C   UNL     1     -10.822   6.689  67.354  1.00  0.00    -0.363 C  
HETATM   15  C   UNL     1     -10.597   5.398  66.584  1.00  0.00    -0.359 C  
BRANCH  14  16
HETATM   16  O   UNL     1     -10.007   6.607  68.531  1.00  0.00    -0.143 OA 
BRANCH  16  17
HETATM   17  C   UNL     1     -10.643   6.024  69.575  1.00  0.00    -0.296 C  
HETATM   18  O   UNL     1     -11.805   6.226  69.899  1.00  0.00    -0.340 OA 
BRANCH  17  19
HETATM   19  O   UNL     1      -9.742   5.285  70.264  1.00  0.00    -0.168 OA 
BRANCH  19  20
HETATM   20  C   UNL     1     -10.039   5.121  71.659  1.00  0.00    -0.200 C  
HETATM   21  C   UNL     1      -8.919   5.743  72.476  1.00  0.00    -0.133 C  
ENDBRANCH  19  20
ENDBRANCH  17  19
ENDBRANCH  16  17
ENDBRANCH  14  16
ENDBRANCH  13  14
ENDBRANCH  11  13
ENDBRANCH   4  11
BRANCH   7  22
HETATM   22  N   UNL     1     -10.379  14.257  67.197  1.00  0.00    -0.261 N  
HETATM   23  H   UNL     1     -11.331  14.315  67.557  1.00  0.00     0.000 HD 
HETATM   24  C   UNL     1      -9.480  15.254  67.515  1.00  0.00    -0.202 C  
HETATM   25  O   UNL     1      -8.349  15.299  67.036  1.00  0.00    -0.201 OA 
BRANCH  24  26
HETATM   26  C   UNL     1     -10.021  16.309  68.508  1.00  0.00    -0.234 C  
HETATM   27  N   UNL     1     -11.367  15.902  68.999  1.00  0.00    -0.347 NA 
HETATM   28  H2  UNL     1     -11.360  14.964  69.402  1.00  0.00     0.000 HD 
HETATM   29  H1  UNL     1     -11.724  16.598  69.653  1.00  0.00     0.000 HD 
BRANCH  26  30
HETATM   30  C   UNL     1     -10.024  17.700  67.902  1.00  0.00    -0.323 A  
HETATM   31  C   UNL     1     -10.401  17.869  66.559  1.00  0.00    -0.362 A  
HETATM   32  C   UNL     1     -10.402  19.134  65.969  1.00  0.00    -0.538 A  
HETATM   33  C   UNL     1     -10.033  20.252  66.714  1.00  0.00    -0.587 A  
HETATM   34  C   UNL     1      -9.677  20.106  68.053  1.00  0.00    -0.464 A  
HETATM   35  C   UNL     1      -9.680  18.842  68.646  1.00  0.00    -0.437 A  
ENDBRANCH  26  30
ENDBRANCH  24  26
ENDBRANCH   7  22
TORSDOF 10
ENDMDL
MODEL       70
REMARK 921   NORMALIZED FREE ENERGY PREDICTED BY IDOCK:   -5.26 KCAL/MOL
REMARK 922        TOTAL FREE ENERGY PREDICTED BY IDOCK:   -9.59 KCAL/MOL
REMARK 923 INTER-LIGAND FREE ENERGY PREDICTED BY IDOCK:   -8.63 KCAL/MOL
REMARK 924 INTRA-LIGAND FREE ENERGY PREDICTED BY IDOCK:   -0.96 KCAL/MOL
REMARK 927      BINDING AFFINITY PREDICTED BY RF-SCORE:    0.00 PKD
ROOT
HETATM    1  C   UNL     1      -9.911  12.865  66.635  1.00  0.00    -0.250 C  
HETATM    2  S   UNL     1     -11.646  12.220  66.634  1.00  0.00    -0.350 SA 
HETATM    3  C   UNL     1     -12.000  12.777  64.905  1.00  0.00    -0.402 C  
HETATM    4  C   UNL     1     -10.622  12.974  64.240  1.00  0.00    -0.412 C  
HETATM    5  C   UNL     1     -12.910  11.768  64.203  1.00  0.00    -0.070 C  
HETATM    6  C   UNL     1     -12.780  14.105  65.011  1.00  0.00    -0.336 C  
HETATM    7  C   UNL     1      -9.673  14.292  67.202  1.00  0.00    -0.254 C  
HETATM    8  N   UNL     1      -9.705  13.424  65.287  1.00  0.00    -0.056 N  
HETATM    9  O   UNL     1      -9.882  15.752  65.105  1.00  0.00    -0.365 OA 
HETATM   10  C   UNL     1      -9.701  14.723  65.716  1.00  0.00    -0.313 C  
ENDROOT
BRANCH   4  11
HETATM   11  C   UNL     1      -9.992  11.732  63.576  1.00  0.00    -0.408 C  
HETATM   12  O   UNL     1     -10.340  11.224  62.517  1.00  0.00     0.100 OA 
BRANCH  11  13
HETATM   13  O   UNL     1      -9.034  11.196  64.387  1.00  0.00    -0.107 OA 
BRANCH  13  14
HETATM   14  C   UNL     1      -9.331   9.855  64.809  1.00  0.00    -0.278 C  
HETATM   15  C   UNL     1      -8.616   8.844  63.925  1.00  0.00    -0.110 C  
BRANCH  14  16
HETATM   16  O   UNL     1      -8.827   9.660  66.137  1.00  0.00    -0.142 OA 
BRANCH  16  17
HETATM   17  C   UNL     1      -9.672   8.951  66.923  1.00  0.00    -0.202 C  
HETATM   18  O   UNL     1     -10.862   8.771  66.704  1.00  0.00    -0.079 OA 
BRANCH  17  19
HETATM   19  O   UNL     1      -9.006   8.587  68.045  1.00  0.00    -0.140 OA 
BRANCH  19  20
HETATM   20  C   UNL     1      -9.822   8.481  69.222  1.00  0.00    -0.185 C  
HETATM   21  C   UNL     1      -9.932   9.850  69.868  1.00  0.00    -0.292 C  
ENDBRANCH  19  20
ENDBRANCH  17  19
ENDBRANCH  16  17
ENDBRANCH  14  16
ENDBRANCH  13  14
ENDBRANCH  11  13
ENDBRANCH   4  11
BRANCH   7  22
HETATM   22  N   UNL     1     -10.727  14.865  68.072  1.00  0.00    -0.248 N  
HETATM   23  H   UNL     1     -11.681  14.931  67.717  1.00  0.00     0.000 HD 
HETATM   24  C   UNL     1     -10.455  15.311  69.348  1.00  0.00    -0.251 C  
HETATM   25  O   UNL     1      -9.313  15.353  69.803  1.00  0.00    -0.253 OA 
BRANCH  24  26
HETATM   26  C   UNL     1     -11.700  15.763  70.147  1.00  0.00    -0.356 C  
HETATM   27  N   UNL     1     -11.323  16.834  71.110  1.00  0.00    -0.357 NA 
HETATM   28  H2  UNL     1     -10.858  17.617  70.650  1.00  0.00     0.000 HD 
HETATM   29  H1  UNL     1     -12.144  17.133  71.637  1.00  0.00     0.000 HD 
BRANCH  26  30
HETATM   30  C   UNL     1     -12.388  14.592  70.824  1.00  0.00    -0.398 A  
HETATM   31  C   UNL     1     -12.025  13.281  70.474  1.00  0.00    -0.319 A  
HETATM   32  C   UNL     1     -12.648  12.183  71.071  1.00  0.00    -0.359 A  
HETATM   33  C   UNL     1     -13.638  12.378  72.032  1.00  0.00    -0.349 A  
HETATM   34  C   UNL     1     -13.994  13.671  72.407  1.00  0.00    -0.651 A  
HETATM   35  C   UNL     1     -13.368  14.771  71.814  1.00  0.00    -0.444 A  
ENDBRANCH  26  30
ENDBRANCH  24  26
ENDBRANCH   7  22
TORSDOF 10
ENDMDL
MODEL       71
REMARK 921   NORMALIZED FREE ENERGY PREDICTED BY IDOCK:   -5.24 KCAL/MOL
REMARK 922        TOTAL FREE ENERGY PREDICTED BY IDOCK:   -9.57 KCAL/MOL
REMARK 923 INTER-LIGAND FREE ENERGY PREDICTED BY IDOCK:   -8.32 KCAL/MOL
REMARK 924 INTRA-LIGAND FREE ENERGY PREDICTED BY IDOCK:   -1.24 KCAL/MOL
REMARK 927      BINDING AFFINITY PREDICTED BY RF-SCORE:    0.00 PKD
ROOT
HETATM    1  C   UNL     1      -8.780  12.521  67.737  1.00  0.00    -0.178 C  
HETATM    2  S   UNL     1     -10.092  12.999  68.952  1.00  0.00     0.148 SA 
HETATM    3  C   UNL     1     -10.985  11.382  68.837  1.00  0.00    -0.226 C  
HETATM    4  C   UNL     1      -9.960  10.381  68.265  1.00  0.00    -0.151 C  
HETATM    5  C   UNL     1     -11.560  11.000  70.201  1.00  0.00    -0.421 C  
HETATM    6  C   UNL     1     -12.176  11.594  67.877  1.00  0.00     0.338 C  
HETATM    7  C   UNL     1      -8.999  12.915  66.249  1.00  0.00     0.083 C  
HETATM    8  N   UNL     1      -9.091  11.131  67.358  1.00  0.00    -0.142 N  
HETATM    9  O   UNL     1     -10.186  10.847  65.307  1.00  0.00    -0.264 OA 
HETATM   10  C   UNL     1      -9.499  11.458  66.094  1.00  0.00    -0.216 C  
ENDROOT
BRANCH   4  11
HETATM   11  C   UNL     1      -9.053   9.663  69.286  1.00  0.00    -0.172 C  
HETATM   12  O   UNL     1      -8.225  10.194  70.016  1.00  0.00    -0.160 OA 
BRANCH  11  13
HETATM   13  O   UNL     1      -9.225   8.311  69.204  1.00  0.00    -0.150 OA 
BRANCH  13  14
HETATM   14  C   UNL     1     -10.186   7.802  70.143  1.00  0.00    -0.205 C  
HETATM   15  C   UNL     1     -11.097   6.781  69.478  1.00  0.00    -0.324 C  
BRANCH  14  16
HETATM   16  O   UNL     1      -9.495   7.108  71.190  1.00  0.00    -0.158 OA 
BRANCH  16  17
HETATM   17  C   UNL     1      -9.646   7.694  72.401  1.00  0.00    -0.168 C  
HETATM   18  O   UNL     1      -8.980   8.628  72.825  1.00  0.00    -0.356 OA 
BRANCH  17  19
HETATM   19  O   UNL     1     -10.568   6.992  73.102  1.00  0.00    -0.259 OA 
BRANCH  19  20
HETATM   20  C   UNL     1     -10.057   5.834  73.778  1.00  0.00    -0.216 C  
HETATM   21  C   UNL     1     -10.855   4.617  73.341  1.00  0.00    -0.349 C  
ENDBRANCH  19  20
ENDBRANCH  17  19
ENDBRANCH  16  17
ENDBRANCH  14  16
ENDBRANCH  13  14
ENDBRANCH  11  13
ENDBRANCH   4  11
BRANCH   7  22
HETATM   22  N   UNL     1      -9.986  13.983  65.964  1.00  0.00    -0.308 N  
HETATM   23  H   UNL     1     -10.961  13.726  65.804  1.00  0.00     0.000 HD 
HETATM   24  C   UNL     1      -9.625  15.312  65.908  1.00  0.00    -0.342 C  
HETATM   25  O   UNL     1      -8.456  15.682  65.992  1.00  0.00    -0.169 OA 
BRANCH  24  26
HETATM   26  C   UNL     1     -10.809  16.289  65.719  1.00  0.00    -0.169 C  
HETATM   27  N   UNL     1     -11.075  16.489  64.267  1.00  0.00    -1.300 NA 
HETATM   28  H2  UNL     1     -11.226  15.605  63.781  1.00  0.00     0.000 HD 
HETATM   29  H1  UNL     1     -11.856  17.133  64.142  1.00  0.00     0.000 HD 
BRANCH  26  30
HETATM   30  C   UNL     1     -10.578  17.599  66.449  1.00  0.00    -0.208 A  
HETATM   31  C   UNL     1     -10.469  18.791  65.714  1.00  0.00    -0.317 A  
HETATM   32  C   UNL     1     -10.244  20.010  66.356  1.00  0.00    -0.598 A  
HETATM   33  C   UNL     1     -10.132  20.059  67.744  1.00  0.00    -0.563 A  
HETATM   34  C   UNL     1     -10.260  18.890  68.490  1.00  0.00    -0.407 A  
HETATM   35  C   UNL     1     -10.489  17.670  67.850  1.00  0.00    -0.392 A  
ENDBRANCH  26  30
ENDBRANCH  24  26
ENDBRANCH   7  22
TORSDOF 10
ENDMDL
MODEL       72
REMARK 921   NORMALIZED FREE ENERGY PREDICTED BY IDOCK:   -5.24 KCAL/MOL
REMARK 922        TOTAL FREE ENERGY PREDICTED BY IDOCK:   -9.56 KCAL/MOL
REMARK 923 INTER-LIGAND FREE ENERGY PREDICTED BY IDOCK:   -8.83 KCAL/MOL
REMARK 924 INTRA-LIGAND FREE ENERGY PREDICTED BY IDOCK:   -0.73 KCAL/MOL
REMARK 927      BINDING AFFINITY PREDICTED BY RF-SCORE:    0.00 PKD
ROOT
HETATM    1  C   UNL     1      -9.239  13.777  67.140  1.00  0.00    -0.243 C  
HETATM    2  S   UNL     1      -9.506  14.349  68.879  1.00  0.00    -0.041 SA 
HETATM    3  C   UNL     1     -11.349  14.406  68.726  1.00  0.00    -0.273 C  
HETATM    4  C   UNL     1     -11.694  13.505  67.523  1.00  0.00    -0.367 C  
HETATM    5  C   UNL     1     -12.000  13.989  70.045  1.00  0.00    -0.404 C  
HETATM    6  C   UNL     1     -11.735  15.879  68.467  1.00  0.00    -0.297 C  
HETATM    7  C   UNL     1      -8.969  14.861  66.058  1.00  0.00     0.060 C  
HETATM    8  N   UNL     1     -10.589  13.622  66.572  1.00  0.00    -0.280 N  
HETATM    9  O   UNL     1     -11.330  15.368  65.197  1.00  0.00    -0.340 OA 
HETATM   10  C   UNL     1     -10.478  14.707  65.746  1.00  0.00    -0.325 C  
ENDROOT
BRANCH   4  11
HETATM   11  C   UNL     1     -11.891  12.003  67.820  1.00  0.00    -0.238 C  
HETATM   12  O   UNL     1     -12.599  11.527  68.699  1.00  0.00    -0.162 OA 
BRANCH  11  13
HETATM   13  O   UNL     1     -11.080  11.251  67.020  1.00  0.00    -0.286 OA 
BRANCH  13  14
HETATM   14  C   UNL     1     -10.683  10.008  67.620  1.00  0.00    -0.284 C  
HETATM   15  C   UNL     1     -10.057   9.088  66.584  1.00  0.00    -0.355 C  
BRANCH  14  16
HETATM   16  O   UNL     1      -9.669  10.264  68.601  1.00  0.00    -0.155 OA 
BRANCH  16  17
HETATM   17  C   UNL     1      -9.538   9.259  69.500  1.00  0.00    -0.173 C  
HETATM   18  O   UNL     1      -8.498   8.668  69.755  1.00  0.00    -0.123 OA 
BRANCH  17  19
HETATM   19  O   UNL     1     -10.769   8.943  69.967  1.00  0.00    -0.222 OA 
BRANCH  19  20
HETATM   20  C   UNL     1     -11.113   9.555  71.219  1.00  0.00    -0.379 C  
HETATM   21  C   UNL     1     -12.613   9.438  71.427  1.00  0.00    -0.430 C  
ENDBRANCH  19  20
ENDBRANCH  17  19
ENDBRANCH  16  17
ENDBRANCH  14  16
ENDBRANCH  13  14
ENDBRANCH  11  13
ENDBRANCH   4  11
BRANCH   7  22
HETATM   22  N   UNL     1      -8.527  16.196  66.524  1.00  0.00    -0.282 N  
HETATM   23  H   UNL     1      -9.185  16.975  66.490  1.00  0.00     0.000 HD 
HETATM   24  C   UNL     1      -7.253  16.415  67.003  1.00  0.00    -0.222 C  
HETATM   25  O   UNL     1      -6.382  15.547  66.980  1.00  0.00    -0.287 OA 
BRANCH  24  26
HETATM   26  C   UNL     1      -7.013  17.839  67.554  1.00  0.00    -0.177 C  
HETATM   27  N   UNL     1      -6.372  17.763  68.896  1.00  0.00    -0.202 NA 
HETATM   28  H2  UNL     1      -5.515  17.209  68.879  1.00  0.00     0.000 HD 
HETATM   29  H1  UNL     1      -6.213  18.703  69.260  1.00  0.00     0.000 HD 
BRANCH  26  30
HETATM   30  C   UNL     1      -8.292  18.657  67.571  1.00  0.00    -0.279 A  
HETATM   31  C   UNL     1      -8.694  19.335  66.409  1.00  0.00    -0.362 A  
HETATM   32  C   UNL     1      -9.859  20.105  66.396  1.00  0.00    -0.560 A  
HETATM   33  C   UNL     1     -10.644  20.203  67.543  1.00  0.00    -0.336 A  
HETATM   34  C   UNL     1     -10.271  19.520  68.698  1.00  0.00    -0.481 A  
HETATM   35  C   UNL     1      -9.109  18.746  68.711  1.00  0.00    -0.329 A  
ENDBRANCH  26  30
ENDBRANCH  24  26
ENDBRANCH   7  22
TORSDOF 10
ENDMDL
MODEL       73
REMARK 921   NORMALIZED FREE ENERGY PREDICTED BY IDOCK:   -5.24 KCAL/MOL
REMARK 922        TOTAL FREE ENERGY PREDICTED BY IDOCK:   -9.56 KCAL/MOL
REMARK 923 INTER-LIGAND FREE ENERGY PREDICTED BY IDOCK:   -8.34 KCAL/MOL
REMARK 924 INTRA-LIGAND FREE ENERGY PREDICTED BY IDOCK:   -1.23 KCAL/MOL
REMARK 927      BINDING AFFINITY PREDICTED BY RF-SCORE:    0.00 PKD
ROOT
HETATM    1  C   UNL     1     -11.577  12.487  66.773  1.00  0.00    -0.382 C  
HETATM    2  S   UNL     1      -9.968  12.269  65.885  1.00  0.00    -0.254 SA 
HETATM    3  C   UNL     1      -9.046  11.731  67.397  1.00  0.00    -0.175 C  
HETATM    4  C   UNL     1     -10.123  11.259  68.395  1.00  0.00    -0.195 C  
HETATM    5  C   UNL     1      -8.006  10.671  67.031  1.00  0.00    -0.121 C  
HETATM    6  C   UNL     1      -8.281  12.966  67.921  1.00  0.00    -0.165 C  
HETATM    7  C   UNL     1     -11.918  13.906  67.308  1.00  0.00    -0.411 C  
HETATM    8  N   UNL     1     -11.308  12.085  68.165  1.00  0.00    -0.267 N  
HETATM    9  O   UNL     1     -10.972  13.832  69.690  1.00  0.00    -0.119 OA 
HETATM   10  C   UNL     1     -11.390  13.360  68.657  1.00  0.00    -0.286 C  
ENDROOT
BRANCH   4  11
HETATM   11  C   UNL     1     -10.562   9.783  68.291  1.00  0.00    -0.229 C  
HETATM   12  O   UNL     1     -10.976   9.222  67.284  1.00  0.00    -0.166 OA 
BRANCH  11  13
HETATM   13  O   UNL     1     -10.521   9.189  69.519  1.00  0.00    -0.209 OA 
BRANCH  13  14
HETATM   14  C   UNL     1      -9.576   8.110  69.598  1.00  0.00    -0.168 C  
HETATM   15  C   UNL     1      -8.215   8.620  70.047  1.00  0.00    -0.122 C  
BRANCH  14  16
HETATM   16  O   UNL     1     -10.010   7.179  70.599  1.00  0.00    -0.190 OA 
BRANCH  16  17
HETATM   17  C   UNL     1     -11.122   6.495  70.236  1.00  0.00    -0.335 C  
HETATM   18  O   UNL     1     -11.348   6.052  69.119  1.00  0.00    -0.364 OA 
BRANCH  17  19
HETATM   19  O   UNL     1     -11.984   6.500  71.280  1.00  0.00    -0.336 OA 
BRANCH  19  20
HETATM   20  C   UNL     1     -13.165   7.292  71.082  1.00  0.00    -0.205 C  
HETATM   21  C   UNL     1     -13.043   8.568  71.896  1.00  0.00    -0.391 C  
ENDBRANCH  19  20
ENDBRANCH  17  19
ENDBRANCH  16  17
ENDBRANCH  14  16
ENDBRANCH  13  14
ENDBRANCH  11  13
ENDBRANCH   4  11
BRANCH   7  22
HETATM   22  N   UNL     1     -11.178  15.051  66.727  1.00  0.00    -0.339 N  
HETATM   23  H   UNL     1     -10.694  14.927  65.838  1.00  0.00     0.000 HD 
HETATM   24  C   UNL     1     -11.125  16.277  67.355  1.00  0.00    -0.095 C  
HETATM   25  O   UNL     1     -11.599  16.467  68.473  1.00  0.00    -0.252 OA 
BRANCH  24  26
HETATM   26  C   UNL     1     -10.408  17.381  66.541  1.00  0.00    -0.312 C  
HETATM   27  N   UNL     1     -10.487  17.071  65.087  1.00  0.00    -0.655 NA 
HETATM   28  H2  UNL     1     -11.449  16.930  64.777  1.00  0.00     0.000 HD 
HETATM   29  H1  UNL     1     -10.014  17.799  64.550  1.00  0.00     0.000 HD 
BRANCH  26  30
HETATM   30  C   UNL     1      -8.980  17.587  67.012  1.00  0.00    -0.250 A  
HETATM   31  C   UNL     1      -8.684  18.654  67.877  1.00  0.00    -0.309 A  
HETATM   32  C   UNL     1      -7.378  18.877  68.318  1.00  0.00    -0.306 A  
HETATM   33  C   UNL     1      -6.349  18.032  67.907  1.00  0.00    -0.181 A  
HETATM   34  C   UNL     1      -6.628  16.957  67.068  1.00  0.00    -0.241 A  
HETATM   35  C   UNL     1      -7.935  16.730  66.630  1.00  0.00    -0.306 A  
ENDBRANCH  26  30
ENDBRANCH  24  26
ENDBRANCH   7  22
TORSDOF 10
ENDMDL
MODEL       74
REMARK 921   NORMALIZED FREE ENERGY PREDICTED BY IDOCK:   -5.21 KCAL/MOL
REMARK 922        TOTAL FREE ENERGY PREDICTED BY IDOCK:   -9.52 KCAL/MOL
REMARK 923 INTER-LIGAND FREE ENERGY PREDICTED BY IDOCK:   -8.20 KCAL/MOL
REMARK 924 INTRA-LIGAND FREE ENERGY PREDICTED BY IDOCK:   -1.32 KCAL/MOL
REMARK 927      BINDING AFFINITY PREDICTED BY RF-SCORE:    0.00 PKD
ROOT
HETATM    1  C   UNL     1     -10.859  10.618  67.460  1.00  0.00    -0.296 C  
HETATM    2  S   UNL     1     -10.406  10.155  65.726  1.00  0.00    -0.069 SA 
HETATM    3  C   UNL     1      -8.751   9.471  66.191  1.00  0.00    -0.145 C  
HETATM    4  C   UNL     1      -8.836   9.168  67.701  1.00  0.00    -0.120 C  
HETATM    5  C   UNL     1      -8.415   8.264  65.314  1.00  0.00    -0.179 C  
HETATM    6  C   UNL     1      -7.708  10.568  65.885  1.00  0.00    -0.148 C  
HETATM    7  C   UNL     1     -10.551  12.069  67.922  1.00  0.00    -0.202 C  
HETATM    8  N   UNL     1      -9.724  10.171  68.288  1.00  0.00    -0.139 N  
HETATM    9  O   UNL     1      -8.205  11.834  68.929  1.00  0.00    -0.073 OA 
HETATM   10  C   UNL     1      -9.285  11.439  68.552  1.00  0.00    -0.174 C  
ENDROOT
BRANCH   4  11
HETATM   11  C   UNL     1      -9.380   7.779  68.097  1.00  0.00    -0.145 C  
HETATM   12  O   UNL     1     -10.314   7.191  67.565  1.00  0.00    -0.191 OA 
BRANCH  11  13
HETATM   13  O   UNL     1      -8.736   7.316  69.207  1.00  0.00    -0.136 OA 
BRANCH  13  14
HETATM   14  C   UNL     1      -9.626   6.763  70.191  1.00  0.00    -0.161 C  
HETATM   15  C   UNL     1      -8.875   5.827  71.126  1.00  0.00    -0.139 C  
BRANCH  14  16
HETATM   16  O   UNL     1     -10.140   7.825  71.006  1.00  0.00    -0.186 OA 
BRANCH  16  17
HETATM   17  C   UNL     1     -11.473   7.725  71.225  1.00  0.00    -0.269 C  
HETATM   18  O   UNL     1     -12.213   6.892  70.720  1.00  0.00    -0.381 OA 
BRANCH  17  19
HETATM   19  O   UNL     1     -11.859   8.774  71.989  1.00  0.00    -0.333 OA 
BRANCH  19  20
HETATM   20  C   UNL     1     -13.009   9.483  71.503  1.00  0.00    -0.386 C  
HETATM   21  C   UNL     1     -12.569  10.848  71.003  1.00  0.00    -0.517 C  
ENDBRANCH  19  20
ENDBRANCH  17  19
ENDBRANCH  16  17
ENDBRANCH  14  16
ENDBRANCH  13  14
ENDBRANCH  11  13
ENDBRANCH   4  11
BRANCH   7  22
HETATM   22  N   UNL     1     -10.324  13.087  66.870  1.00  0.00    -0.244 N  
HETATM   23  H   UNL     1      -9.525  12.983  66.244  1.00  0.00     0.000 HD 
HETATM   24  C   UNL     1     -11.162  14.171  66.712  1.00  0.00    -0.323 C  
HETATM   25  O   UNL     1     -12.083  14.411  67.491  1.00  0.00    -0.377 OA 
BRANCH  24  26
HETATM   26  C   UNL     1     -10.837  15.058  65.488  1.00  0.00    -0.351 C  
HETATM   27  N   UNL     1     -10.283  14.222  64.388  1.00  0.00    -0.631 NA 
HETATM   28  H2  UNL     1     -10.903  13.448  64.146  1.00  0.00     0.000 HD 
HETATM   29  H1  UNL     1     -10.068  14.807  63.580  1.00  0.00     0.000 HD 
BRANCH  26  30
HETATM   30  C   UNL     1      -9.918  16.209  65.858  1.00  0.00    -0.384 A  
HETATM   31  C   UNL     1     -10.446  17.505  65.974  1.00  0.00    -0.274 A  
HETATM   32  C   UNL     1      -9.625  18.586  66.301  1.00  0.00    -0.279 A  
HETATM   33  C   UNL     1      -8.264  18.386  66.524  1.00  0.00    -0.289 A  
HETATM   34  C   UNL     1      -7.728  17.104  66.435  1.00  0.00    -0.345 A  
HETATM   35  C   UNL     1      -8.549  16.022  66.113  1.00  0.00    -0.315 A  
ENDBRANCH  26  30
ENDBRANCH  24  26
ENDBRANCH   7  22
TORSDOF 10
ENDMDL
MODEL       75
REMARK 921   NORMALIZED FREE ENERGY PREDICTED BY IDOCK:   -5.21 KCAL/MOL
REMARK 922        TOTAL FREE ENERGY PREDICTED BY IDOCK:   -9.52 KCAL/MOL
REMARK 923 INTER-LIGAND FREE ENERGY PREDICTED BY IDOCK:   -9.00 KCAL/MOL
REMARK 924 INTRA-LIGAND FREE ENERGY PREDICTED BY IDOCK:   -0.51 KCAL/MOL
REMARK 927      BINDING AFFINITY PREDICTED BY RF-SCORE:    0.00 PKD
ROOT
HETATM    1  C   UNL     1     -10.738  11.537  67.425  1.00  0.00    -0.232 C  
HETATM    2  S   UNL     1     -12.029  12.140  66.243  1.00  0.00     0.062 SA 
HETATM    3  C   UNL     1     -10.826  12.460  64.874  1.00  0.00    -0.297 C  
HETATM    4  C   UNL     1      -9.578  11.619  65.212  1.00  0.00    -0.197 C  
HETATM    5  C   UNL     1     -11.467  12.138  63.524  1.00  0.00    -0.544 C  
HETATM    6  C   UNL     1     -10.518  13.973  64.890  1.00  0.00    -0.453 C  
HETATM    7  C   UNL     1     -10.121  12.573  68.407  1.00  0.00    -0.216 C  
HETATM    8  N   UNL     1      -9.474  11.578  66.671  1.00  0.00    -0.188 N  
HETATM    9  O   UNL     1      -8.083  13.414  67.098  1.00  0.00    -0.163 OA 
HETATM   10  C   UNL     1      -8.969  12.637  67.375  1.00  0.00    -0.190 C  
ENDROOT
BRANCH   4  11
HETATM   11  C   UNL     1      -9.571  10.161  64.707  1.00  0.00    -0.314 C  
HETATM   12  O   UNL     1      -9.481   9.801  63.540  1.00  0.00    -0.212 OA 
BRANCH  11  13
HETATM   13  O   UNL     1      -9.780   9.299  65.745  1.00  0.00    -0.278 OA 
BRANCH  13  14
HETATM   14  C   UNL     1      -8.787   8.264  65.834  1.00  0.00    -0.160 C  
HETATM   15  C   UNL     1      -7.391   8.864  65.900  1.00  0.00    -0.093 C  
BRANCH  14  16
HETATM   16  O   UNL     1      -8.975   7.539  67.056  1.00  0.00    -0.123 OA 
BRANCH  16  17
HETATM   17  C   UNL     1     -10.278   7.433  67.412  1.00  0.00    -0.246 C  
HETATM   18  O   UNL     1     -11.135   6.822  66.789  1.00  0.00    -0.338 OA 
BRANCH  17  19
HETATM   19  O   UNL     1     -10.489   8.218  68.495  1.00  0.00    -0.207 OA 
BRANCH  19  20
HETATM   20  C   UNL     1      -9.379   8.305  69.401  1.00  0.00    -0.155 C  
HETATM   21  C   UNL     1      -9.637   9.431  70.387  1.00  0.00    -0.319 C  
ENDBRANCH  19  20
ENDBRANCH  17  19
ENDBRANCH  16  17
ENDBRANCH  14  16
ENDBRANCH  13  14
ENDBRANCH  11  13
ENDBRANCH   4  11
BRANCH   7  22
HETATM   22  N   UNL     1     -10.871  13.830  68.634  1.00  0.00    -0.256 N  
HETATM   23  H   UNL     1     -11.820  13.913  68.269  1.00  0.00     0.000 HD 
HETATM   24  C   UNL     1     -10.323  14.890  69.324  1.00  0.00    -0.234 C  
HETATM   25  O   UNL     1      -9.154  14.897  69.703  1.00  0.00    -0.054 OA 
BRANCH  24  26
HETATM   26  C   UNL     1     -11.297  16.068  69.565  1.00  0.00    -0.344 C  
HETATM   27  N   UNL     1     -10.535  17.343  69.668  1.00  0.00    -0.237 NA 
HETATM   28  H2  UNL     1      -9.938  17.499  68.855  1.00  0.00     0.000 HD 
HETATM   29  H1  UNL     1     -11.176  18.120  69.827  1.00  0.00     0.000 HD 
BRANCH  26  30
HETATM   30  C   UNL     1     -12.183  15.825  70.773  1.00  0.00    -0.441 A  
HETATM   31  C   UNL     1     -11.785  16.309  72.031  1.00  0.00    -0.528 A  
HETATM   32  C   UNL     1     -12.573  16.092  73.163  1.00  0.00    -0.625 A  
HETATM   33  C   UNL     1     -13.773  15.393  73.055  1.00  0.00    -0.482 A  
HETATM   34  C   UNL     1     -14.193  14.925  71.812  1.00  0.00    -0.635 A  
HETATM   35  C   UNL     1     -13.409  15.146  70.678  1.00  0.00    -0.304 A  
ENDBRANCH  26  30
ENDBRANCH  24  26
ENDBRANCH   7  22
TORSDOF 10
ENDMDL
MODEL       76
REMARK 921   NORMALIZED FREE ENERGY PREDICTED BY IDOCK:   -5.20 KCAL/MOL
REMARK 922        TOTAL FREE ENERGY PREDICTED BY IDOCK:   -9.50 KCAL/MOL
REMARK 923 INTER-LIGAND FREE ENERGY PREDICTED BY IDOCK:   -8.73 KCAL/MOL
REMARK 924 INTRA-LIGAND FREE ENERGY PREDICTED BY IDOCK:   -0.77 KCAL/MOL
REMARK 927      BINDING AFFINITY PREDICTED BY RF-SCORE:    0.00 PKD
ROOT
HETATM    1  C   UNL     1      -9.978  10.379  69.024  1.00  0.00    -0.214 C  
HETATM    2  S   UNL     1      -8.142  10.588  69.136  1.00  0.00    -0.142 SA 
HETATM    3  C   UNL     1      -7.890  10.585  67.302  1.00  0.00    -0.107 C  
HETATM    4  C   UNL     1      -9.263  10.933  66.693  1.00  0.00    -0.168 C  
HETATM    5  C   UNL     1      -6.761  11.546  66.925  1.00  0.00    -0.139 C  
HETATM    6  C   UNL     1      -7.434   9.162  66.913  1.00  0.00    -0.091 C  
HETATM    7  C   UNL     1     -10.544   8.933  69.095  1.00  0.00    -0.195 C  
HETATM    8  N   UNL     1     -10.279  10.369  67.582  1.00  0.00    -0.190 N  
HETATM    9  O   UNL     1     -10.631   8.261  66.623  1.00  0.00    -0.268 OA 
HETATM   10  C   UNL     1     -10.586   9.036  67.551  1.00  0.00    -0.237 C  
ENDROOT
BRANCH   4  11
HETATM   11  C   UNL     1      -9.582  12.433  66.520  1.00  0.00    -0.240 C  
HETATM   12  O   UNL     1      -8.866  13.367  66.859  1.00  0.00    -0.220 OA 
BRANCH  11  13
HETATM   13  O   UNL     1     -10.840  12.595  66.015  1.00  0.00    -0.269 OA 
BRANCH  13  14
HETATM   14  C   UNL     1     -10.885  13.457  64.866  1.00  0.00    -0.352 C  
HETATM   15  C   UNL     1     -11.408  12.705  63.652  1.00  0.00    -0.544 C  
BRANCH  14  16
HETATM   16  O   UNL     1     -11.813  14.521  65.116  1.00  0.00    -0.359 OA 
BRANCH  16  17
HETATM   17  C   UNL     1     -11.383  15.717  64.647  1.00  0.00    -0.349 C  
HETATM   18  O   UNL     1     -11.984  16.425  63.852  1.00  0.00    -1.023 OA 
BRANCH  17  19
HETATM   19  O   UNL     1     -10.128  15.929  65.110  1.00  0.00    -0.451 OA 
BRANCH  19  20
HETATM   20  C   UNL     1      -9.998  17.035  66.015  1.00  0.00    -0.269 C  
HETATM   21  C   UNL     1      -8.547  17.147  66.450  1.00  0.00    -0.300 C  
ENDBRANCH  19  20
ENDBRANCH  17  19
ENDBRANCH  16  17
ENDBRANCH  14  16
ENDBRANCH  13  14
ENDBRANCH  11  13
ENDBRANCH   4  11
BRANCH   7  22
HETATM   22  N   UNL     1      -9.665   7.883  69.660  1.00  0.00    -0.172 N  
HETATM   23  H   UNL     1      -8.725   8.136  69.965  1.00  0.00     0.000 HD 
HETATM   24  C   UNL     1     -10.081   6.574  69.785  1.00  0.00    -0.178 C  
HETATM   25  O   UNL     1     -11.161   6.181  69.347  1.00  0.00    -0.356 OA 
BRANCH  24  26
HETATM   26  C   UNL     1      -9.073   5.649  70.506  1.00  0.00    -0.145 C  
HETATM   27  N   UNL     1      -8.332   4.830  69.507  1.00  0.00    -0.082 NA 
HETATM   28  H2  UNL     1      -7.882   5.408  68.796  1.00  0.00     0.000 HD 
HETATM   29  H1  UNL     1      -7.668   4.219  69.981  1.00  0.00     0.000 HD 
BRANCH  26  30
HETATM   30  C   UNL     1      -9.751   4.796  71.563  1.00  0.00    -0.235 A  
HETATM   31  C   UNL     1     -10.489   5.418  72.584  1.00  0.00    -0.261 A  
HETATM   32  C   UNL     1     -11.114   4.662  73.577  1.00  0.00    -0.412 A  
HETATM   33  C   UNL     1     -11.017   3.272  73.562  1.00  0.00    -0.324 A  
HETATM   34  C   UNL     1     -10.308   2.638  72.545  1.00  0.00    -0.203 A  
HETATM   35  C   UNL     1      -9.686   3.393  71.547  1.00  0.00    -0.233 A  
ENDBRANCH  26  30
ENDBRANCH  24  26
ENDBRANCH   7  22
TORSDOF 10
ENDMDL
MODEL       77
REMARK 921   NORMALIZED FREE ENERGY PREDICTED BY IDOCK:   -5.20 KCAL/MOL
REMARK 922        TOTAL FREE ENERGY PREDICTED BY IDOCK:   -9.50 KCAL/MOL
REMARK 923 INTER-LIGAND FREE ENERGY PREDICTED BY IDOCK:   -7.63 KCAL/MOL
REMARK 924 INTRA-LIGAND FREE ENERGY PREDICTED BY IDOCK:   -1.87 KCAL/MOL
REMARK 927      BINDING AFFINITY PREDICTED BY RF-SCORE:    0.00 PKD
ROOT
HETATM    1  C   UNL     1     -10.249   7.867  68.104  1.00  0.00    -0.205 C  
HETATM    2  S   UNL     1     -11.147   7.694  69.714  1.00  0.00    -0.030 SA 
HETATM    3  C   UNL     1     -10.480   9.272  70.416  1.00  0.00    -0.245 C  
HETATM    4  C   UNL     1     -10.011  10.101  69.203  1.00  0.00    -0.210 C  
HETATM    5  C   UNL     1     -11.541   9.951  71.283  1.00  0.00    -0.456 C  
HETATM    6  C   UNL     1      -9.303   8.892  71.339  1.00  0.00    -0.338 C  
HETATM    7  C   UNL     1      -8.865   7.171  67.973  1.00  0.00    -0.129 C  
HETATM    8  N   UNL     1      -9.534   9.152  68.197  1.00  0.00    -0.141 N  
HETATM    9  O   UNL     1      -7.253   9.021  68.713  1.00  0.00    -0.072 OA 
HETATM   10  C   UNL     1      -8.298   8.574  68.298  1.00  0.00    -0.124 C  
ENDROOT
BRANCH   4  11
HETATM   11  C   UNL     1     -11.071  10.996  68.527  1.00  0.00    -0.243 C  
HETATM   12  O   UNL     1     -12.118  10.617  68.016  1.00  0.00    -0.366 OA 
BRANCH  11  13
HETATM   13  O   UNL     1     -10.640  12.291  68.483  1.00  0.00    -0.224 OA 
BRANCH  13  14
HETATM   14  C   UNL     1     -11.630  13.203  67.982  1.00  0.00    -0.334 C  
HETATM   15  C   UNL     1     -11.704  14.447  68.854  1.00  0.00    -0.357 C  
BRANCH  14  16
HETATM   16  O   UNL     1     -11.239  13.647  66.675  1.00  0.00    -0.302 OA 
BRANCH  16  17
HETATM   17  C   UNL     1     -12.205  13.461  65.744  1.00  0.00    -0.458 C  
HETATM   18  O   UNL     1     -13.175  14.187  65.575  1.00  0.00    -0.688 OA 
BRANCH  17  19
HETATM   19  O   UNL     1     -11.979  12.277  65.127  1.00  0.00    -0.379 OA 
BRANCH  19  20
HETATM   20  C   UNL     1     -10.699  12.166  64.487  1.00  0.00    -0.310 C  
HETATM   21  C   UNL     1     -10.034  10.878  64.940  1.00  0.00    -0.361 C  
ENDBRANCH  19  20
ENDBRANCH  17  19
ENDBRANCH  16  17
ENDBRANCH  14  16
ENDBRANCH  13  14
ENDBRANCH  11  13
ENDBRANCH   4  11
BRANCH   7  22
HETATM   22  N   UNL     1      -8.549   6.093  68.939  1.00  0.00    -0.120 N  
HETATM   23  H   UNL     1      -7.928   6.298  69.722  1.00  0.00     0.000 HD 
HETATM   24  C   UNL     1      -9.069   4.823  68.809  1.00  0.00    -0.112 C  
HETATM   25  O   UNL     1      -9.741   4.481  67.837  1.00  0.00    -0.160 OA 
BRANCH  24  26
HETATM   26  C   UNL     1      -8.723   3.868  69.976  1.00  0.00    -0.068 C  
HETATM   27  N   UNL     1      -9.408   2.561  69.781  1.00  0.00    -0.125 NA 
HETATM   28  H2  UNL     1      -9.194   2.148  68.873  1.00  0.00     0.000 HD 
HETATM   29  H1  UNL     1      -9.181   1.931  70.551  1.00  0.00     0.000 HD 
BRANCH  26  30
HETATM   30  C   UNL     1      -9.041   4.492  71.323  1.00  0.00    -0.178 A  
HETATM   31  C   UNL     1     -10.381   4.640  71.718  1.00  0.00    -0.208 A  
HETATM   32  C   UNL     1     -10.705   5.221  72.945  1.00  0.00    -0.301 A  
HETATM   33  C   UNL     1      -9.695   5.655  73.801  1.00  0.00    -0.157 A  
HETATM   34  C   UNL     1      -8.361   5.496  73.435  1.00  0.00    -0.113 A  
HETATM   35  C   UNL     1      -8.035   4.911  72.210  1.00  0.00    -0.110 A  
ENDBRANCH  26  30
ENDBRANCH  24  26
ENDBRANCH   7  22
TORSDOF 10
ENDMDL
MODEL       78
REMARK 921   NORMALIZED FREE ENERGY PREDICTED BY IDOCK:   -5.18 KCAL/MOL
REMARK 922        TOTAL FREE ENERGY PREDICTED BY IDOCK:   -9.47 KCAL/MOL
REMARK 923 INTER-LIGAND FREE ENERGY PREDICTED BY IDOCK:   -7.89 KCAL/MOL
REMARK 924 INTRA-LIGAND FREE ENERGY PREDICTED BY IDOCK:   -1.57 KCAL/MOL
REMARK 927      BINDING AFFINITY PREDICTED BY RF-SCORE:    0.00 PKD
ROOT
HETATM    1  C   UNL     1      -9.707  10.053  66.239  1.00  0.00    -0.214 C  
HETATM    2  S   UNL     1     -10.894   9.257  67.415  1.00  0.00     0.037 SA 
HETATM    3  C   UNL     1     -10.751  10.595  68.685  1.00  0.00    -0.207 C  
HETATM    4  C   UNL     1     -10.199  11.824  67.935  1.00  0.00    -0.191 C  
HETATM    5  C   UNL     1     -12.099  10.817  69.371  1.00  0.00    -0.315 C  
HETATM    6  C   UNL     1      -9.764  10.091  69.761  1.00  0.00    -0.259 C  
HETATM    7  C   UNL     1      -8.216   9.619  66.316  1.00  0.00    -0.116 C  
HETATM    8  N   UNL     1      -9.316  11.320  66.882  1.00  0.00    -0.175 N  
HETATM    9  O   UNL     1      -7.239  11.322  67.965  1.00  0.00    -0.075 OA 
HETATM   10  C   UNL     1      -8.044  10.902  67.165  1.00  0.00    -0.127 C  
ENDROOT
BRANCH   4  11
HETATM   11  C   UNL     1     -11.238  12.746  67.263  1.00  0.00    -0.295 C  
HETATM   12  O   UNL     1     -12.132  12.395  66.503  1.00  0.00    -0.599 OA 
BRANCH  11  13
HETATM   13  O   UNL     1     -10.970  14.053  67.554  1.00  0.00    -0.269 OA 
BRANCH  13  14
HETATM   14  C   UNL     1     -10.899  14.318  68.965  1.00  0.00    -0.255 C  
HETATM   15  C   UNL     1      -9.832  15.360  69.261  1.00  0.00    -0.262 C  
BRANCH  14  16
HETATM   16  O   UNL     1     -12.146  14.880  69.398  1.00  0.00    -0.298 OA 
BRANCH  16  17
HETATM   17  C   UNL     1     -12.428  14.600  70.693  1.00  0.00    -0.344 C  
HETATM   18  O   UNL     1     -12.472  13.481  71.183  1.00  0.00    -0.354 OA 
BRANCH  17  19
HETATM   19  O   UNL     1     -12.774  15.754  71.312  1.00  0.00    -0.455 OA 
BRANCH  19  20
HETATM   20  C   UNL     1     -11.929  16.125  72.411  1.00  0.00    -0.554 C  
HETATM   21  C   UNL     1     -12.669  15.858  73.711  1.00  0.00    -0.729 C  
ENDBRANCH  19  20
ENDBRANCH  17  19
ENDBRANCH  16  17
ENDBRANCH  14  16
ENDBRANCH  13  14
ENDBRANCH  11  13
ENDBRANCH   4  11
BRANCH   7  22
HETATM   22  N   UNL     1      -7.913   8.337  66.993  1.00  0.00    -0.100 N  
HETATM   23  H   UNL     1      -7.597   8.352  67.963  1.00  0.00     0.000 HD 
HETATM   24  C   UNL     1      -8.044   7.125  66.350  1.00  0.00    -0.116 C  
HETATM   25  O   UNL     1      -8.322   7.039  65.155  1.00  0.00    -0.134 OA 
BRANCH  24  26
HETATM   26  C   UNL     1      -7.798   5.893  67.252  1.00  0.00    -0.102 C  
HETATM   27  N   UNL     1      -7.972   4.643  66.462  1.00  0.00    -0.102 NA 
HETATM   28  H2  UNL     1      -7.383   4.631  65.629  1.00  0.00     0.000 HD 
HETATM   29  H1  UNL     1      -7.811   3.829  67.056  1.00  0.00     0.000 HD 
BRANCH  26  30
HETATM   30  C   UNL     1      -8.676   5.920  68.490  1.00  0.00    -0.112 A  
HETATM   31  C   UNL     1     -10.061   5.727  68.360  1.00  0.00    -0.216 A  
HETATM   32  C   UNL     1     -10.896   5.759  69.479  1.00  0.00    -0.410 A  
HETATM   33  C   UNL     1     -10.358   5.977  70.746  1.00  0.00    -0.280 A  
HETATM   34  C   UNL     1      -8.984   6.148  70.896  1.00  0.00    -0.144 A  
HETATM   35  C   UNL     1      -8.148   6.112  69.778  1.00  0.00    -0.119 A  
ENDBRANCH  26  30
ENDBRANCH  24  26
ENDBRANCH   7  22
TORSDOF 10
ENDMDL
MODEL       79
REMARK 921   NORMALIZED FREE ENERGY PREDICTED BY IDOCK:   -5.17 KCAL/MOL
REMARK 922        TOTAL FREE ENERGY PREDICTED BY IDOCK:   -9.46 KCAL/MOL
REMARK 923 INTER-LIGAND FREE ENERGY PREDICTED BY IDOCK:   -8.16 KCAL/MOL
REMARK 924 INTRA-LIGAND FREE ENERGY PREDICTED BY IDOCK:   -1.29 KCAL/MOL
REMARK 927      BINDING AFFINITY PREDICTED BY RF-SCORE:    0.00 PKD
ROOT
HETATM    1  C   UNL     1     -10.094  11.317  66.697  1.00  0.00    -0.214 C  
HETATM    2  S   UNL     1     -11.896  11.691  66.889  1.00  0.00     0.318 SA 
HETATM    3  C   UNL     1     -11.635  13.505  67.149  1.00  0.00    -0.357 C  
HETATM    4  C   UNL     1     -10.237  13.810  66.575  1.00  0.00    -0.284 C  
HETATM    5  C   UNL     1     -12.776  14.298  66.510  1.00  0.00     0.114 C  
HETATM    6  C   UNL     1     -11.697  13.754  68.671  1.00  0.00    -0.391 C  
HETATM    7  C   UNL     1      -9.311  10.874  67.966  1.00  0.00    -0.160 C  
HETATM    8  N   UNL     1      -9.415  12.621  66.799  1.00  0.00    -0.231 N  
HETATM    9  O   UNL     1      -8.432  13.106  68.869  1.00  0.00     0.075 OA 
HETATM   10  C   UNL     1      -8.870  12.356  68.026  1.00  0.00    -0.187 C  
ENDROOT
BRANCH   4  11
HETATM   11  C   UNL     1     -10.165  14.144  65.070  1.00  0.00    -0.370 C  
HETATM   12  O   UNL     1     -10.270  13.345  64.147  1.00  0.00    -0.363 OA 
BRANCH  11  13
HETATM   13  O   UNL     1      -9.866  15.464  64.891  1.00  0.00    -0.223 OA 
BRANCH  13  14
HETATM   14  C   UNL     1      -9.671  16.175  66.124  1.00  0.00    -0.323 C  
HETATM   15  C   UNL     1      -8.289  16.807  66.166  1.00  0.00    -0.301 C  
BRANCH  14  16
HETATM   16  O   UNL     1     -10.613  17.254  66.195  1.00  0.00    -0.304 OA 
BRANCH  16  17
HETATM   17  C   UNL     1     -10.763  17.743  67.449  1.00  0.00    -0.279 C  
HETATM   18  O   UNL     1     -10.923  17.070  68.458  1.00  0.00    -0.335 OA 
BRANCH  17  19
HETATM   19  O   UNL     1     -10.830  19.093  67.375  1.00  0.00    -0.483 OA 
BRANCH  19  20
HETATM   20  C   UNL     1     -10.083  19.790  68.384  1.00  0.00    -0.454 C  
HETATM   21  C   UNL     1      -8.663  19.998  67.888  1.00  0.00    -0.321 C  
ENDBRANCH  19  20
ENDBRANCH  17  19
ENDBRANCH  16  17
ENDBRANCH  14  16
ENDBRANCH  13  14
ENDBRANCH  11  13
ENDBRANCH   4  11
BRANCH   7  22
HETATM   22  N   UNL     1     -10.101  10.375  69.116  1.00  0.00    -0.211 N  
HETATM   23  H   UNL     1     -10.401  11.035  69.834  1.00  0.00     0.000 HD 
HETATM   24  C   UNL     1     -10.443   9.045  69.243  1.00  0.00    -0.228 C  
HETATM   25  O   UNL     1     -10.031   8.182  68.470  1.00  0.00    -0.178 OA 
BRANCH  24  26
HETATM   26  C   UNL     1     -11.369   8.735  70.442  1.00  0.00    -0.192 C  
HETATM   27  N   UNL     1     -12.192   9.931  70.771  1.00  0.00    -0.362 NA 
HETATM   28  H2  UNL     1     -12.713  10.270  69.962  1.00  0.00     0.000 HD 
HETATM   29  H1  UNL     1     -12.803   9.727  71.562  1.00  0.00     0.000 HD 
BRANCH  26  30
HETATM   30  C   UNL     1     -10.585   8.226  71.639  1.00  0.00    -0.306 A  
HETATM   31  C   UNL     1      -9.226   8.557  71.767  1.00  0.00    -0.316 A  
HETATM   32  C   UNL     1      -8.476   8.095  72.849  1.00  0.00    -0.259 A  
HETATM   33  C   UNL     1      -9.074   7.300  73.825  1.00  0.00    -0.266 A  
HETATM   34  C   UNL     1     -10.425   6.980  73.725  1.00  0.00    -0.392 A  
HETATM   35  C   UNL     1     -11.178   7.446  72.645  1.00  0.00    -0.379 A  
ENDBRANCH  26  30
ENDBRANCH  24  26
ENDBRANCH   7  22
TORSDOF 10
ENDMDL
MODEL       80
REMARK 921   NORMALIZED FREE ENERGY PREDICTED BY IDOCK:   -5.17 KCAL/MOL
REMARK 922        TOTAL FREE ENERGY PREDICTED BY IDOCK:   -9.45 KCAL/MOL
REMARK 923 INTER-LIGAND FREE ENERGY PREDICTED BY IDOCK:   -8.86 KCAL/MOL
REMARK 924 INTRA-LIGAND FREE ENERGY PREDICTED BY IDOCK:   -0.60 KCAL/MOL
REMARK 927      BINDING AFFINITY PREDICTED BY RF-SCORE:    0.00 PKD
ROOT
HETATM    1  C   UNL     1     -10.642   8.353  67.004  1.00  0.00    -0.246 C  
HETATM    2  S   UNL     1     -10.625   9.970  67.905  1.00  0.00    -0.267 SA 
HETATM    3  C   UNL     1      -8.857  10.337  67.498  1.00  0.00    -0.128 C  
HETATM    4  C   UNL     1      -8.520   9.458  66.277  1.00  0.00    -0.126 C  
HETATM    5  C   UNL     1      -8.669  11.839  67.277  1.00  0.00    -0.163 C  
HETATM    6  C   UNL     1      -8.020   9.946  68.735  1.00  0.00    -0.093 C  
HETATM    7  C   UNL     1     -10.338   7.068  67.825  1.00  0.00    -0.202 C  
HETATM    8  N   UNL     1      -9.300   8.227  66.410  1.00  0.00    -0.200 N  
HETATM    9  O   UNL     1      -7.800   6.836  67.552  1.00  0.00    -0.108 OA 
HETATM   10  C   UNL     1      -8.907   7.227  67.258  1.00  0.00    -0.124 C  
ENDROOT
BRANCH   4  11
HETATM   11  C   UNL     1      -8.832  10.055  64.889  1.00  0.00    -0.192 C  
HETATM   12  O   UNL     1      -8.012  10.342  64.025  1.00  0.00    -0.156 OA 
BRANCH  11  13
HETATM   13  O   UNL     1     -10.166  10.321  64.776  1.00  0.00    -0.329 OA 
BRANCH  13  14
HETATM   14  C   UNL     1     -10.446  11.682  64.413  1.00  0.00    -0.322 C  
HETATM   15  C   UNL     1     -10.960  11.761  62.984  1.00  0.00    -0.111 C  
BRANCH  14  16
HETATM   16  O   UNL     1     -11.497  12.183  65.250  1.00  0.00    -0.337 OA 
BRANCH  16  17
HETATM   17  C   UNL     1     -11.710  13.512  65.092  1.00  0.00    -0.322 C  
HETATM   18  O   UNL     1     -12.795  14.036  64.889  1.00  0.00    -0.692 OA 
BRANCH  17  19
HETATM   19  O   UNL     1     -10.508  14.135  65.071  1.00  0.00    -0.378 OA 
BRANCH  19  20
HETATM   20  C   UNL     1     -10.574  15.569  65.055  1.00  0.00    -0.409 C  
HETATM   21  C   UNL     1      -9.715  16.114  66.184  1.00  0.00    -0.352 C  
ENDBRANCH  19  20
ENDBRANCH  17  19
ENDBRANCH  16  17
ENDBRANCH  14  16
ENDBRANCH  13  14
ENDBRANCH  11  13
ENDBRANCH   4  11
BRANCH   7  22
HETATM   22  N   UNL     1     -10.475   7.150  69.297  1.00  0.00    -0.207 N  
HETATM   23  H   UNL     1     -10.563   8.067  69.736  1.00  0.00     0.000 HD 
HETATM   24  C   UNL     1     -10.488   6.023  70.091  1.00  0.00    -0.246 C  
HETATM   25  O   UNL     1     -10.287   4.896  69.641  1.00  0.00    -0.243 OA 
BRANCH  24  26
HETATM   26  C   UNL     1     -10.759   6.298  71.589  1.00  0.00    -0.239 C  
HETATM   27  N   UNL     1     -10.956   5.013  72.314  1.00  0.00    -0.145 NA 
HETATM   28  H2  UNL     1     -10.173   4.373  72.178  1.00  0.00     0.000 HD 
HETATM   29  H1  UNL     1     -11.135   5.194  73.302  1.00  0.00     0.000 HD 
BRANCH  26  30
HETATM   30  C   UNL     1     -11.923   7.254  71.781  1.00  0.00    -0.342 A  
HETATM   31  C   UNL     1     -13.236   6.793  71.585  1.00  0.00    -0.235 A  
HETATM   32  C   UNL     1     -14.326   7.651  71.742  1.00  0.00    -0.586 A  
HETATM   33  C   UNL     1     -14.122   8.980  72.106  1.00  0.00    -0.461 A  
HETATM   34  C   UNL     1     -12.829   9.448  72.326  1.00  0.00    -0.452 A  
HETATM   35  C   UNL     1     -11.737   8.590  72.173  1.00  0.00    -0.448 A  
ENDBRANCH  26  30
ENDBRANCH  24  26
ENDBRANCH   7  22
TORSDOF 10
ENDMDL
MODEL       81
REMARK 921   NORMALIZED FREE ENERGY PREDICTED BY IDOCK:   -5.17 KCAL/MOL
REMARK 922        TOTAL FREE ENERGY PREDICTED BY IDOCK:   -9.45 KCAL/MOL
REMARK 923 INTER-LIGAND FREE ENERGY PREDICTED BY IDOCK:   -8.59 KCAL/MOL
REMARK 924 INTRA-LIGAND FREE ENERGY PREDICTED BY IDOCK:   -0.87 KCAL/MOL
REMARK 927      BINDING AFFINITY PREDICTED BY RF-SCORE:    0.00 PKD
ROOT
HETATM    1  C   UNL     1      -9.432  13.497  66.214  1.00  0.00    -0.184 C  
HETATM    2  S   UNL     1      -9.352  13.524  68.063  1.00  0.00    -0.217 SA 
HETATM    3  C   UNL     1     -10.948  12.614  68.286  1.00  0.00    -0.248 C  
HETATM    4  C   UNL     1     -11.206  11.894  66.946  1.00  0.00    -0.325 C  
HETATM    5  C   UNL     1     -10.862  11.691  69.502  1.00  0.00    -0.087 C  
HETATM    6  C   UNL     1     -12.031  13.672  68.585  1.00  0.00    -0.395 C  
HETATM    7  C   UNL     1     -10.064  14.726  65.502  1.00  0.00    -0.380 C  
HETATM    8  N   UNL     1     -10.658  12.747  65.891  1.00  0.00    -0.270 N  
HETATM    9  O   UNL     1     -12.525  14.036  65.307  1.00  0.00    -0.441 OA 
HETATM   10  C   UNL     1     -11.338  13.848  65.447  1.00  0.00    -0.309 C  
ENDROOT
BRANCH   4  11
HETATM   11  C   UNL     1     -10.576  10.495  66.782  1.00  0.00    -0.222 C  
HETATM   12  O   UNL     1      -9.715  10.181  65.970  1.00  0.00    -0.197 OA 
BRANCH  11  13
HETATM   13  O   UNL     1     -11.184   9.601  67.615  1.00  0.00    -0.132 OA 
BRANCH  13  14
HETATM   14  C   UNL     1     -10.475   8.356  67.729  1.00  0.00    -0.220 C  
HETATM   15  C   UNL     1     -10.364   7.933  69.186  1.00  0.00    -0.225 C  
BRANCH  14  16
HETATM   16  O   UNL     1     -11.223   7.329  67.064  1.00  0.00    -0.221 OA 
BRANCH  16  17
HETATM   17  C   UNL     1     -10.437   6.351  66.553  1.00  0.00    -0.080 C  
HETATM   18  O   UNL     1     -10.713   5.160  66.531  1.00  0.00    -0.300 OA 
BRANCH  17  19
HETATM   19  O   UNL     1      -9.254   6.901  66.191  1.00  0.00    -0.152 OA 
BRANCH  19  20
HETATM   20  C   UNL     1      -8.149   5.985  66.156  1.00  0.00    -0.110 C  
HETATM   21  C   UNL     1      -7.257   6.246  67.357  1.00  0.00    -0.075 C  
ENDBRANCH  19  20
ENDBRANCH  17  19
ENDBRANCH  16  17
ENDBRANCH  14  16
ENDBRANCH  13  14
ENDBRANCH  11  13
ENDBRANCH   4  11
BRANCH   7  22
HETATM   22  N   UNL     1     -10.166  15.985  66.276  1.00  0.00    -0.299 N  
HETATM   23  H   UNL     1      -9.875  15.990  67.254  1.00  0.00     0.000 HD 
HETATM   24  C   UNL     1     -10.642  17.150  65.712  1.00  0.00    -0.195 C  
HETATM   25  O   UNL     1     -11.102  17.191  64.572  1.00  0.00    -1.105 OA 
BRANCH  24  26
HETATM   26  C   UNL     1     -10.563  18.387  66.637  1.00  0.00    -0.325 C  
HETATM   27  N   UNL     1     -11.011  19.601  65.900  1.00  0.00    -0.302 NA 
HETATM   28  H2  UNL     1     -11.941  19.482  65.497  1.00  0.00     0.000 HD 
HETATM   29  H1  UNL     1     -10.958  20.417  66.509  1.00  0.00     0.000 HD 
BRANCH  26  30
HETATM   30  C   UNL     1      -9.177  18.552  67.234  1.00  0.00    -0.281 A  
HETATM   31  C   UNL     1      -8.051  18.486  66.397  1.00  0.00    -0.295 A  
HETATM   32  C   UNL     1      -6.763  18.623  66.918  1.00  0.00    -0.206 A  
HETATM   33  C   UNL     1      -6.581  18.834  68.283  1.00  0.00    -0.240 A  
HETATM   34  C   UNL     1      -7.687  18.924  69.124  1.00  0.00    -0.181 A  
HETATM   35  C   UNL     1      -8.976  18.793  68.603  1.00  0.00    -0.368 A  
ENDBRANCH  26  30
ENDBRANCH  24  26
ENDBRANCH   7  22
TORSDOF 10
ENDMDL
MODEL       82
REMARK 921   NORMALIZED FREE ENERGY PREDICTED BY IDOCK:   -5.17 KCAL/MOL
REMARK 922        TOTAL FREE ENERGY PREDICTED BY IDOCK:   -9.45 KCAL/MOL
REMARK 923 INTER-LIGAND FREE ENERGY PREDICTED BY IDOCK:   -8.40 KCAL/MOL
REMARK 924 INTRA-LIGAND FREE ENERGY PREDICTED BY IDOCK:   -1.05 KCAL/MOL
REMARK 927      BINDING AFFINITY PREDICTED BY RF-SCORE:    0.00 PKD
ROOT
HETATM    1  C   UNL     1     -10.794   9.653  68.317  1.00  0.00    -0.182 C  
HETATM    2  S   UNL     1      -9.546  10.286  69.529  1.00  0.00    -0.162 SA 
HETATM    3  C   UNL     1      -8.493  11.091  68.238  1.00  0.00    -0.138 C  
HETATM    4  C   UNL     1      -9.406  11.270  67.008  1.00  0.00    -0.172 C  
HETATM    5  C   UNL     1      -7.891  12.387  68.782  1.00  0.00     0.020 C  
HETATM    6  C   UNL     1      -7.323  10.126  67.946  1.00  0.00    -0.087 C  
HETATM    7  C   UNL     1     -10.605   8.207  67.778  1.00  0.00    -0.165 C  
HETATM    8  N   UNL     1     -10.341  10.145  67.004  1.00  0.00    -0.233 N  
HETATM    9  O   UNL     1      -9.209   8.593  65.663  1.00  0.00    -0.200 OA 
HETATM   10  C   UNL     1      -9.959   8.909  66.558  1.00  0.00    -0.288 C  
ENDROOT
BRANCH   4  11
HETATM   11  C   UNL     1     -10.243  12.566  66.953  1.00  0.00    -0.226 C  
HETATM   12  O   UNL     1     -11.368  12.719  67.414  1.00  0.00    -0.277 OA 
BRANCH  11  13
HETATM   13  O   UNL     1      -9.595  13.518  66.222  1.00  0.00    -0.272 OA 
BRANCH  13  14
HETATM   14  C   UNL     1     -10.400  14.679  65.958  1.00  0.00    -0.305 C  
HETATM   15  C   UNL     1      -9.610  15.951  66.224  1.00  0.00    -0.345 C  
BRANCH  14  16
HETATM   16  O   UNL     1     -10.748  14.700  64.567  1.00  0.00    -0.334 OA 
BRANCH  16  17
HETATM   17  C   UNL     1     -12.085  14.747  64.359  1.00  0.00    -0.440 C  
HETATM   18  O   UNL     1     -12.728  15.755  64.103  1.00  0.00    -0.474 OA 
BRANCH  17  19
HETATM   19  O   UNL     1     -12.598  13.518  64.606  1.00  0.00    -0.593 OA 
BRANCH  19  20
HETATM   20  C   UNL     1     -12.527  12.603  63.502  1.00  0.00    -0.418 C  
HETATM   21  C   UNL     1     -11.375  11.641  63.735  1.00  0.00    -0.482 C  
ENDBRANCH  19  20
ENDBRANCH  17  19
ENDBRANCH  16  17
ENDBRANCH  14  16
ENDBRANCH  13  14
ENDBRANCH  11  13
ENDBRANCH   4  11
BRANCH   7  22
HETATM   22  N   UNL     1      -9.730   7.298  68.553  1.00  0.00    -0.147 N  
HETATM   23  H   UNL     1      -8.718   7.389  68.464  1.00  0.00     0.000 HD 
HETATM   24  C   UNL     1     -10.244   6.332  69.392  1.00  0.00    -0.193 C  
HETATM   25  O   UNL     1     -11.449   6.101  69.472  1.00  0.00    -0.429 OA 
BRANCH  24  26
HETATM   26  C   UNL     1      -9.179   5.561  70.208  1.00  0.00    -0.149 C  
HETATM   27  N   UNL     1      -8.410   4.657  69.310  1.00  0.00    -0.079 NA 
HETATM   28  H2  UNL     1      -7.999   5.158  68.521  1.00  0.00     0.000 HD 
HETATM   29  H1  UNL     1      -7.708   4.147  69.847  1.00  0.00     0.000 HD 
BRANCH  26  30
HETATM   30  C   UNL     1      -9.798   4.822  71.380  1.00  0.00    -0.255 A  
HETATM   31  C   UNL     1     -10.389   5.553  72.424  1.00  0.00    -0.251 A  
HETATM   32  C   UNL     1     -10.956   4.902  73.522  1.00  0.00    -0.397 A  
HETATM   33  C   UNL     1     -10.947   3.510  73.590  1.00  0.00    -0.329 A  
HETATM   34  C   UNL     1     -10.384   2.769  72.553  1.00  0.00    -0.196 A  
HETATM   35  C   UNL     1      -9.822   3.419  71.452  1.00  0.00    -0.204 A  
ENDBRANCH  26  30
ENDBRANCH  24  26
ENDBRANCH   7  22
TORSDOF 10
ENDMDL
MODEL       83
REMARK 921   NORMALIZED FREE ENERGY PREDICTED BY IDOCK:   -5.16 KCAL/MOL
REMARK 922        TOTAL FREE ENERGY PREDICTED BY IDOCK:   -9.44 KCAL/MOL
REMARK 923 INTER-LIGAND FREE ENERGY PREDICTED BY IDOCK:   -8.10 KCAL/MOL
REMARK 924 INTRA-LIGAND FREE ENERGY PREDICTED BY IDOCK:   -1.34 KCAL/MOL
REMARK 927      BINDING AFFINITY PREDICTED BY RF-SCORE:    0.00 PKD
ROOT
HETATM    1  C   UNL     1     -10.073  10.384  69.042  1.00  0.00    -0.213 C  
HETATM    2  S   UNL     1      -8.233  10.405  69.243  1.00  0.00    -0.142 SA 
HETATM    3  C   UNL     1      -7.916   9.386  67.731  1.00  0.00    -0.096 C  
HETATM    4  C   UNL     1      -9.192   9.507  66.873  1.00  0.00    -0.143 C  
HETATM    5  C   UNL     1      -6.634   9.852  67.041  1.00  0.00    -0.070 C  
HETATM    6  C   UNL     1      -7.683   7.936  68.207  1.00  0.00    -0.121 C  
HETATM    7  C   UNL     1     -10.868   9.282  69.797  1.00  0.00    -0.224 C  
HETATM    8  N   UNL     1     -10.318   9.634  67.798  1.00  0.00    -0.220 N  
HETATM    9  O   UNL     1     -10.970   7.399  68.060  1.00  0.00    -0.100 OA 
HETATM   10  C   UNL     1     -10.835   8.541  68.439  1.00  0.00     0.076 C  
ENDROOT
BRANCH   4  11
HETATM   11  C   UNL     1      -9.258  10.702  65.899  1.00  0.00    -0.182 C  
HETATM   12  O   UNL     1      -8.932  11.857  66.149  1.00  0.00    -0.195 OA 
BRANCH  11  13
HETATM   13  O   UNL     1      -9.831  10.322  64.720  1.00  0.00    -0.307 OA 
BRANCH  13  14
HETATM   14  C   UNL     1      -9.894  11.381  63.751  1.00  0.00    -0.319 C  
HETATM   15  C   UNL     1      -8.891  11.146  62.632  1.00  0.00    -0.315 C  
BRANCH  14  16
HETATM   16  O   UNL     1     -11.191  11.379  63.139  1.00  0.00    -0.203 OA 
BRANCH  16  17
HETATM   17  C   UNL     1     -12.054  12.240  63.730  1.00  0.00    -0.532 C  
HETATM   18  O   UNL     1     -13.273  12.140  63.720  1.00  0.00    -0.763 OA 
BRANCH  17  19
HETATM   19  O   UNL     1     -11.345  13.286  64.217  1.00  0.00    -0.365 OA 
BRANCH  19  20
HETATM   20  C   UNL     1     -12.060  14.119  65.142  1.00  0.00    -0.414 C  
HETATM   21  C   UNL     1     -11.946  13.521  66.533  1.00  0.00    -0.460 C  
ENDBRANCH  19  20
ENDBRANCH  17  19
ENDBRANCH  16  17
ENDBRANCH  14  16
ENDBRANCH  13  14
ENDBRANCH  11  13
ENDBRANCH   4  11
BRANCH   7  22
HETATM   22  N   UNL     1     -10.191   8.608  70.930  1.00  0.00    -0.198 N  
HETATM   23  H   UNL     1      -9.227   8.296  70.816  1.00  0.00     0.000 HD 
HETATM   24  C   UNL     1     -10.828   8.391  72.134  1.00  0.00    -0.337 C  
HETATM   25  O   UNL     1     -12.018   8.650  72.306  1.00  0.00    -0.364 OA 
BRANCH  24  26
HETATM   26  C   UNL     1      -9.927   7.784  73.234  1.00  0.00    -0.307 C  
HETATM   27  N   UNL     1      -8.579   8.415  73.191  1.00  0.00    -0.353 NA 
HETATM   28  H2  UNL     1      -8.631   9.432  73.256  1.00  0.00     0.000 HD 
HETATM   29  H1  UNL     1      -7.984   8.015  73.917  1.00  0.00     0.000 HD 
BRANCH  26  30
HETATM   30  C   UNL     1      -9.860   6.271  73.133  1.00  0.00    -0.173 A  
HETATM   31  C   UNL     1      -8.666   5.658  72.719  1.00  0.00    -0.119 A  
HETATM   32  C   UNL     1      -8.577   4.269  72.604  1.00  0.00    -0.106 A  
HETATM   33  C   UNL     1      -9.678   3.471  72.908  1.00  0.00    -0.188 A  
HETATM   34  C   UNL     1     -10.863   4.061  73.341  1.00  0.00    -0.326 A  
HETATM   35  C   UNL     1     -10.952   5.450  73.461  1.00  0.00    -0.323 A  
ENDBRANCH  26  30
ENDBRANCH  24  26
ENDBRANCH   7  22
TORSDOF 10
ENDMDL
MODEL       84
REMARK 921   NORMALIZED FREE ENERGY PREDICTED BY IDOCK:   -5.15 KCAL/MOL
REMARK 922        TOTAL FREE ENERGY PREDICTED BY IDOCK:   -9.43 KCAL/MOL
REMARK 923 INTER-LIGAND FREE ENERGY PREDICTED BY IDOCK:   -7.85 KCAL/MOL
REMARK 924 INTRA-LIGAND FREE ENERGY PREDICTED BY IDOCK:   -1.58 KCAL/MOL
REMARK 927      BINDING AFFINITY PREDICTED BY RF-SCORE:    0.00 PKD
ROOT
HETATM    1  C   UNL     1      -9.769   8.424  68.764  1.00  0.00    -0.164 C  
HETATM    2  S   UNL     1     -11.140   7.825  69.854  1.00  0.00    -0.064 SA 
HETATM    3  C   UNL     1     -11.117   9.322  70.942  1.00  0.00    -0.306 C  
HETATM    4  C   UNL     1     -10.414  10.423  70.120  1.00  0.00    -0.128 C  
HETATM    5  C   UNL     1     -12.537   9.668  71.392  1.00  0.00    -0.463 C  
HETATM    6  C   UNL     1     -10.311   8.948  72.205  1.00  0.00    -0.313 C  
HETATM    7  C   UNL     1      -8.323   7.970  69.110  1.00  0.00    -0.132 C  
HETATM    8  N   UNL     1      -9.417   9.757  69.282  1.00  0.00    -0.182 N  
HETATM    9  O   UNL     1      -7.511   9.860  70.640  1.00  0.00    -0.284 OA 
HETATM   10  C   UNL     1      -8.215   9.353  69.796  1.00  0.00    -0.143 C  
ENDROOT
BRANCH   4  11
HETATM   11  C   UNL     1     -11.310  11.268  69.190  1.00  0.00    -0.282 C  
HETATM   12  O   UNL     1     -12.196  10.843  68.459  1.00  0.00    -0.535 OA 
BRANCH  11  13
HETATM   13  O   UNL     1     -10.917  12.575  69.213  1.00  0.00    -0.189 OA 
BRANCH  13  14
HETATM   14  C   UNL     1     -12.012  13.496  69.345  1.00  0.00    -0.330 C  
HETATM   15  C   UNL     1     -12.330  13.742  70.812  1.00  0.00    -0.451 C  
BRANCH  14  16
HETATM   16  O   UNL     1     -11.626  14.763  68.795  1.00  0.00    -0.290 OA 
BRANCH  16  17
HETATM   17  C   UNL     1     -11.195  14.672  67.514  1.00  0.00    -0.333 C  
HETATM   18  O   UNL     1     -10.101  15.037  67.107  1.00  0.00    -0.237 OA 
BRANCH  17  19
HETATM   19  O   UNL     1     -12.222  14.230  66.750  1.00  0.00    -0.441 OA 
BRANCH  19  20
HETATM   20  C   UNL     1     -11.886  13.163  65.850  1.00  0.00    -0.406 C  
HETATM   21  C   UNL     1     -12.279  13.567  64.440  1.00  0.00    -0.440 C  
ENDBRANCH  19  20
ENDBRANCH  17  19
ENDBRANCH  16  17
ENDBRANCH  14  16
ENDBRANCH  13  14
ENDBRANCH  11  13
ENDBRANCH   4  11
BRANCH   7  22
HETATM   22  N   UNL     1      -8.171   6.787  69.989  1.00  0.00    -0.131 N  
HETATM   23  H   UNL     1      -7.994   6.928  70.984  1.00  0.00     0.000 HD 
HETATM   24  C   UNL     1      -8.261   5.500  69.501  1.00  0.00    -0.101 C  
HETATM   25  O   UNL     1      -8.372   5.257  68.301  1.00  0.00    -0.097 OA 
BRANCH  24  26
HETATM   26  C   UNL     1      -8.196   4.399  70.585  1.00  0.00    -0.071 C  
HETATM   27  N   UNL     1      -8.665   3.104  70.021  1.00  0.00    -0.067 NA 
HETATM   28  H2  UNL     1      -8.151   2.844  69.179  1.00  0.00     0.000 HD 
HETATM   29  H1  UNL     1      -8.623   2.377  70.735  1.00  0.00     0.000 HD 
BRANCH  26  30
HETATM   30  C   UNL     1      -8.960   4.796  71.835  1.00  0.00    -0.148 A  
HETATM   31  C   UNL     1     -10.365   4.827  71.805  1.00  0.00    -0.230 A  
HETATM   32  C   UNL     1     -11.096   5.200  72.935  1.00  0.00    -0.359 A  
HETATM   33  C   UNL     1     -10.435   5.540  74.114  1.00  0.00    -0.297 A  
HETATM   34  C   UNL     1      -9.044   5.494  74.167  1.00  0.00    -0.122 A  
HETATM   35  C   UNL     1      -8.312   5.117  73.039  1.00  0.00    -0.112 A  
ENDBRANCH  26  30
ENDBRANCH  24  26
ENDBRANCH   7  22
TORSDOF 10
ENDMDL
MODEL       85
REMARK 921   NORMALIZED FREE ENERGY PREDICTED BY IDOCK:   -5.14 KCAL/MOL
REMARK 922        TOTAL FREE ENERGY PREDICTED BY IDOCK:   -9.41 KCAL/MOL
REMARK 923 INTER-LIGAND FREE ENERGY PREDICTED BY IDOCK:   -7.72 KCAL/MOL
REMARK 924 INTRA-LIGAND FREE ENERGY PREDICTED BY IDOCK:   -1.69 KCAL/MOL
REMARK 927      BINDING AFFINITY PREDICTED BY RF-SCORE:    0.00 PKD
ROOT
HETATM    1  C   UNL     1     -10.950   9.113  69.189  1.00  0.00    -0.033 C  
HETATM    2  S   UNL     1     -10.535   8.748  67.423  1.00  0.00    -0.244 SA 
HETATM    3  C   UNL     1      -9.045   7.732  67.837  1.00  0.00    -0.131 C  
HETATM    4  C   UNL     1      -9.229   7.303  69.307  1.00  0.00    -0.144 C  
HETATM    5  C   UNL     1      -8.904   6.576  66.846  1.00  0.00    -0.120 C  
HETATM    6  C   UNL     1      -7.813   8.646  67.657  1.00  0.00    -0.103 C  
HETATM    7  C   UNL     1     -10.401  10.433  69.801  1.00  0.00    -0.208 C  
HETATM    8  N   UNL     1      -9.941   8.389  69.982  1.00  0.00    -0.186 N  
HETATM    9  O   UNL     1      -8.168   9.677  70.808  1.00  0.00    -0.273 OA 
HETATM   10  C   UNL     1      -9.289   9.524  70.379  1.00  0.00    -0.257 C  
ENDROOT
BRANCH   4  11
HETATM   11  C   UNL     1     -10.027   6.005  69.553  1.00  0.00    -0.178 C  
HETATM   12  O   UNL     1     -11.239   5.871  69.442  1.00  0.00    -0.375 OA 
BRANCH  11  13
HETATM   13  O   UNL     1      -9.201   5.022  70.015  1.00  0.00    -0.120 OA 
BRANCH  13  14
HETATM   14  C   UNL     1      -9.313   4.803  71.430  1.00  0.00    -0.147 C  
HETATM   15  C   UNL     1      -9.787   3.387  71.719  1.00  0.00    -0.229 C  
BRANCH  14  16
HETATM   16  O   UNL     1      -8.015   4.926  72.027  1.00  0.00    -0.104 OA 
BRANCH  16  17
HETATM   17  C   UNL     1      -8.005   5.747  73.104  1.00  0.00    -0.110 C  
HETATM   18  O   UNL     1      -7.621   5.442  74.225  1.00  0.00    -0.092 OA 
BRANCH  17  19
HETATM   19  O   UNL     1      -8.607   6.911  72.759  1.00  0.00    -0.120 OA 
BRANCH  19  20
HETATM   20  C   UNL     1      -9.467   7.466  73.765  1.00  0.00    -0.279 C  
HETATM   21  C   UNL     1     -10.874   7.573  73.203  1.00  0.00    -0.448 C  
ENDBRANCH  19  20
ENDBRANCH  17  19
ENDBRANCH  16  17
ENDBRANCH  14  16
ENDBRANCH  13  14
ENDBRANCH  11  13
ENDBRANCH   4  11
BRANCH   7  22
HETATM   22  N   UNL     1      -9.962  11.490  68.860  1.00  0.00    -0.375 N  
HETATM   23  H   UNL     1      -8.996  11.492  68.533  1.00  0.00     0.000 HD 
HETATM   24  C   UNL     1     -10.823  12.472  68.416  1.00  0.00    -0.243 C  
HETATM   25  O   UNL     1     -11.969  12.588  68.846  1.00  0.00    -0.299 OA 
BRANCH  24  26
HETATM   26  C   UNL     1     -10.220  13.415  67.348  1.00  0.00    -0.237 C  
HETATM   27  N   UNL     1     -10.316  14.828  67.807  1.00  0.00    -0.243 NA 
HETATM   28  H2  UNL     1      -9.887  14.963  68.724  1.00  0.00     0.000 HD 
HETATM   29  H1  UNL     1      -9.919  15.451  67.104  1.00  0.00     0.000 HD 
BRANCH  26  30
HETATM   30  C   UNL     1     -10.861  13.205  65.989  1.00  0.00    -0.287 A  
HETATM   31  C   UNL     1     -10.534  12.062  65.239  1.00  0.00    -0.323 A  
HETATM   32  C   UNL     1     -11.097  11.846  63.980  1.00  0.00    -0.459 A  
HETATM   33  C   UNL     1     -12.002  12.766  63.453  1.00  0.00    -0.613 A  
HETATM   34  C   UNL     1     -12.354  13.893  64.191  1.00  0.00    -0.380 A  
HETATM   35  C   UNL     1     -11.795  14.107  65.453  1.00  0.00    -0.362 A  
ENDBRANCH  26  30
ENDBRANCH  24  26
ENDBRANCH   7  22
TORSDOF 10
ENDMDL
MODEL       86
REMARK 921   NORMALIZED FREE ENERGY PREDICTED BY IDOCK:   -5.11 KCAL/MOL
REMARK 922        TOTAL FREE ENERGY PREDICTED BY IDOCK:   -9.36 KCAL/MOL
REMARK 923 INTER-LIGAND FREE ENERGY PREDICTED BY IDOCK:   -7.95 KCAL/MOL
REMARK 924 INTRA-LIGAND FREE ENERGY PREDICTED BY IDOCK:   -1.41 KCAL/MOL
REMARK 927      BINDING AFFINITY PREDICTED BY RF-SCORE:    0.00 PKD
ROOT
HETATM    1  C   UNL     1      -8.419   9.149  69.539  1.00  0.00    -0.128 C  
HETATM    2  S   UNL     1      -8.572   7.576  68.576  1.00  0.00    -0.128 SA 
HETATM    3  C   UNL     1     -10.405   7.719  68.363  1.00  0.00    -0.196 C  
HETATM    4  C   UNL     1     -10.735   9.208  68.598  1.00  0.00    -0.118 C  
HETATM    5  C   UNL     1     -10.820   7.180  66.994  1.00  0.00    -0.382 C  
HETATM    6  C   UNL     1     -11.054   6.813  69.432  1.00  0.00    -0.310 C  
HETATM    7  C   UNL     1      -8.460   9.051  71.090  1.00  0.00    -0.177 C  
HETATM    8  N   UNL     1      -9.783   9.704  69.592  1.00  0.00    -0.199 N  
HETATM    9  O   UNL     1     -10.956   9.354  71.589  1.00  0.00    -0.369 OA 
HETATM   10  C   UNL     1      -9.949   9.442  70.924  1.00  0.00    -0.283 C  
ENDROOT
BRANCH   4  11
HETATM   11  C   UNL     1     -10.647  10.136  67.369  1.00  0.00    -0.272 C  
HETATM   12  O   UNL     1      -9.699  10.227  66.599  1.00  0.00    -0.172 OA 
BRANCH  11  13
HETATM   13  O   UNL     1     -11.750  10.937  67.300  1.00  0.00    -0.458 OA 
BRANCH  13  14
HETATM   14  C   UNL     1     -11.463  12.261  66.820  1.00  0.00    -0.361 C  
HETATM   15  C   UNL     1     -12.068  12.475  65.441  1.00  0.00    -0.494 C  
BRANCH  14  16
HETATM   16  O   UNL     1     -12.083  13.218  67.689  1.00  0.00    -0.335 OA 
BRANCH  16  17
HETATM   17  C   UNL     1     -11.348  13.479  68.797  1.00  0.00    -0.290 C  
HETATM   18  O   UNL     1     -10.140  13.669  68.817  1.00  0.00    -0.211 OA 
BRANCH  17  19
HETATM   19  O   UNL     1     -12.155  13.368  69.878  1.00  0.00    -0.324 OA 
BRANCH  19  20
HETATM   20  C   UNL     1     -12.017  14.422  70.844  1.00  0.00    -0.327 C  
HETATM   21  C   UNL     1     -13.341  15.157  70.961  1.00  0.00    -0.504 C  
ENDBRANCH  19  20
ENDBRANCH  17  19
ENDBRANCH  16  17
ENDBRANCH  14  16
ENDBRANCH  13  14
ENDBRANCH  11  13
ENDBRANCH   4  11
BRANCH   7  22
HETATM   22  N   UNL     1      -8.191   7.727  71.697  1.00  0.00    -0.105 N  
HETATM   23  H   UNL     1      -8.129   6.908  71.092  1.00  0.00     0.000 HD 
HETATM   24  C   UNL     1      -8.023   7.570  73.057  1.00  0.00    -0.106 C  
HETATM   25  O   UNL     1      -8.184   8.494  73.852  1.00  0.00    -0.369 OA 
BRANCH  24  26
HETATM   26  C   UNL     1      -7.633   6.138  73.492  1.00  0.00    -0.095 C  
HETATM   27  N   UNL     1      -6.425   5.692  72.744  1.00  0.00    -0.063 NA 
HETATM   28  H2  UNL     1      -5.650   6.348  72.843  1.00  0.00     0.000 HD 
HETATM   29  H1  UNL     1      -6.167   4.748  73.030  1.00  0.00     0.000 HD 
BRANCH  26  30
HETATM   30  C   UNL     1      -8.793   5.171  73.345  1.00  0.00    -0.113 A  
HETATM   31  C   UNL     1      -8.581   3.924  72.735  1.00  0.00    -0.101 A  
HETATM   32  C   UNL     1      -9.631   3.017  72.574  1.00  0.00    -0.187 A  
HETATM   33  C   UNL     1     -10.908   3.341  73.027  1.00  0.00    -0.186 A  
HETATM   34  C   UNL     1     -11.132   4.564  73.654  1.00  0.00    -0.369 A  
HETATM   35  C   UNL     1     -10.082   5.470  73.820  1.00  0.00    -0.220 A  
ENDBRANCH  26  30
ENDBRANCH  24  26
ENDBRANCH   7  22
TORSDOF 10
ENDMDL
MODEL       87
REMARK 921   NORMALIZED FREE ENERGY PREDICTED BY IDOCK:   -5.10 KCAL/MOL
REMARK 922        TOTAL FREE ENERGY PREDICTED BY IDOCK:   -9.35 KCAL/MOL
REMARK 923 INTER-LIGAND FREE ENERGY PREDICTED BY IDOCK:   -9.09 KCAL/MOL
REMARK 924 INTRA-LIGAND FREE ENERGY PREDICTED BY IDOCK:   -0.25 KCAL/MOL
REMARK 927      BINDING AFFINITY PREDICTED BY RF-SCORE:    0.00 PKD
ROOT
HETATM    1  C   UNL     1     -10.774  13.763  68.563  1.00  0.00    -0.262 C  
HETATM    2  S   UNL     1     -11.898  13.997  67.111  1.00  0.00    -0.421 SA 
HETATM    3  C   UNL     1     -11.063  12.707  66.079  1.00  0.00    -0.287 C  
HETATM    4  C   UNL     1     -10.293  11.813  67.073  1.00  0.00    -0.214 C  
HETATM    5  C   UNL     1     -12.093  11.971  65.222  1.00  0.00    -0.124 C  
HETATM    6  C   UNL     1     -10.108  13.448  65.118  1.00  0.00    -0.266 C  
HETATM    7  C   UNL     1      -9.532  14.692  68.669  1.00  0.00    -0.211 C  
HETATM    8  N   UNL     1      -9.861  12.675  68.174  1.00  0.00    -0.222 N  
HETATM    9  O   UNL     1      -7.731  13.331  67.453  1.00  0.00    -0.161 OA 
HETATM   10  C   UNL     1      -8.773  13.495  68.046  1.00  0.00    -0.181 C  
ENDROOT
BRANCH   4  11
HETATM   11  C   UNL     1     -11.075  10.634  67.689  1.00  0.00    -0.319 C  
HETATM   12  O   UNL     1     -10.909   9.447  67.437  1.00  0.00    -0.263 OA 
BRANCH  11  13
HETATM   13  O   UNL     1     -12.070  11.097  68.501  1.00  0.00    -0.586 OA 
BRANCH  13  14
HETATM   14  C   UNL     1     -11.850  10.809  69.891  1.00  0.00    -0.335 C  
HETATM   15  C   UNL     1     -12.405  11.923  70.765  1.00  0.00    -0.416 C  
BRANCH  14  16
HETATM   16  O   UNL     1     -12.571   9.620  70.243  1.00  0.00     0.052 OA 
BRANCH  16  17
HETATM   17  C   UNL     1     -11.766   8.627  70.690  1.00  0.00    -0.155 C  
HETATM   18  O   UNL     1     -11.524   7.588  70.093  1.00  0.00    -0.215 OA 
BRANCH  17  19
HETATM   19  O   UNL     1     -11.384   8.927  71.955  1.00  0.00    -0.338 OA 
BRANCH  19  20
HETATM   20  C   UNL     1     -10.145   8.331  72.366  1.00  0.00    -0.312 C  
HETATM   21  C   UNL     1     -10.427   7.316  73.460  1.00  0.00    -0.421 C  
ENDBRANCH  19  20
ENDBRANCH  17  19
ENDBRANCH  16  17
ENDBRANCH  14  16
ENDBRANCH  13  14
ENDBRANCH  11  13
ENDBRANCH   4  11
BRANCH   7  22
HETATM   22  N   UNL     1      -9.546  15.944  67.878  1.00  0.00    -0.214 N  
HETATM   23  H   UNL     1      -9.018  15.985  67.006  1.00  0.00     0.000 HD 
HETATM   24  C   UNL     1     -10.252  17.056  68.286  1.00  0.00    -0.326 C  
HETATM   25  O   UNL     1     -10.827  17.109  69.372  1.00  0.00    -0.215 OA 
BRANCH  24  26
HETATM   26  C   UNL     1     -10.246  18.225  67.274  1.00  0.00    -0.373 C  
HETATM   27  N   UNL     1     -10.404  17.699  65.890  1.00  0.00    -0.562 NA 
HETATM   28  H2  UNL     1     -11.235  17.115  65.796  1.00  0.00     0.000 HD 
HETATM   29  H1  UNL     1     -10.400  18.470  65.222  1.00  0.00     0.000 HD 
BRANCH  26  30
HETATM   30  C   UNL     1      -9.009  19.091  67.425  1.00  0.00    -0.318 A  
HETATM   31  C   UNL     1      -8.325  19.527  66.278  1.00  0.00    -0.359 A  
HETATM   32  C   UNL     1      -7.178  20.315  66.384  1.00  0.00    -0.302 A  
HETATM   33  C   UNL     1      -6.699  20.685  67.639  1.00  0.00    -0.375 A  
HETATM   34  C   UNL     1      -7.376  20.280  68.787  1.00  0.00    -0.032 A  
HETATM   35  C   UNL     1      -8.528  19.497  68.681  1.00  0.00    -0.364 A  
ENDBRANCH  26  30
ENDBRANCH  24  26
ENDBRANCH   7  22
TORSDOF 10
ENDMDL
MODEL       88
REMARK 921   NORMALIZED FREE ENERGY PREDICTED BY IDOCK:   -5.09 KCAL/MOL
REMARK 922        TOTAL FREE ENERGY PREDICTED BY IDOCK:   -9.33 KCAL/MOL
REMARK 923 INTER-LIGAND FREE ENERGY PREDICTED BY IDOCK:   -8.69 KCAL/MOL
REMARK 924 INTRA-LIGAND FREE ENERGY PREDICTED BY IDOCK:   -0.64 KCAL/MOL
REMARK 927      BINDING AFFINITY PREDICTED BY RF-SCORE:    0.00 PKD
ROOT
HETATM    1  C   UNL     1     -10.236  11.319  67.678  1.00  0.00    -0.181 C  
HETATM    2  S   UNL     1      -8.393  11.478  67.742  1.00  0.00    -0.143 SA 
HETATM    3  C   UNL     1      -8.105  10.346  66.306  1.00  0.00    -0.136 C  
HETATM    4  C   UNL     1      -9.440  10.305  65.535  1.00  0.00    -0.223 C  
HETATM    5  C   UNL     1      -6.908  10.830  65.487  1.00  0.00     0.015 C  
HETATM    6  C   UNL     1      -7.737   8.965  66.889  1.00  0.00    -0.098 C  
HETATM    7  C   UNL     1     -10.898  10.242  68.582  1.00  0.00    -0.234 C  
HETATM    8  N   UNL     1     -10.508  10.443  66.525  1.00  0.00    -0.223 N  
HETATM    9  O   UNL     1     -10.981   8.204  67.028  1.00  0.00    -0.159 OA 
HETATM   10  C   UNL     1     -10.903   9.382  67.295  1.00  0.00    -0.094 C  
ENDROOT
BRANCH   4  11
HETATM   11  C   UNL     1      -9.655  11.399  64.468  1.00  0.00    -0.192 C  
HETATM   12  O   UNL     1      -9.273  11.358  63.305  1.00  0.00    -0.245 OA 
BRANCH  11  13
HETATM   13  O   UNL     1     -10.258  12.491  65.023  1.00  0.00    -0.285 OA 
BRANCH  13  14
HETATM   14  C   UNL     1     -11.131  13.181  64.115  1.00  0.00    -0.394 C  
HETATM   15  C   UNL     1     -12.176  12.232  63.550  1.00  0.00    -0.669 C  
BRANCH  14  16
HETATM   16  O   UNL     1     -11.849  14.193  64.835  1.00  0.00    -0.362 OA 
BRANCH  16  17
HETATM   17  C   UNL     1     -11.311  15.427  64.688  1.00  0.00    -0.355 C  
HETATM   18  O   UNL     1     -11.584  16.218  63.797  1.00  0.00    -0.952 OA 
BRANCH  17  19
HETATM   19  O   UNL     1     -10.337  15.580  65.617  1.00  0.00    -0.328 OA 
BRANCH  19  20
HETATM   20  C   UNL     1     -10.779  15.468  66.978  1.00  0.00    -0.321 C  
HETATM   21  C   UNL     1      -9.590  15.114  67.853  1.00  0.00    -0.203 C  
ENDBRANCH  19  20
ENDBRANCH  17  19
ENDBRANCH  16  17
ENDBRANCH  14  16
ENDBRANCH  13  14
ENDBRANCH  11  13
ENDBRANCH   4  11
BRANCH   7  22
HETATM   22  N   UNL     1     -10.101   9.720  69.718  1.00  0.00    -0.223 N  
HETATM   23  H   UNL     1      -9.087   9.825  69.700  1.00  0.00     0.000 HD 
HETATM   24  C   UNL     1     -10.693   9.098  70.796  1.00  0.00    -0.263 C  
HETATM   25  O   UNL     1     -11.896   8.849  70.836  1.00  0.00    -0.282 OA 
BRANCH  24  26
HETATM   26  C   UNL     1      -9.715   8.729  71.937  1.00  0.00    -0.316 C  
HETATM   27  N   UNL     1      -8.318   9.048  71.531  1.00  0.00    -0.337 NA 
HETATM   28  H2  UNL     1      -8.218  10.021  71.239  1.00  0.00     0.000 HD 
HETATM   29  H1  UNL     1      -7.673   8.805  72.282  1.00  0.00     0.000 HD 
BRANCH  26  30
HETATM   30  C   UNL     1      -9.875   7.282  72.366  1.00  0.00    -0.188 A  
HETATM   31  C   UNL     1     -10.294   6.992  73.676  1.00  0.00    -0.412 A  
HETATM   32  C   UNL     1     -10.439   5.671  74.105  1.00  0.00    -0.281 A  
HETATM   33  C   UNL     1     -10.174   4.620  73.230  1.00  0.00    -0.218 A  
HETATM   34  C   UNL     1      -9.779   4.889  71.922  1.00  0.00    -0.218 A  
HETATM   35  C   UNL     1      -9.639   6.210  71.490  1.00  0.00    -0.172 A  
ENDBRANCH  26  30
ENDBRANCH  24  26
ENDBRANCH   7  22
TORSDOF 10
ENDMDL
MODEL       89
REMARK 921   NORMALIZED FREE ENERGY PREDICTED BY IDOCK:   -5.06 KCAL/MOL
REMARK 922        TOTAL FREE ENERGY PREDICTED BY IDOCK:   -9.27 KCAL/MOL
REMARK 923 INTER-LIGAND FREE ENERGY PREDICTED BY IDOCK:   -8.09 KCAL/MOL
REMARK 924 INTRA-LIGAND FREE ENERGY PREDICTED BY IDOCK:   -1.19 KCAL/MOL
REMARK 927      BINDING AFFINITY PREDICTED BY RF-SCORE:    0.00 PKD
ROOT
HETATM    1  C   UNL     1      -9.256  10.642  69.406  1.00  0.00    -0.051 C  
HETATM    2  S   UNL     1      -8.517   9.698  67.996  1.00  0.00    -0.118 SA 
HETATM    3  C   UNL     1      -9.615  10.470  66.721  1.00  0.00    -0.170 C  
HETATM    4  C   UNL     1     -10.140  11.773  67.359  1.00  0.00    -0.195 C  
HETATM    5  C   UNL     1      -8.847  10.663  65.413  1.00  0.00    -0.204 C  
HETATM    6  C   UNL     1     -10.756   9.468  66.443  1.00  0.00     0.044 C  
HETATM    7  C   UNL     1     -10.409   9.965  70.200  1.00  0.00    -0.282 C  
HETATM    8  N   UNL     1     -10.266  11.523  68.795  1.00  0.00    -0.211 N  
HETATM    9  O   UNL     1     -12.489  10.804  68.959  1.00  0.00    -0.379 OA 
HETATM   10  C   UNL     1     -11.329  10.828  69.303  1.00  0.00    -0.286 C  
ENDROOT
BRANCH   4  11
HETATM   11  C   UNL     1      -9.263  13.030  67.183  1.00  0.00    -0.226 C  
HETATM   12  O   UNL     1      -8.042  13.076  67.265  1.00  0.00    -0.181 OA 
BRANCH  11  13
HETATM   13  O   UNL     1     -10.047  14.135  67.016  1.00  0.00    -0.255 OA 
BRANCH  13  14
HETATM   14  C   UNL     1      -9.878  14.763  65.735  1.00  0.00    -0.342 C  
HETATM   15  C   UNL     1     -10.712  14.058  64.677  1.00  0.00    -0.416 C  
BRANCH  14  16
HETATM   16  O   UNL     1     -10.367  16.110  65.806  1.00  0.00    -0.342 OA 
BRANCH  16  17
HETATM   17  C   UNL     1      -9.447  16.981  66.286  1.00  0.00    -0.256 C  
HETATM   18  O   UNL     1      -8.401  17.283  65.731  1.00  0.00    -0.535 OA 
BRANCH  17  19
HETATM   19  O   UNL     1      -9.825  17.355  67.532  1.00  0.00    -0.264 OA 
BRANCH  19  20
HETATM   20  C   UNL     1      -8.742  17.571  68.450  1.00  0.00    -0.276 C  
HETATM   21  C   UNL     1      -8.350  16.241  69.069  1.00  0.00    -0.239 C  
ENDBRANCH  19  20
ENDBRANCH  17  19
ENDBRANCH  16  17
ENDBRANCH  14  16
ENDBRANCH  13  14
ENDBRANCH  11  13
ENDBRANCH   4  11
BRANCH   7  22
HETATM   22  N   UNL     1     -10.555   8.497  70.073  1.00  0.00    -0.225 N  
HETATM   23  H   UNL     1      -9.889   7.981  69.498  1.00  0.00     0.000 HD 
HETATM   24  C   UNL     1     -11.566   7.808  70.709  1.00  0.00    -0.255 C  
HETATM   25  O   UNL     1     -12.460   8.376  71.334  1.00  0.00    -0.303 OA 
BRANCH  24  26
HETATM   26  C   UNL     1     -11.487   6.271  70.557  1.00  0.00    -0.338 C  
HETATM   27  N   UNL     1     -10.931   5.666  71.798  1.00  0.00    -0.249 NA 
HETATM   28  H2  UNL     1     -11.457   5.942  72.628  1.00  0.00     0.000 HD 
HETATM   29  H1  UNL     1     -10.878   4.652  71.698  1.00  0.00     0.000 HD 
BRANCH  26  30
HETATM   30  C   UNL     1     -10.707   5.870  69.318  1.00  0.00    -0.401 A  
HETATM   31  C   UNL     1      -9.540   5.099  69.456  1.00  0.00    -0.226 A  
HETATM   32  C   UNL     1      -8.794   4.724  68.337  1.00  0.00    -0.119 A  
HETATM   33  C   UNL     1      -9.207   5.108  67.062  1.00  0.00    -0.117 A  
HETATM   34  C   UNL     1     -10.372   5.853  66.906  1.00  0.00    -0.304 A  
HETATM   35  C   UNL     1     -11.122   6.224  68.024  1.00  0.00    -0.365 A  
ENDBRANCH  26  30
ENDBRANCH  24  26
ENDBRANCH   7  22
TORSDOF 10
ENDMDL
MODEL       90
REMARK 921   NORMALIZED FREE ENERGY PREDICTED BY IDOCK:   -5.02 KCAL/MOL
REMARK 922        TOTAL FREE ENERGY PREDICTED BY IDOCK:   -9.22 KCAL/MOL
REMARK 923 INTER-LIGAND FREE ENERGY PREDICTED BY IDOCK:   -8.81 KCAL/MOL
REMARK 924 INTRA-LIGAND FREE ENERGY PREDICTED BY IDOCK:   -0.41 KCAL/MOL
REMARK 927      BINDING AFFINITY PREDICTED BY RF-SCORE:    0.00 PKD
ROOT
HETATM    1  C   UNL     1     -10.786   9.571  67.666  1.00  0.00    -0.250 C  
HETATM    2  S   UNL     1      -9.787  10.397  68.987  1.00  0.00    -0.221 SA 
HETATM    3  C   UNL     1      -8.647  11.237  67.796  1.00  0.00    -0.126 C  
HETATM    4  C   UNL     1      -9.394  11.252  66.446  1.00  0.00    -0.192 C  
HETATM    5  C   UNL     1      -8.256  12.617  68.326  1.00  0.00    -0.164 C  
HETATM    6  C   UNL     1      -7.360  10.388  67.728  1.00  0.00    -0.087 C  
HETATM    7  C   UNL     1     -10.385   8.126  67.257  1.00  0.00    -0.303 C  
HETATM    8  N   UNL     1     -10.205  10.036  66.394  1.00  0.00    -0.236 N  
HETATM    9  O   UNL     1      -8.751   8.543  65.325  1.00  0.00    -0.179 OA 
HETATM   10  C   UNL     1      -9.646   8.825  66.089  1.00  0.00    -0.253 C  
ENDROOT
BRANCH   4  11
HETATM   11  C   UNL     1     -10.337  12.447  66.192  1.00  0.00    -0.247 C  
HETATM   12  O   UNL     1     -11.371  12.693  66.801  1.00  0.00    -0.285 OA 
BRANCH  11  13
HETATM   13  O   UNL     1      -9.914  13.163  65.110  1.00  0.00    -0.244 OA 
BRANCH  13  14
HETATM   14  C   UNL     1     -10.977  13.515  64.210  1.00  0.00    -0.336 C  
HETATM   15  C   UNL     1     -11.880  12.319  63.953  1.00  0.00    -0.553 C  
BRANCH  14  16
HETATM   16  O   UNL     1     -11.798  14.518  64.825  1.00  0.00    -0.399 OA 
BRANCH  16  17
HETATM   17  C   UNL     1     -11.269  15.762  64.731  1.00  0.00    -0.366 C  
HETATM   18  O   UNL     1     -11.510  16.570  63.845  1.00  0.00    -1.145 OA 
BRANCH  17  19
HETATM   19  O   UNL     1     -10.342  15.905  65.708  1.00  0.00    -0.331 OA 
BRANCH  19  20
HETATM   20  C   UNL     1     -10.776  16.669  66.844  1.00  0.00    -0.153 C  
HETATM   21  C   UNL     1     -10.519  15.863  68.105  1.00  0.00    -0.270 C  
ENDBRANCH  19  20
ENDBRANCH  17  19
ENDBRANCH  16  17
ENDBRANCH  14  16
ENDBRANCH  13  14
ENDBRANCH  11  13
ENDBRANCH   4  11
BRANCH   7  22
HETATM   22  N   UNL     1      -9.541   7.358  68.202  1.00  0.00    -0.141 N  
HETATM   23  H   UNL     1      -8.527   7.393  68.101  1.00  0.00     0.000 HD 
HETATM   24  C   UNL     1     -10.088   6.597  69.213  1.00  0.00    -0.169 C  
HETATM   25  O   UNL     1     -11.301   6.431  69.331  1.00  0.00    -0.394 OA 
BRANCH  24  26
HETATM   26  C   UNL     1      -9.051   5.965  70.171  1.00  0.00    -0.145 C  
HETATM   27  N   UNL     1      -8.853   4.530  69.828  1.00  0.00    -0.084 NA 
HETATM   28  H2  UNL     1      -8.598   4.402  68.849  1.00  0.00     0.000 HD 
HETATM   29  H1  UNL     1      -8.170   4.112  70.460  1.00  0.00     0.000 HD 
BRANCH  26  30
HETATM   30  C   UNL     1      -9.437   6.165  71.625  1.00  0.00    -0.160 A  
HETATM   31  C   UNL     1      -9.307   7.437  72.207  1.00  0.00    -0.174 A  
HETATM   32  C   UNL     1      -9.642   7.649  73.545  1.00  0.00    -0.348 A  
HETATM   33  C   UNL     1     -10.118   6.595  74.322  1.00  0.00    -0.378 A  
HETATM   34  C   UNL     1     -10.273   5.332  73.756  1.00  0.00    -0.250 A  
HETATM   35  C   UNL     1      -9.943   5.119  72.416  1.00  0.00    -0.225 A  
ENDBRANCH  26  30
ENDBRANCH  24  26
ENDBRANCH   7  22
TORSDOF 10
ENDMDL
MODEL       91
REMARK 921   NORMALIZED FREE ENERGY PREDICTED BY IDOCK:   -5.00 KCAL/MOL
REMARK 922        TOTAL FREE ENERGY PREDICTED BY IDOCK:   -9.18 KCAL/MOL
REMARK 923 INTER-LIGAND FREE ENERGY PREDICTED BY IDOCK:   -7.51 KCAL/MOL
REMARK 924 INTRA-LIGAND FREE ENERGY PREDICTED BY IDOCK:   -1.67 KCAL/MOL
REMARK 927      BINDING AFFINITY PREDICTED BY RF-SCORE:    0.00 PKD
ROOT
HETATM    1  C   UNL     1      -8.402  10.323  65.610  1.00  0.00    -0.158 C  
HETATM    2  S   UNL     1      -8.124  11.699  66.816  1.00  0.00    -0.118 SA 
HETATM    3  C   UNL     1      -8.294  10.615  68.307  1.00  0.00    -0.122 C  
HETATM    4  C   UNL     1      -8.052   9.177  67.805  1.00  0.00    -0.105 C  
HETATM    5  C   UNL     1      -7.339  11.079  69.407  1.00  0.00    -0.092 C  
HETATM    6  C   UNL     1      -9.733  10.802  68.837  1.00  0.00    -0.207 C  
HETATM    7  C   UNL     1      -9.853  10.095  65.099  1.00  0.00    -0.325 C  
HETATM    8  N   UNL     1      -8.561   9.112  66.435  1.00  0.00    -0.122 N  
HETATM    9  O   UNL     1     -10.761   8.387  66.780  1.00  0.00    -0.249 OA 
HETATM   10  C   UNL     1      -9.900   8.990  66.182  1.00  0.00    -0.278 C  
ENDROOT
BRANCH   4  11
HETATM   11  C   UNL     1      -6.587   8.694  67.777  1.00  0.00    -0.062 C  
HETATM   12  O   UNL     1      -5.694   9.134  67.063  1.00  0.00    -0.044 OA 
BRANCH  11  13
HETATM   13  O   UNL     1      -6.426   7.618  68.603  1.00  0.00    -0.045 OA 
BRANCH  13  14
HETATM   14  C   UNL     1      -6.762   6.368  67.979  1.00  0.00    -0.068 C  
HETATM   15  C   UNL     1      -5.580   5.412  68.026  1.00  0.00    -0.012 C  
BRANCH  14  16
HETATM   16  O   UNL     1      -7.819   5.744  68.721  1.00  0.00    -0.095 OA 
BRANCH  16  17
HETATM   17  C   UNL     1      -8.506   4.831  67.994  1.00  0.00    -0.102 C  
HETATM   18  O   UNL     1      -8.617   3.645  68.269  1.00  0.00    -0.090 OA 
BRANCH  17  19
HETATM   19  O   UNL     1      -8.935   5.428  66.857  1.00  0.00    -0.111 OA 
BRANCH  19  20
HETATM   20  C   UNL     1     -10.252   5.042  66.434  1.00  0.00    -0.273 C  
HETATM   21  C   UNL     1     -10.140   4.242  65.148  1.00  0.00    -0.221 C  
ENDBRANCH  19  20
ENDBRANCH  17  19
ENDBRANCH  16  17
ENDBRANCH  14  16
ENDBRANCH  13  14
ENDBRANCH  11  13
ENDBRANCH   4  11
BRANCH   7  22
HETATM   22  N   UNL     1     -10.815  11.211  65.256  1.00  0.00    -0.203 N  
HETATM   23  H   UNL     1     -11.312  11.315  66.140  1.00  0.00     0.000 HD 
HETATM   24  C   UNL     1     -11.056  12.113  64.241  1.00  0.00    -0.346 C  
HETATM   25  O   UNL     1     -10.568  11.989  63.119  1.00  0.00    -0.383 OA 
BRANCH  24  26
HETATM   26  C   UNL     1     -11.998  13.276  64.629  1.00  0.00    -0.394 C  
HETATM   27  N   UNL     1     -12.399  14.033  63.412  1.00  0.00    -1.154 NA 
HETATM   28  H2  UNL     1     -12.811  13.426  62.702  1.00  0.00     0.000 HD 
HETATM   29  H1  UNL     1     -13.021  14.800  63.667  1.00  0.00     0.000 HD 
BRANCH  26  30
HETATM   30  C   UNL     1     -11.379  14.170  65.688  1.00  0.00    -0.319 A  
HETATM   31  C   UNL     1     -11.958  14.232  66.966  1.00  0.00    -0.463 A  
HETATM   32  C   UNL     1     -11.419  15.054  67.957  1.00  0.00    -0.357 A  
HETATM   33  C   UNL     1     -10.288  15.822  67.688  1.00  0.00    -0.281 A  
HETATM   34  C   UNL     1      -9.688  15.757  66.433  1.00  0.00    -0.305 A  
HETATM   35  C   UNL     1     -10.224  14.931  65.443  1.00  0.00    -0.409 A  
ENDBRANCH  26  30
ENDBRANCH  24  26
ENDBRANCH   7  22
TORSDOF 10
ENDMDL
MODEL       92
REMARK 921   NORMALIZED FREE ENERGY PREDICTED BY IDOCK:   -4.98 KCAL/MOL
REMARK 922        TOTAL FREE ENERGY PREDICTED BY IDOCK:   -9.16 KCAL/MOL
REMARK 923 INTER-LIGAND FREE ENERGY PREDICTED BY IDOCK:   -8.69 KCAL/MOL
REMARK 924 INTRA-LIGAND FREE ENERGY PREDICTED BY IDOCK:   -0.47 KCAL/MOL
REMARK 927      BINDING AFFINITY PREDICTED BY RF-SCORE:    0.00 PKD
ROOT
HETATM    1  C   UNL     1      -8.965  11.130  67.869  1.00  0.00    -0.143 C  
HETATM    2  S   UNL     1      -8.046   9.628  67.301  1.00  0.00    -0.110 SA 
HETATM    3  C   UNL     1      -9.372   9.087  66.129  1.00  0.00    -0.232 C  
HETATM    4  C   UNL     1     -10.224  10.344  65.857  1.00  0.00    -0.234 C  
HETATM    5  C   UNL     1      -8.749   8.455  64.884  1.00  0.00    -0.053 C  
HETATM    6  C   UNL     1     -10.186   7.989  66.846  1.00  0.00    -0.385 C  
HETATM    7  C   UNL     1      -9.839  10.999  69.148  1.00  0.00    -0.096 C  
HETATM    8  N   UNL     1     -10.211  11.141  67.084  1.00  0.00    -0.194 N  
HETATM    9  O   UNL     1     -12.123  10.351  68.182  1.00  0.00    -0.128 OA 
HETATM   10  C   UNL     1     -11.006  10.815  68.149  1.00  0.00    -0.257 C  
ENDROOT
BRANCH   4  11
HETATM   11  C   UNL     1      -9.756  11.260  64.706  1.00  0.00    -0.256 C  
HETATM   12  O   UNL     1      -9.053  10.927  63.759  1.00  0.00    -0.201 OA 
BRANCH  11  13
HETATM   13  O   UNL     1     -10.152  12.546  64.932  1.00  0.00    -0.275 OA 
BRANCH  13  14
HETATM   14  C   UNL     1     -11.053  13.048  63.931  1.00  0.00    -0.371 C  
HETATM   15  C   UNL     1     -12.179  12.058  63.678  1.00  0.00    -0.642 C  
BRANCH  14  16
HETATM   16  O   UNL     1     -11.669  14.248  64.416  1.00  0.00    -0.406 OA 
BRANCH  16  17
HETATM   17  C   UNL     1     -11.585  14.378  65.762  1.00  0.00    -0.353 C  
HETATM   18  O   UNL     1     -12.357  13.884  66.571  1.00  0.00    -0.445 OA 
BRANCH  17  19
HETATM   19  O   UNL     1     -10.583  15.245  66.044  1.00  0.00    -0.295 OA 
BRANCH  19  20
HETATM   20  C   UNL     1     -10.626  16.476  65.306  1.00  0.00    -0.253 C  
HETATM   21  C   UNL     1     -10.183  17.609  66.215  1.00  0.00    -0.362 C  
ENDBRANCH  19  20
ENDBRANCH  17  19
ENDBRANCH  16  17
ENDBRANCH  14  16
ENDBRANCH  13  14
ENDBRANCH  11  13
ENDBRANCH   4  11
BRANCH   7  22
HETATM   22  N   UNL     1      -9.560   9.858  70.051  1.00  0.00    -0.314 N  
HETATM   23  H   UNL     1      -8.726   9.293  69.892  1.00  0.00     0.000 HD 
HETATM   24  C   UNL     1     -10.396   9.539  71.101  1.00  0.00    -0.260 C  
HETATM   25  O   UNL     1     -11.466  10.114  71.289  1.00  0.00    -0.353 OA 
BRANCH  24  26
HETATM   26  C   UNL     1      -9.880   8.394  72.003  1.00  0.00    -0.284 C  
HETATM   27  N   UNL     1      -8.573   8.773  72.606  1.00  0.00    -0.387 NA 
HETATM   28  H2  UNL     1      -8.624   9.661  73.106  1.00  0.00     0.000 HD 
HETATM   29  H1  UNL     1      -8.232   8.018  73.202  1.00  0.00     0.000 HD 
BRANCH  26  30
HETATM   30  C   UNL     1      -9.811   7.077  71.253  1.00  0.00    -0.178 A  
HETATM   31  C   UNL     1     -10.816   6.755  70.325  1.00  0.00    -0.314 A  
HETATM   32  C   UNL     1     -10.786   5.546  69.629  1.00  0.00    -0.349 A  
HETATM   33  C   UNL     1      -9.748   4.641  69.843  1.00  0.00    -0.279 A  
HETATM   34  C   UNL     1      -8.732   4.953  70.743  1.00  0.00    -0.142 A  
HETATM   35  C   UNL     1      -8.758   6.165  71.437  1.00  0.00    -0.135 A  
ENDBRANCH  26  30
ENDBRANCH  24  26
ENDBRANCH   7  22
TORSDOF 10
ENDMDL
MODEL       93
REMARK 921   NORMALIZED FREE ENERGY PREDICTED BY IDOCK:   -4.98 KCAL/MOL
REMARK 922        TOTAL FREE ENERGY PREDICTED BY IDOCK:   -9.15 KCAL/MOL
REMARK 923 INTER-LIGAND FREE ENERGY PREDICTED BY IDOCK:   -7.62 KCAL/MOL
REMARK 924 INTRA-LIGAND FREE ENERGY PREDICTED BY IDOCK:   -1.53 KCAL/MOL
REMARK 927      BINDING AFFINITY PREDICTED BY RF-SCORE:    0.00 PKD
ROOT
HETATM    1  C   UNL     1      -9.267   9.826  70.181  1.00  0.00    -0.208 C  
HETATM    2  S   UNL     1      -8.564   8.679  68.911  1.00  0.00    -0.130 SA 
HETATM    3  C   UNL     1     -10.138   8.559  67.944  1.00  0.00    -0.207 C  
HETATM    4  C   UNL     1     -10.970   9.792  68.350  1.00  0.00    -0.152 C  
HETATM    5  C   UNL     1      -9.832   8.457  66.450  1.00  0.00    -0.310 C  
HETATM    6  C   UNL     1     -10.825   7.241  68.365  1.00  0.00    -0.109 C  
HETATM    7  C   UNL     1      -9.846   9.197  71.479  1.00  0.00    -0.265 C  
HETATM    8  N   UNL     1     -10.654  10.078  69.750  1.00  0.00    -0.248 N  
HETATM    9  O   UNL     1     -12.313   8.862  70.870  1.00  0.00    -0.225 OA 
HETATM   10  C   UNL     1     -11.210   9.350  70.765  1.00  0.00    -0.302 C  
ENDROOT
BRANCH   4  11
HETATM   11  C   UNL     1     -10.723  11.086  67.547  1.00  0.00    -0.244 C  
HETATM   12  O   UNL     1      -9.669  11.707  67.484  1.00  0.00    -0.175 OA 
BRANCH  11  13
HETATM   13  O   UNL     1     -11.885  11.518  66.976  1.00  0.00    -0.568 OA 
BRANCH  13  14
HETATM   14  C   UNL     1     -11.723  12.707  66.185  1.00  0.00    -0.406 C  
HETATM   15  C   UNL     1     -12.241  12.487  64.773  1.00  0.00    -0.532 C  
BRANCH  14  16
HETATM   16  O   UNL     1     -12.519  13.757  66.751  1.00  0.00    -0.366 OA 
BRANCH  16  17
HETATM   17  C   UNL     1     -11.784  14.668  67.432  1.00  0.00    -0.390 C  
HETATM   18  O   UNL     1     -11.888  14.913  68.626  1.00  0.00    -0.325 OA 
BRANCH  17  19
HETATM   19  O   UNL     1     -11.014  15.343  66.546  1.00  0.00    -0.315 OA 
BRANCH  19  20
HETATM   20  C   UNL     1     -10.344  16.493  67.083  1.00  0.00    -0.298 C  
HETATM   21  C   UNL     1     -10.446  17.632  66.084  1.00  0.00    -0.295 C  
ENDBRANCH  19  20
ENDBRANCH  17  19
ENDBRANCH  16  17
ENDBRANCH  14  16
ENDBRANCH  13  14
ENDBRANCH  11  13
ENDBRANCH   4  11
BRANCH   7  22
HETATM   22  N   UNL     1      -9.429   7.814  71.812  1.00  0.00    -0.148 N  
HETATM   23  H   UNL     1      -9.971   7.032  71.445  1.00  0.00     0.000 HD 
HETATM   24  C   UNL     1      -8.330   7.556  72.603  1.00  0.00    -0.117 C  
HETATM   25  O   UNL     1      -7.692   8.448  73.159  1.00  0.00    -0.265 OA 
BRANCH  24  26
HETATM   26  C   UNL     1      -7.980   6.055  72.741  1.00  0.00    -0.107 C  
HETATM   27  N   UNL     1      -6.566   5.902  73.181  1.00  0.00    -0.068 NA 
HETATM   28  H2  UNL     1      -6.373   6.421  74.038  1.00  0.00     0.000 HD 
HETATM   29  H1  UNL     1      -6.335   4.913  73.272  1.00  0.00     0.000 HD 
BRANCH  26  30
HETATM   30  C   UNL     1      -8.274   5.291  71.463  1.00  0.00    -0.117 A  
HETATM   31  C   UNL     1      -7.391   5.398  70.375  1.00  0.00    -0.070 A  
HETATM   32  C   UNL     1      -7.640   4.717  69.182  1.00  0.00    -0.056 A  
HETATM   33  C   UNL     1      -8.771   3.913  69.060  1.00  0.00    -0.133 A  
HETATM   34  C   UNL     1      -9.645   3.778  70.136  1.00  0.00    -0.258 A  
HETATM   35  C   UNL     1      -9.395   4.455  71.332  1.00  0.00    -0.206 A  
ENDBRANCH  26  30
ENDBRANCH  24  26
ENDBRANCH   7  22
TORSDOF 10
ENDMDL
MODEL       94
REMARK 921   NORMALIZED FREE ENERGY PREDICTED BY IDOCK:   -4.97 KCAL/MOL
REMARK 922        TOTAL FREE ENERGY PREDICTED BY IDOCK:   -9.14 KCAL/MOL
REMARK 923 INTER-LIGAND FREE ENERGY PREDICTED BY IDOCK:   -8.00 KCAL/MOL
REMARK 924 INTRA-LIGAND FREE ENERGY PREDICTED BY IDOCK:   -1.14 KCAL/MOL
REMARK 927      BINDING AFFINITY PREDICTED BY RF-SCORE:    0.00 PKD
ROOT
HETATM    1  C   UNL     1      -9.392  11.736  67.791  1.00  0.00    -0.181 C  
HETATM    2  S   UNL     1      -9.344  11.836  65.943  1.00  0.00    -0.162 SA 
HETATM    3  C   UNL     1     -10.781  12.997  65.829  1.00  0.00    -0.274 C  
HETATM    4  C   UNL     1     -10.903  13.645  67.223  1.00  0.00    -0.284 C  
HETATM    5  C   UNL     1     -10.569  13.984  64.680  1.00  0.00    -0.416 C  
HETATM    6  C   UNL     1     -12.021  12.145  65.482  1.00  0.00    -0.290 C  
HETATM    7  C   UNL     1     -10.198  10.570  68.429  1.00  0.00    -0.172 C  
HETATM    8  N   UNL     1     -10.481  12.641  68.199  1.00  0.00    -0.224 N  
HETATM    9  O   UNL     1     -12.517  11.617  68.737  1.00  0.00    -0.272 OA 
HETATM   10  C   UNL     1     -11.318  11.628  68.580  1.00  0.00    -0.267 C  
ENDROOT
BRANCH   4  11
HETATM   11  C   UNL     1     -10.060  14.914  67.470  1.00  0.00    -0.228 C  
HETATM   12  O   UNL     1      -8.846  14.955  67.625  1.00  0.00    -0.170 OA 
BRANCH  11  13
HETATM   13  O   UNL     1     -10.871  16.005  67.595  1.00  0.00    -0.319 OA 
BRANCH  13  14
HETATM   14  C   UNL     1     -10.263  17.221  67.129  1.00  0.00    -0.319 C  
HETATM   15  C   UNL     1     -10.481  17.391  65.634  1.00  0.00    -0.173 C  
BRANCH  14  16
HETATM   16  O   UNL     1     -10.905  18.337  67.763  1.00  0.00    -0.386 OA 
BRANCH  16  17
HETATM   17  C   UNL     1     -10.040  19.122  68.449  1.00  0.00    -0.418 C  
HETATM   18  O   UNL     1     -10.322  20.183  68.988  1.00  0.00    -0.350 OA 
BRANCH  17  19
HETATM   19  O   UNL     1      -8.798  18.597  68.325  1.00  0.00    -0.307 OA 
BRANCH  19  20
HETATM   20  C   UNL     1      -7.752  19.380  68.920  1.00  0.00    -0.347 C  
HETATM   21  C   UNL     1      -6.972  20.076  67.819  1.00  0.00    -0.305 C  
ENDBRANCH  19  20
ENDBRANCH  17  19
ENDBRANCH  16  17
ENDBRANCH  14  16
ENDBRANCH  13  14
ENDBRANCH  11  13
ENDBRANCH   4  11
BRANCH   7  22
HETATM   22  N   UNL     1     -10.507   9.404  67.569  1.00  0.00    -0.265 N  
HETATM   23  H   UNL     1     -11.160   9.519  66.794  1.00  0.00     0.000 HD 
HETATM   24  C   UNL     1      -9.937   8.167  67.787  1.00  0.00    -0.181 C  
HETATM   25  O   UNL     1      -9.221   7.933  68.759  1.00  0.00    -0.144 OA 
BRANCH  24  26
HETATM   26  C   UNL     1     -10.285   7.105  66.718  1.00  0.00    -0.219 C  
HETATM   27  N   UNL     1     -11.523   6.377  67.111  1.00  0.00    -0.708 NA 
HETATM   28  H2  UNL     1     -12.302   7.013  67.287  1.00  0.00     0.000 HD 
HETATM   29  H1  UNL     1     -11.754   5.676  66.406  1.00  0.00     0.000 HD 
BRANCH  26  30
HETATM   30  C   UNL     1      -9.121   6.167  66.459  1.00  0.00    -0.156 A  
HETATM   31  C   UNL     1      -9.151   4.865  66.987  1.00  0.00    -0.120 A  
HETATM   32  C   UNL     1      -8.090   3.983  66.776  1.00  0.00    -0.097 A  
HETATM   33  C   UNL     1      -6.985   4.385  66.028  1.00  0.00    -0.066 A  
HETATM   34  C   UNL     1      -6.948   5.664  65.479  1.00  0.00    -0.065 A  
HETATM   35  C   UNL     1      -8.012   6.546  65.685  1.00  0.00    -0.114 A  
ENDBRANCH  26  30
ENDBRANCH  24  26
ENDBRANCH   7  22
TORSDOF 10
ENDMDL
MODEL       95
REMARK 921   NORMALIZED FREE ENERGY PREDICTED BY IDOCK:   -4.97 KCAL/MOL
REMARK 922        TOTAL FREE ENERGY PREDICTED BY IDOCK:   -9.14 KCAL/MOL
REMARK 923 INTER-LIGAND FREE ENERGY PREDICTED BY IDOCK:   -7.86 KCAL/MOL
REMARK 924 INTRA-LIGAND FREE ENERGY PREDICTED BY IDOCK:   -1.28 KCAL/MOL
REMARK 927      BINDING AFFINITY PREDICTED BY RF-SCORE:    0.00 PKD
ROOT
HETATM    1  C   UNL     1     -10.654  11.075  67.157  1.00  0.00    -0.250 C  
HETATM    2  S   UNL     1      -9.025  11.939  67.002  1.00  0.00    -0.196 SA 
HETATM    3  C   UNL     1      -8.077  10.606  67.868  1.00  0.00    -0.111 C  
HETATM    4  C   UNL     1      -8.961   9.345  67.782  1.00  0.00    -0.122 C  
HETATM    5  C   UNL     1      -6.689  10.457  67.244  1.00  0.00    -0.076 C  
HETATM    6  C   UNL     1      -7.880  11.069  69.327  1.00  0.00    -0.056 C  
HETATM    7  C   UNL     1     -11.547  11.435  68.377  1.00  0.00    -0.315 C  
HETATM    8  N   UNL     1     -10.352   9.796  67.822  1.00  0.00    -0.209 N  
HETATM    9  O   UNL     1     -10.816   9.699  70.116  1.00  0.00    -0.241 OA 
HETATM   10  C   UNL     1     -10.948  10.151  69.002  1.00  0.00    -0.226 C  
ENDROOT
BRANCH   4  11
HETATM   11  C   UNL     1      -8.795   8.470  66.521  1.00  0.00    -0.140 C  
HETATM   12  O   UNL     1      -9.251   8.711  65.410  1.00  0.00    -0.154 OA 
BRANCH  11  13
HETATM   13  O   UNL     1      -8.141   7.313  66.830  1.00  0.00    -0.116 OA 
BRANCH  13  14
HETATM   14  C   UNL     1      -7.458   6.729  65.709  1.00  0.00    -0.085 C  
HETATM   15  C   UNL     1      -5.986   7.113  65.720  1.00  0.00    -0.037 C  
BRANCH  14  16
HETATM   16  O   UNL     1      -7.506   5.301  65.824  1.00  0.00    -0.079 OA 
BRANCH  16  17
HETATM   17  C   UNL     1      -8.415   4.735  64.995  1.00  0.00    -0.137 C  
HETATM   18  O   UNL     1      -8.865   5.248  63.980  1.00  0.00    -0.069 OA 
BRANCH  17  19
HETATM   19  O   UNL     1      -8.830   3.571  65.549  1.00  0.00    -0.117 OA 
BRANCH  19  20
HETATM   20  C   UNL     1      -9.336   3.688  66.888  1.00  0.00    -0.194 C  
HETATM   21  C   UNL     1      -9.056   2.395  67.633  1.00  0.00    -0.215 C  
ENDBRANCH  19  20
ENDBRANCH  17  19
ENDBRANCH  16  17
ENDBRANCH  14  16
ENDBRANCH  13  14
ENDBRANCH  11  13
ENDBRANCH   4  11
BRANCH   7  22
HETATM   22  N   UNL     1     -11.260  12.705  69.083  1.00  0.00    -0.350 N  
HETATM   23  H   UNL     1     -10.778  12.674  69.982  1.00  0.00     0.000 HD 
HETATM   24  C   UNL     1     -11.625  13.928  68.560  1.00  0.00    -0.332 C  
HETATM   25  O   UNL     1     -12.294  14.032  67.533  1.00  0.00    -0.296 OA 
BRANCH  24  26
HETATM   26  C   UNL     1     -11.135  15.145  69.378  1.00  0.00    -0.276 C  
HETATM   27  N   UNL     1      -9.672  15.032  69.631  1.00  0.00    -0.437 NA 
HETATM   28  H2  UNL     1      -9.143  14.914  68.766  1.00  0.00     0.000 HD 
HETATM   29  H1  UNL     1      -9.349  15.835  70.171  1.00  0.00     0.000 HD 
BRANCH  26  30
HETATM   30  C   UNL     1     -11.931  15.316  70.659  1.00  0.00    -0.386 A  
HETATM   31  C   UNL     1     -13.321  15.111  70.643  1.00  0.00    -0.304 A  
HETATM   32  C   UNL     1     -14.082  15.272  71.802  1.00  0.00    -0.654 A  
HETATM   33  C   UNL     1     -13.466  15.635  72.997  1.00  0.00    -0.654 A  
HETATM   34  C   UNL     1     -12.086  15.821  73.037  1.00  0.00    -0.601 A  
HETATM   35  C   UNL     1     -11.323  15.655  71.879  1.00  0.00    -0.421 A  
ENDBRANCH  26  30
ENDBRANCH  24  26
ENDBRANCH   7  22
TORSDOF 10
ENDMDL
MODEL       96
REMARK 921   NORMALIZED FREE ENERGY PREDICTED BY IDOCK:   -4.95 KCAL/MOL
REMARK 922        TOTAL FREE ENERGY PREDICTED BY IDOCK:   -9.11 KCAL/MOL
REMARK 923 INTER-LIGAND FREE ENERGY PREDICTED BY IDOCK:   -8.07 KCAL/MOL
REMARK 924 INTRA-LIGAND FREE ENERGY PREDICTED BY IDOCK:   -1.04 KCAL/MOL
REMARK 927      BINDING AFFINITY PREDICTED BY RF-SCORE:    0.00 PKD
ROOT
HETATM    1  C   UNL     1      -8.744  12.613  67.805  1.00  0.00    -0.179 C  
HETATM    2  S   UNL     1     -10.058  13.119  69.006  1.00  0.00     0.283 SA 
HETATM    3  C   UNL     1     -10.948  11.498  68.929  1.00  0.00    -0.229 C  
HETATM    4  C   UNL     1      -9.921  10.485  68.385  1.00  0.00    -0.164 C  
HETATM    5  C   UNL     1     -11.526  11.149  70.301  1.00  0.00    -0.329 C  
HETATM    6  C   UNL     1     -12.138  11.683  67.962  1.00  0.00     0.005 C  
HETATM    7  C   UNL     1      -8.961  12.969  66.307  1.00  0.00     0.097 C  
HETATM    8  N   UNL     1      -9.051  11.214  67.461  1.00  0.00    -0.145 N  
HETATM    9  O   UNL     1     -10.142  10.876  65.416  1.00  0.00    -0.248 OA 
HETATM   10  C   UNL     1      -9.458  11.508  66.188  1.00  0.00    -0.220 C  
ENDROOT
BRANCH   4  11
HETATM   11  C   UNL     1      -9.015   9.794  69.425  1.00  0.00    -0.190 C  
HETATM   12  O   UNL     1      -7.979  10.249  69.896  1.00  0.00    -0.160 OA 
BRANCH  11  13
HETATM   13  O   UNL     1      -9.472   8.536  69.692  1.00  0.00    -0.163 OA 
BRANCH  13  14
HETATM   14  C   UNL     1      -8.878   7.526  68.860  1.00  0.00    -0.135 C  
HETATM   15  C   UNL     1      -7.724   6.848  69.583  1.00  0.00    -0.110 C  
BRANCH  14  16
HETATM   16  O   UNL     1      -9.849   6.505  68.598  1.00  0.00    -0.136 OA 
BRANCH  16  17
HETATM   17  C   UNL     1     -10.268   6.493  67.310  1.00  0.00    -0.188 C  
HETATM   18  O   UNL     1     -11.282   7.032  66.889  1.00  0.00    -0.302 OA 
BRANCH  17  19
HETATM   19  O   UNL     1      -9.444   5.684  66.602  1.00  0.00    -0.137 OA 
BRANCH  19  20
HETATM   20  C   UNL     1     -10.079   4.528  66.034  1.00  0.00    -0.259 C  
HETATM   21  C   UNL     1      -9.280   3.293  66.415  1.00  0.00    -0.161 C  
ENDBRANCH  19  20
ENDBRANCH  17  19
ENDBRANCH  16  17
ENDBRANCH  14  16
ENDBRANCH  13  14
ENDBRANCH  11  13
ENDBRANCH   4  11
BRANCH   7  22
HETATM   22  N   UNL     1      -9.949  14.027  65.993  1.00  0.00    -0.308 N  
HETATM   23  H   UNL     1     -10.920  13.764  65.825  1.00  0.00     0.000 HD 
HETATM   24  C   UNL     1      -9.594  15.358  65.923  1.00  0.00    -0.351 C  
HETATM   25  O   UNL     1      -8.427  15.735  66.016  1.00  0.00    -0.227 OA 
BRANCH  24  26
HETATM   26  C   UNL     1     -10.780  16.326  65.703  1.00  0.00    -0.286 C  
HETATM   27  N   UNL     1     -11.037  16.491  64.246  1.00  0.00    -1.300 NA 
HETATM   28  H2  UNL     1     -11.182  15.595  63.779  1.00  0.00     0.000 HD 
HETATM   29  H1  UNL     1     -11.820  17.129  64.101  1.00  0.00     0.000 HD 
BRANCH  26  30
HETATM   30  C   UNL     1     -10.558  17.653  66.405  1.00  0.00    -0.208 A  
HETATM   31  C   UNL     1     -10.324  17.673  67.790  1.00  0.00    -0.365 A  
HETATM   32  C   UNL     1     -10.128  18.879  68.466  1.00  0.00    -0.460 A  
HETATM   33  C   UNL     1     -10.156  20.083  67.767  1.00  0.00    -0.563 A  
HETATM   34  C   UNL     1     -10.364  20.081  66.390  1.00  0.00    -0.573 A  
HETATM   35  C   UNL     1     -10.555  18.875  65.712  1.00  0.00    -0.358 A  
ENDBRANCH  26  30
ENDBRANCH  24  26
ENDBRANCH   7  22
TORSDOF 10
ENDMDL
MODEL       97
REMARK 921   NORMALIZED FREE ENERGY PREDICTED BY IDOCK:   -4.95 KCAL/MOL
REMARK 922        TOTAL FREE ENERGY PREDICTED BY IDOCK:   -9.10 KCAL/MOL
REMARK 923 INTER-LIGAND FREE ENERGY PREDICTED BY IDOCK:   -8.55 KCAL/MOL
REMARK 924 INTRA-LIGAND FREE ENERGY PREDICTED BY IDOCK:   -0.55 KCAL/MOL
REMARK 927      BINDING AFFINITY PREDICTED BY RF-SCORE:    0.00 PKD
ROOT
HETATM    1  C   UNL     1      -9.245  11.980  68.175  1.00  0.00    -0.195 C  
HETATM    2  S   UNL     1      -8.275  11.044  66.907  1.00  0.00    -0.146 SA 
HETATM    3  C   UNL     1      -9.678  10.945  65.703  1.00  0.00    -0.232 C  
HETATM    4  C   UNL     1     -10.657  12.064  66.113  1.00  0.00    -0.263 C  
HETATM    5  C   UNL     1      -9.151  11.048  64.271  1.00  0.00    -0.116 C  
HETATM    6  C   UNL     1     -10.310   9.545  65.863  1.00  0.00    -0.051 C  
HETATM    7  C   UNL     1      -9.953  11.160  69.290  1.00  0.00    -0.007 C  
HETATM    8  N   UNL     1     -10.570  12.195  67.567  1.00  0.00    -0.210 N  
HETATM    9  O   UNL     1     -12.271  10.749  68.276  1.00  0.00    -0.449 OA 
HETATM   10  C   UNL     1     -11.208  11.314  68.397  1.00  0.00    -0.262 C  
ENDROOT
BRANCH   4  11
HETATM   11  C   UNL     1     -10.401  13.460  65.507  1.00  0.00    -0.295 C  
HETATM   12  O   UNL     1     -10.592  13.788  64.342  1.00  0.00    -0.418 OA 
BRANCH  11  13
HETATM   13  O   UNL     1      -9.828  14.282  66.434  1.00  0.00    -0.274 OA 
BRANCH  13  14
HETATM   14  C   UNL     1     -10.564  15.497  66.650  1.00  0.00    -0.307 C  
HETATM   15  C   UNL     1     -11.525  15.341  67.819  1.00  0.00    -0.312 C  
BRANCH  14  16
HETATM   16  O   UNL     1      -9.649  16.539  67.013  1.00  0.00    -0.233 OA 
BRANCH  16  17
HETATM   17  C   UNL     1      -9.372  17.379  65.987  1.00  0.00    -0.072 C  
HETATM   18  O   UNL     1      -8.252  17.674  65.595  1.00  0.00    -0.501 OA 
BRANCH  17  19
HETATM   19  O   UNL     1     -10.535  17.927  65.560  1.00  0.00    -0.650 OA 
BRANCH  19  20
HETATM   20  C   UNL     1     -10.618  19.353  65.706  1.00  0.00    -0.400 C  
HETATM   21  C   UNL     1     -10.708  19.691  67.184  1.00  0.00    -0.587 C  
ENDBRANCH  19  20
ENDBRANCH  17  19
ENDBRANCH  16  17
ENDBRANCH  14  16
ENDBRANCH  13  14
ENDBRANCH  11  13
ENDBRANCH   4  11
BRANCH   7  22
HETATM   22  N   UNL     1      -9.479   9.776  69.526  1.00  0.00    -0.198 N  
HETATM   23  H   UNL     1      -8.811   9.364  68.873  1.00  0.00     0.000 HD 
HETATM   24  C   UNL     1      -9.913   9.031  70.601  1.00  0.00    -0.233 C  
HETATM   25  O   UNL     1     -10.789   9.427  71.367  1.00  0.00    -0.336 OA 
BRANCH  24  26
HETATM   26  C   UNL     1      -9.219   7.656  70.748  1.00  0.00    -0.157 C  
HETATM   27  N   UNL     1      -9.437   6.843  69.520  1.00  0.00    -0.147 NA 
HETATM   28  H2  UNL     1      -9.139   7.335  68.678  1.00  0.00     0.000 HD 
HETATM   29  H1  UNL     1      -8.980   5.937  69.617  1.00  0.00     0.000 HD 
BRANCH  26  30
HETATM   30  C   UNL     1      -9.666   6.935  72.006  1.00  0.00    -0.160 A  
HETATM   31  C   UNL     1     -10.669   5.955  71.922  1.00  0.00    -0.290 A  
HETATM   32  C   UNL     1     -11.110   5.282  73.063  1.00  0.00    -0.377 A  
HETATM   33  C   UNL     1     -10.550   5.572  74.305  1.00  0.00    -0.199 A  
HETATM   34  C   UNL     1      -9.540   6.526  74.404  1.00  0.00    -0.295 A  
HETATM   35  C   UNL     1      -9.094   7.196  73.263  1.00  0.00    -0.182 A  
ENDBRANCH  26  30
ENDBRANCH  24  26
ENDBRANCH   7  22
TORSDOF 10
ENDMDL
MODEL       98
REMARK 921   NORMALIZED FREE ENERGY PREDICTED BY IDOCK:   -4.94 KCAL/MOL
REMARK 922        TOTAL FREE ENERGY PREDICTED BY IDOCK:   -9.09 KCAL/MOL
REMARK 923 INTER-LIGAND FREE ENERGY PREDICTED BY IDOCK:   -7.70 KCAL/MOL
REMARK 924 INTRA-LIGAND FREE ENERGY PREDICTED BY IDOCK:   -1.40 KCAL/MOL
REMARK 927      BINDING AFFINITY PREDICTED BY RF-SCORE:    0.00 PKD
ROOT
HETATM    1  C   UNL     1     -10.299  14.459  68.685  1.00  0.00    -0.245 C  
HETATM    2  S   UNL     1      -8.942  13.225  68.933  1.00  0.00     0.414 SA 
HETATM    3  C   UNL     1      -8.271  13.408  67.218  1.00  0.00    -0.154 C  
HETATM    4  C   UNL     1      -8.799  14.764  66.707  1.00  0.00    -0.252 C  
HETATM    5  C   UNL     1      -6.747  13.279  67.232  1.00  0.00     0.062 C  
HETATM    6  C   UNL     1      -8.826  12.229  66.389  1.00  0.00    -0.072 C  
HETATM    7  C   UNL     1     -11.688  13.922  68.241  1.00  0.00    -0.361 C  
HETATM    8  N   UNL     1     -10.116  14.964  67.313  1.00  0.00    -0.235 N  
HETATM    9  O   UNL     1     -11.530  14.049  65.686  1.00  0.00    -0.309 OA 
HETATM   10  C   UNL     1     -11.225  14.331  66.822  1.00  0.00    -0.332 C  
ENDROOT
BRANCH   4  11
HETATM   11  C   UNL     1      -7.945  16.006  67.038  1.00  0.00    -0.227 C  
HETATM   12  O   UNL     1      -7.416  16.253  68.115  1.00  0.00    -0.138 OA 
BRANCH  11  13
HETATM   13  O   UNL     1      -7.932  16.868  65.980  1.00  0.00    -0.406 OA 
BRANCH  13  14
HETATM   14  C   UNL     1      -7.395  18.161  66.306  1.00  0.00    -0.267 C  
HETATM   15  C   UNL     1      -6.059  18.377  65.611  1.00  0.00    -0.279 C  
BRANCH  14  16
HETATM   16  O   UNL     1      -8.280  19.174  65.809  1.00  0.00    -0.441 OA 
BRANCH  16  17
HETATM   17  C   UNL     1      -9.293  19.454  66.662  1.00  0.00    -0.349 C  
HETATM   18  O   UNL     1     -10.426  19.779  66.336  1.00  0.00    -0.457 OA 
BRANCH  17  19
HETATM   19  O   UNL     1      -8.803  19.436  67.925  1.00  0.00    -0.301 OA 
BRANCH  19  20
HETATM   20  C   UNL     1      -9.799  19.476  68.958  1.00  0.00    -0.418 C  
HETATM   21  C   UNL     1     -10.325  18.069  69.189  1.00  0.00    -0.071 C  
ENDBRANCH  19  20
ENDBRANCH  17  19
ENDBRANCH  16  17
ENDBRANCH  14  16
ENDBRANCH  13  14
ENDBRANCH  11  13
ENDBRANCH   4  11
BRANCH   7  22
HETATM   22  N   UNL     1     -11.963  12.481  68.453  1.00  0.00    -0.290 N  
HETATM   23  H   UNL     1     -12.013  11.863  67.643  1.00  0.00     0.000 HD 
HETATM   24  C   UNL     1     -12.152  11.954  69.713  1.00  0.00    -0.252 C  
HETATM   25  O   UNL     1     -12.204  12.656  70.721  1.00  0.00    -0.366 OA 
BRANCH  24  26
HETATM   26  C   UNL     1     -12.307  10.415  69.745  1.00  0.00    -0.053 C  
HETATM   27  N   UNL     1     -13.196  10.018  70.872  1.00  0.00    -0.542 NA 
HETATM   28  H2  UNL     1     -14.098  10.494  70.833  1.00  0.00     0.000 HD 
HETATM   29  H1  UNL     1     -13.298   9.004  70.894  1.00  0.00     0.000 HD 
BRANCH  26  30
HETATM   30  C   UNL     1     -10.960   9.717  69.798  1.00  0.00    -0.287 A  
HETATM   31  C   UNL     1     -10.199   9.595  68.624  1.00  0.00    -0.209 A  
HETATM   32  C   UNL     1      -8.962   8.947  68.637  1.00  0.00    -0.137 A  
HETATM   33  C   UNL     1      -8.463   8.418  69.826  1.00  0.00    -0.127 A  
HETATM   34  C   UNL     1      -9.195   8.550  71.004  1.00  0.00    -0.227 A  
HETATM   35  C   UNL     1     -10.430   9.202  70.992  1.00  0.00    -0.368 A  
ENDBRANCH  26  30
ENDBRANCH  24  26
ENDBRANCH   7  22
TORSDOF 10
ENDMDL
MODEL       99
REMARK 921   NORMALIZED FREE ENERGY PREDICTED BY IDOCK:   -4.94 KCAL/MOL
REMARK 922        TOTAL FREE ENERGY PREDICTED BY IDOCK:   -9.09 KCAL/MOL
REMARK 923 INTER-LIGAND FREE ENERGY PREDICTED BY IDOCK:   -8.50 KCAL/MOL
REMARK 924 INTRA-LIGAND FREE ENERGY PREDICTED BY IDOCK:   -0.59 KCAL/MOL
REMARK 927      BINDING AFFINITY PREDICTED BY RF-SCORE:    0.00 PKD
ROOT
HETATM    1  C   UNL     1     -10.673  15.692  66.931  1.00  0.00    -0.307 C  
HETATM    2  S   UNL     1      -9.011  14.933  66.636  1.00  0.00    -0.251 SA 
HETATM    3  C   UNL     1      -8.951  14.087  68.281  1.00  0.00    -0.190 C  
HETATM    4  C   UNL     1     -10.414  14.011  68.764  1.00  0.00    -0.233 C  
HETATM    5  C   UNL     1      -8.250  12.734  68.151  1.00  0.00    -0.167 C  
HETATM    6  C   UNL     1      -8.087  14.967  69.209  1.00  0.00    -0.178 C  
HETATM    7  C   UNL     1     -10.715  17.134  67.511  1.00  0.00    -0.276 C  
HETATM    8  N   UNL     1     -11.092  15.204  68.257  1.00  0.00    -0.278 N  
HETATM    9  O   UNL     1     -10.812  16.701  70.036  1.00  0.00    -0.329 OA 
HETATM   10  C   UNL     1     -10.938  16.420  68.866  1.00  0.00    -0.332 C  
ENDROOT
BRANCH   4  11
HETATM   11  C   UNL     1     -11.230  12.785  68.303  1.00  0.00    -0.271 C  
HETATM   12  O   UNL     1     -11.937  12.721  67.304  1.00  0.00    -0.369 OA 
BRANCH  11  13
HETATM   13  O   UNL     1     -11.142  11.783  69.226  1.00  0.00    -0.242 OA 
BRANCH  13  14
HETATM   14  C   UNL     1     -11.394  10.480  68.676  1.00  0.00    -0.252 C  
HETATM   15  C   UNL     1     -10.197   9.996  67.873  1.00  0.00    -0.228 C  
BRANCH  14  16
HETATM   16  O   UNL     1     -11.568   9.545  69.750  1.00  0.00    -0.092 OA 
BRANCH  16  17
HETATM   17  C   UNL     1     -11.998  10.129  70.894  1.00  0.00    -0.365 C  
HETATM   18  O   UNL     1     -12.919  10.929  70.978  1.00  0.00    -0.353 OA 
BRANCH  17  19
HETATM   19  O   UNL     1     -11.156   9.776  71.894  1.00  0.00    -0.068 OA 
BRANCH  19  20
HETATM   20  C   UNL     1     -10.378   8.597  71.638  1.00  0.00    -0.296 C  
HETATM   21  C   UNL     1      -9.397   8.398  72.781  1.00  0.00    -0.312 C  
ENDBRANCH  19  20
ENDBRANCH  17  19
ENDBRANCH  16  17
ENDBRANCH  14  16
ENDBRANCH  13  14
ENDBRANCH  11  13
ENDBRANCH   4  11
BRANCH   7  22
HETATM   22  N   UNL     1      -9.485  17.952  67.394  1.00  0.00    -0.256 N  
HETATM   23  H   UNL     1      -8.577  17.490  67.441  1.00  0.00     0.000 HD 
HETATM   24  C   UNL     1      -9.534  19.320  67.225  1.00  0.00    -0.314 C  
HETATM   25  O   UNL     1     -10.588  19.952  67.260  1.00  0.00    -0.430 OA 
BRANCH  24  26
HETATM   26  C   UNL     1      -8.156  19.986  67.002  1.00  0.00    -0.318 C  
HETATM   27  N   UNL     1      -7.786  19.919  65.562  1.00  0.00    -0.445 NA 
HETATM   28  H2  UNL     1      -8.508  20.322  64.963  1.00  0.00     0.000 HD 
HETATM   29  H1  UNL     1      -6.878  20.359  65.414  1.00  0.00     0.000 HD 
BRANCH  26  30
HETATM   30  C   UNL     1      -7.090  19.384  67.900  1.00  0.00    -0.290 A  
HETATM   31  C   UNL     1      -7.062  19.724  69.263  1.00  0.00    -0.335 A  
HETATM   32  C   UNL     1      -6.088  19.196  70.112  1.00  0.00    -0.210 A  
HETATM   33  C   UNL     1      -5.130  18.316  69.614  1.00  0.00    -0.184 A  
HETATM   34  C   UNL     1      -5.156  17.951  68.270  1.00  0.00    -0.154 A  
HETATM   35  C   UNL     1      -6.134  18.474  67.421  1.00  0.00    -0.177 A  
ENDBRANCH  26  30
ENDBRANCH  24  26
ENDBRANCH   7  22
TORSDOF 10
ENDMDL
MODEL      100
REMARK 921   NORMALIZED FREE ENERGY PREDICTED BY IDOCK:   -4.94 KCAL/MOL
REMARK 922        TOTAL FREE ENERGY PREDICTED BY IDOCK:   -9.09 KCAL/MOL
REMARK 923 INTER-LIGAND FREE ENERGY PREDICTED BY IDOCK:   -9.03 KCAL/MOL
REMARK 924 INTRA-LIGAND FREE ENERGY PREDICTED BY IDOCK:   -0.06 KCAL/MOL
REMARK 927      BINDING AFFINITY PREDICTED BY RF-SCORE:    0.00 PKD
ROOT
HETATM    1  C   UNL     1     -11.390  12.885  67.694  1.00  0.00    -0.303 C  
HETATM    2  S   UNL     1      -9.879  13.519  68.555  1.00  0.00    -0.140 SA 
HETATM    3  C   UNL     1      -8.890  13.681  66.999  1.00  0.00    -0.223 C  
HETATM    4  C   UNL     1      -9.921  13.726  65.853  1.00  0.00    -0.293 C  
HETATM    5  C   UNL     1      -7.973  14.902  67.083  1.00  0.00    -0.227 C  
HETATM    6  C   UNL     1      -7.987  12.432  66.907  1.00  0.00    -0.041 C  
HETATM    7  C   UNL     1     -11.569  11.345  67.593  1.00  0.00    -0.238 C  
HETATM    8  N   UNL     1     -11.048  12.886  66.261  1.00  0.00    -0.281 N  
HETATM    9  O   UNL     1     -10.450  10.814  65.348  1.00  0.00    -0.260 OA 
HETATM   10  C   UNL     1     -10.985  11.522  66.170  1.00  0.00    -0.266 C  
ENDROOT
BRANCH   4  11
HETATM   11  C   UNL     1     -10.488  15.114  65.488  1.00  0.00    -0.379 C  
HETATM   12  O   UNL     1     -11.472  15.332  64.792  1.00  0.00    -0.401 OA 
BRANCH  11  13
HETATM   13  O   UNL     1      -9.676  16.099  65.972  1.00  0.00    -0.301 OA 
BRANCH  13  14
HETATM   14  C   UNL     1     -10.379  17.314  66.279  1.00  0.00    -0.322 C  
HETATM   15  C   UNL     1     -10.734  17.370  67.757  1.00  0.00    -0.332 C  
BRANCH  14  16
HETATM   16  O   UNL     1      -9.514  18.430  66.027  1.00  0.00    -0.498 OA 
BRANCH  16  17
HETATM   17  C   UNL     1     -10.160  19.620  66.079  1.00  0.00    -0.461 C  
HETATM   18  O   UNL     1     -11.081  19.959  65.350  1.00  0.00    -0.338 OA 
BRANCH  17  19
HETATM   19  O   UNL     1      -9.530  20.407  66.983  1.00  0.00    -0.399 OA 
BRANCH  19  20
HETATM   20  C   UNL     1      -8.123  20.158  67.122  1.00  0.00    -0.329 C  
HETATM   21  C   UNL     1      -7.835  19.750  68.556  1.00  0.00    -0.310 C  
ENDBRANCH  19  20
ENDBRANCH  17  19
ENDBRANCH  16  17
ENDBRANCH  14  16
ENDBRANCH  13  14
ENDBRANCH  11  13
ENDBRANCH   4  11
BRANCH   7  22
HETATM   22  N   UNL     1     -10.784  10.503  68.526  1.00  0.00    -0.208 N  
HETATM   23  H   UNL     1      -9.967  10.004  68.174  1.00  0.00     0.000 HD 
HETATM   24  C   UNL     1     -11.125  10.376  69.856  1.00  0.00    -0.305 C  
HETATM   25  O   UNL     1     -12.151  10.868  70.323  1.00  0.00    -0.294 OA 
BRANCH  24  26
HETATM   26  C   UNL     1     -10.122   9.555  70.698  1.00  0.00    -0.286 C  
HETATM   27  N   UNL     1      -8.744  10.086  70.506  1.00  0.00    -0.338 NA 
HETATM   28  H2  UNL     1      -8.687  11.085  70.708  1.00  0.00     0.000 HD 
HETATM   29  H1  UNL     1      -8.082   9.545  71.061  1.00  0.00     0.000 HD 
BRANCH  26  30
HETATM   30  C   UNL     1     -10.217   8.071  70.394  1.00  0.00    -0.201 A  
HETATM   31  C   UNL     1     -11.462   7.427  70.475  1.00  0.00    -0.281 A  
HETATM   32  C   UNL     1     -11.580   6.060  70.214  1.00  0.00    -0.110 A  
HETATM   33  C   UNL     1     -10.455   5.318  69.860  1.00  0.00    -0.351 A  
HETATM   34  C   UNL     1      -9.216   5.945  69.753  1.00  0.00    -0.160 A  
HETATM   35  C   UNL     1      -9.098   7.312  70.010  1.00  0.00    -0.148 A  
ENDBRANCH  26  30
ENDBRANCH  24  26
ENDBRANCH   7  22
TORSDOF 10
ENDMDL
MODEL      101
REMARK 921   NORMALIZED FREE ENERGY PREDICTED BY IDOCK:   -4.93 KCAL/MOL
REMARK 922        TOTAL FREE ENERGY PREDICTED BY IDOCK:   -9.07 KCAL/MOL
REMARK 923 INTER-LIGAND FREE ENERGY PREDICTED BY IDOCK:   -7.47 KCAL/MOL
REMARK 924 INTRA-LIGAND FREE ENERGY PREDICTED BY IDOCK:   -1.60 KCAL/MOL
REMARK 927      BINDING AFFINITY PREDICTED BY RF-SCORE:    0.00 PKD
ROOT
HETATM    1  C   UNL     1     -10.755   7.834  67.375  1.00  0.00    -0.230 C  
HETATM    2  S   UNL     1      -9.497   6.595  66.819  1.00  0.00    -0.163 SA 
HETATM    3  C   UNL     1      -8.365   6.893  68.253  1.00  0.00    -0.123 C  
HETATM    4  C   UNL     1      -9.237   7.551  69.341  1.00  0.00    -0.149 C  
HETATM    5  C   UNL     1      -7.694   5.586  68.674  1.00  0.00    -0.088 C  
HETATM    6  C   UNL     1      -7.253   7.844  67.758  1.00  0.00    -0.091 C  
HETATM    7  C   UNL     1     -10.648   9.275  66.802  1.00  0.00    -0.137 C  
HETATM    8  N   UNL     1     -10.242   8.360  68.651  1.00  0.00    -0.198 N  
HETATM    9  O   UNL     1      -9.181  10.446  68.549  1.00  0.00    -0.134 OA 
HETATM   10  C   UNL     1      -9.930   9.589  68.137  1.00  0.00    -0.165 C  
ENDROOT
BRANCH   4  11
HETATM   11  C   UNL     1      -9.987   6.597  70.295  1.00  0.00    -0.174 C  
HETATM   12  O   UNL     1     -10.791   5.733  69.967  1.00  0.00    -0.316 OA 
BRANCH  11  13
HETATM   13  O   UNL     1      -9.709   6.910  71.594  1.00  0.00    -0.163 OA 
BRANCH  13  14
HETATM   14  C   UNL     1     -10.874   6.940  72.434  1.00  0.00    -0.235 C  
HETATM   15  C   UNL     1     -10.487   6.771  73.895  1.00  0.00    -0.356 C  
BRANCH  14  16
HETATM   16  O   UNL     1     -11.496   8.228  72.325  1.00  0.00    -0.331 OA 
BRANCH  16  17
HETATM   17  C   UNL     1     -12.732   8.173  71.775  1.00  0.00    -0.330 C  
HETATM   18  O   UNL     1     -13.417   7.165  71.670  1.00  0.00    -0.379 OA 
BRANCH  17  19
HETATM   19  O   UNL     1     -13.020   9.388  71.252  1.00  0.00    -0.328 OA 
BRANCH  19  20
HETATM   20  C   UNL     1     -11.940  10.333  71.295  1.00  0.00    -0.363 C  
HETATM   21  C   UNL     1     -12.448  11.681  70.813  1.00  0.00    -0.425 C  
ENDBRANCH  19  20
ENDBRANCH  17  19
ENDBRANCH  16  17
ENDBRANCH  14  16
ENDBRANCH  13  14
ENDBRANCH  11  13
ENDBRANCH   4  11
BRANCH   7  22
HETATM   22  N   UNL     1      -9.850   9.462  65.568  1.00  0.00    -0.431 N  
HETATM   23  H   UNL     1      -9.272   8.692  65.231  1.00  0.00     0.000 HD 
HETATM   24  C   UNL     1      -9.868  10.646  64.861  1.00  0.00    -0.302 C  
HETATM   25  O   UNL     1     -10.463  11.645  65.263  1.00  0.00    -0.254 OA 
BRANCH  24  26
HETATM   26  C   UNL     1      -9.069  10.613  63.537  1.00  0.00    -0.238 C  
HETATM   27  N   UNL     1      -9.995  10.395  62.391  1.00  0.00    -0.749 NA 
HETATM   28  H2  UNL     1     -10.746  11.086  62.369  1.00  0.00     0.000 HD 
HETATM   29  H1  UNL     1      -9.468  10.373  61.518  1.00  0.00     0.000 HD 
BRANCH  26  30
HETATM   30  C   UNL     1      -7.953   9.586  63.582  1.00  0.00    -0.141 A  
HETATM   31  C   UNL     1      -6.721   9.928  64.165  1.00  0.00    -0.126 A  
HETATM   32  C   UNL     1      -5.671   9.009  64.210  1.00  0.00    -0.069 A  
HETATM   33  C   UNL     1      -5.837   7.732  63.679  1.00  0.00    -0.057 A  
HETATM   34  C   UNL     1      -7.058   7.369  63.116  1.00  0.00    -0.070 A  
HETATM   35  C   UNL     1      -8.111   8.285  63.075  1.00  0.00    -0.152 A  
ENDBRANCH  26  30
ENDBRANCH  24  26
ENDBRANCH   7  22
TORSDOF 10
ENDMDL
MODEL      102
REMARK 921   NORMALIZED FREE ENERGY PREDICTED BY IDOCK:   -4.91 KCAL/MOL
REMARK 922        TOTAL FREE ENERGY PREDICTED BY IDOCK:   -9.04 KCAL/MOL
REMARK 923 INTER-LIGAND FREE ENERGY PREDICTED BY IDOCK:   -8.18 KCAL/MOL
REMARK 924 INTRA-LIGAND FREE ENERGY PREDICTED BY IDOCK:   -0.86 KCAL/MOL
REMARK 927      BINDING AFFINITY PREDICTED BY RF-SCORE:    0.00 PKD
ROOT
HETATM    1  C   UNL     1     -10.205  11.539  69.520  1.00  0.00     0.331 C  
HETATM    2  S   UNL     1      -9.401   9.874  69.436  1.00  0.00    -0.225 SA 
HETATM    3  C   UNL     1      -9.309   9.856  67.588  1.00  0.00    -0.140 C  
HETATM    4  C   UNL     1      -9.432  11.331  67.151  1.00  0.00    -0.170 C  
HETATM    5  C   UNL     1      -8.027   9.159  67.131  1.00  0.00    -0.106 C  
HETATM    6  C   UNL     1     -10.499   9.010  67.086  1.00  0.00    -0.333 C  
HETATM    7  C   UNL     1     -11.758  11.587  69.588  1.00  0.00    -0.351 C  
HETATM    8  N   UNL     1     -10.306  11.991  68.121  1.00  0.00    -0.192 N  
HETATM    9  O   UNL     1     -12.405  11.745  67.113  1.00  0.00    -0.175 OA 
HETATM   10  C   UNL     1     -11.665  11.845  68.064  1.00  0.00    -0.312 C  
ENDROOT
BRANCH   4  11
HETATM   11  C   UNL     1      -8.121  12.142  67.083  1.00  0.00    -0.175 C  
HETATM   12  O   UNL     1      -7.262  12.054  66.215  1.00  0.00     0.281 OA 
BRANCH  11  13
HETATM   13  O   UNL     1      -7.988  12.923  68.195  1.00  0.00    -0.135 OA 
BRANCH  13  14
HETATM   14  C   UNL     1      -7.856  14.322  67.894  1.00  0.00    -0.152 C  
HETATM   15  C   UNL     1      -6.391  14.700  67.736  1.00  0.00    -0.170 C  
BRANCH  14  16
HETATM   16  O   UNL     1      -8.483  14.591  66.633  1.00  0.00    -0.149 OA 
BRANCH  16  17
HETATM   17  C   UNL     1      -9.430  15.556  66.710  1.00  0.00    -0.237 C  
HETATM   18  O   UNL     1      -9.241  16.706  67.080  1.00  0.00    -0.216 OA 
BRANCH  17  19
HETATM   19  O   UNL     1     -10.631  14.997  66.430  1.00  0.00    -0.295 OA 
BRANCH  19  20
HETATM   20  C   UNL     1     -10.693  14.299  65.177  1.00  0.00    -0.394 C  
HETATM   21  C   UNL     1     -12.115  14.366  64.647  1.00  0.00    -0.485 C  
ENDBRANCH  19  20
ENDBRANCH  17  19
ENDBRANCH  16  17
ENDBRANCH  14  16
ENDBRANCH  13  14
ENDBRANCH  11  13
ENDBRANCH   4  11
BRANCH   7  22
HETATM   22  N   UNL     1     -12.461  10.351  70.004  1.00  0.00    -0.529 N  
HETATM   23  H   UNL     1     -12.578   9.596  69.327  1.00  0.00     0.000 HD 
HETATM   24  C   UNL     1     -12.963  10.192  71.278  1.00  0.00    -0.413 C  
HETATM   25  O   UNL     1     -12.946  11.096  72.111  1.00  0.00    -0.399 OA 
BRANCH  24  26
HETATM   26  C   UNL     1     -13.557   8.792  71.561  1.00  0.00    -0.331 C  
HETATM   27  N   UNL     1     -14.360   8.826  72.815  1.00  0.00    -1.038 NA 
HETATM   28  H2  UNL     1     -15.079   9.550  72.789  1.00  0.00     0.000 HD 
HETATM   29  H1  UNL     1     -14.751   7.903  73.002  1.00  0.00     0.000 HD 
BRANCH  26  30
HETATM   30  C   UNL     1     -12.481   7.722  71.593  1.00  0.00    -0.352 A  
HETATM   31  C   UNL     1     -12.286   6.904  70.468  1.00  0.00    -0.253 A  
HETATM   32  C   UNL     1     -11.312   5.903  70.471  1.00  0.00    -0.215 A  
HETATM   33  C   UNL     1     -10.513   5.709  71.596  1.00  0.00    -0.286 A  
HETATM   34  C   UNL     1     -10.678   6.526  72.713  1.00  0.00    -0.269 A  
HETATM   35  C   UNL     1     -11.648   7.531  72.709  1.00  0.00    -0.299 A  
ENDBRANCH  26  30
ENDBRANCH  24  26
ENDBRANCH   7  22
TORSDOF 10
ENDMDL
MODEL      103
REMARK 921   NORMALIZED FREE ENERGY PREDICTED BY IDOCK:   -4.90 KCAL/MOL
REMARK 922        TOTAL FREE ENERGY PREDICTED BY IDOCK:   -9.02 KCAL/MOL
REMARK 923 INTER-LIGAND FREE ENERGY PREDICTED BY IDOCK:   -7.65 KCAL/MOL
REMARK 924 INTRA-LIGAND FREE ENERGY PREDICTED BY IDOCK:   -1.37 KCAL/MOL
REMARK 927      BINDING AFFINITY PREDICTED BY RF-SCORE:    0.00 PKD
ROOT
HETATM    1  C   UNL     1     -10.017  10.089  65.900  1.00  0.00    -0.269 C  
HETATM    2  S   UNL     1     -10.903   9.492  67.412  1.00  0.00    -0.029 SA 
HETATM    3  C   UNL     1     -10.735  11.098  68.316  1.00  0.00    -0.196 C  
HETATM    4  C   UNL     1     -10.460  12.159  67.231  1.00  0.00    -0.218 C  
HETATM    5  C   UNL     1     -11.980  11.358  69.164  1.00  0.00    -0.395 C  
HETATM    6  C   UNL     1      -9.541  10.946  69.283  1.00  0.00    -0.067 C  
HETATM    7  C   UNL     1      -8.490   9.814  65.805  1.00  0.00    -0.133 C  
HETATM    8  N   UNL     1      -9.693  11.500  66.174  1.00  0.00    -0.215 N  
HETATM    9  O   UNL     1      -7.491  11.933  66.846  1.00  0.00    -0.139 OA 
HETATM   10  C   UNL     1      -8.350  11.271  66.311  1.00  0.00    -0.142 C  
ENDROOT
BRANCH   4  11
HETATM   11  C   UNL     1     -11.695  12.806  66.570  1.00  0.00    -0.400 C  
HETATM   12  O   UNL     1     -12.350  12.336  65.647  1.00  0.00    -0.619 OA 
BRANCH  11  13
HETATM   13  O   UNL     1     -11.916  14.048  67.091  1.00  0.00    -0.400 OA 
BRANCH  13  14
HETATM   14  C   UNL     1     -10.794  14.933  66.946  1.00  0.00    -0.319 C  
HETATM   15  C   UNL     1     -10.568  15.277  65.482  1.00  0.00    -0.390 C  
BRANCH  14  16
HETATM   16  O   UNL     1     -11.084  16.169  67.613  1.00  0.00    -0.301 OA 
BRANCH  16  17
HETATM   17  C   UNL     1     -10.037  16.639  68.333  1.00  0.00    -0.268 C  
HETATM   18  O   UNL     1      -9.607  16.142  69.364  1.00  0.00    -0.249 OA 
BRANCH  17  19
HETATM   19  O   UNL     1      -9.637  17.812  67.787  1.00  0.00    -0.262 OA 
BRANCH  19  20
HETATM   20  C   UNL     1     -10.703  18.709  67.439  1.00  0.00    -0.402 C  
HETATM   21  C   UNL     1     -10.372  19.373  66.114  1.00  0.00    -0.595 C  
ENDBRANCH  19  20
ENDBRANCH  17  19
ENDBRANCH  16  17
ENDBRANCH  14  16
ENDBRANCH  13  14
ENDBRANCH  11  13
ENDBRANCH   4  11
BRANCH   7  22
HETATM   22  N   UNL     1      -7.930   8.758  66.680  1.00  0.00    -0.099 N  
HETATM   23  H   UNL     1      -7.541   9.020  67.586  1.00  0.00     0.000 HD 
HETATM   24  C   UNL     1      -7.921   7.431  66.305  1.00  0.00    -0.109 C  
HETATM   25  O   UNL     1      -8.281   7.059  65.190  1.00  0.00    -0.134 OA 
BRANCH  24  26
HETATM   26  C   UNL     1      -7.407   6.462  67.395  1.00  0.00    -0.087 C  
HETATM   27  N   UNL     1      -6.830   5.245  66.761  1.00  0.00    -0.061 NA 
HETATM   28  H2  UNL     1      -6.105   5.475  66.081  1.00  0.00     0.000 HD 
HETATM   29  H1  UNL     1      -6.491   4.605  67.480  1.00  0.00     0.000 HD 
BRANCH  26  30
HETATM   30  C   UNL     1      -8.491   6.129  68.404  1.00  0.00    -0.114 A  
HETATM   31  C   UNL     1      -8.154   5.997  69.762  1.00  0.00    -0.114 A  
HETATM   32  C   UNL     1      -9.126   5.680  70.713  1.00  0.00    -0.164 A  
HETATM   33  C   UNL     1     -10.451   5.495  70.323  1.00  0.00    -0.365 A  
HETATM   34  C   UNL     1     -10.806   5.643  68.984  1.00  0.00    -0.251 A  
HETATM   35  C   UNL     1      -9.836   5.965  68.033  1.00  0.00    -0.144 A  
ENDBRANCH  26  30
ENDBRANCH  24  26
ENDBRANCH   7  22
TORSDOF 10
ENDMDL
MODEL      104
REMARK 921   NORMALIZED FREE ENERGY PREDICTED BY IDOCK:   -4.88 KCAL/MOL
REMARK 922        TOTAL FREE ENERGY PREDICTED BY IDOCK:   -8.99 KCAL/MOL
REMARK 923 INTER-LIGAND FREE ENERGY PREDICTED BY IDOCK:   -7.44 KCAL/MOL
REMARK 924 INTRA-LIGAND FREE ENERGY PREDICTED BY IDOCK:   -1.56 KCAL/MOL
REMARK 927      BINDING AFFINITY PREDICTED BY RF-SCORE:    0.00 PKD
ROOT
HETATM    1  C   UNL     1      -8.422   9.250  66.890  1.00  0.00    -0.127 C  
HETATM    2  S   UNL     1      -8.574  10.347  68.373  1.00  0.00    -0.134 SA 
HETATM    3  C   UNL     1      -9.155   8.992  69.491  1.00  0.00    -0.151 C  
HETATM    4  C   UNL     1      -8.720   7.677  68.811  1.00  0.00    -0.128 C  
HETATM    5  C   UNL     1      -8.598   9.197  70.900  1.00  0.00    -0.259 C  
HETATM    6  C   UNL     1     -10.692   9.109  69.580  1.00  0.00    -0.226 C  
HETATM    7  C   UNL     1      -9.637   9.172  65.924  1.00  0.00    -0.273 C  
HETATM    8  N   UNL     1      -8.783   7.903  67.367  1.00  0.00    -0.127 N  
HETATM    9  O   UNL     1     -10.957   7.188  66.868  1.00  0.00    -0.363 OA 
HETATM   10  C   UNL     1      -9.975   7.874  66.696  1.00  0.00    -0.246 C  
ENDROOT
BRANCH   4  11
HETATM   11  C   UNL     1      -7.301   7.167  69.137  1.00  0.00    -0.092 C  
HETATM   12  O   UNL     1      -6.261   7.534  68.604  1.00  0.00    -0.030 OA 
BRANCH  11  13
HETATM   13  O   UNL     1      -7.360   6.157  70.054  1.00  0.00    -0.074 OA 
BRANCH  13  14
HETATM   14  C   UNL     1      -8.248   5.094  69.672  1.00  0.00    -0.093 C  
HETATM   15  C   UNL     1      -7.461   3.873  69.223  1.00  0.00    -0.053 C  
BRANCH  14  16
HETATM   16  O   UNL     1      -9.009   4.687  70.817  1.00  0.00    -0.115 OA 
BRANCH  16  17
HETATM   17  C   UNL     1     -10.144   5.408  70.979  1.00  0.00    -0.216 C  
HETATM   18  O   UNL     1     -11.017   5.555  70.136  1.00  0.00    -0.286 OA 
BRANCH  17  19
HETATM   19  O   UNL     1     -10.084   6.034  72.179  1.00  0.00    -0.179 OA 
BRANCH  19  20
HETATM   20  C   UNL     1     -11.358   6.355  72.756  1.00  0.00    -0.191 C  
HETATM   21  C   UNL     1     -11.455   7.861  72.929  1.00  0.00    -0.357 C  
ENDBRANCH  19  20
ENDBRANCH  17  19
ENDBRANCH  16  17
ENDBRANCH  14  16
ENDBRANCH  13  14
ENDBRANCH  11  13
ENDBRANCH   4  11
BRANCH   7  22
HETATM   22  N   UNL     1     -10.639  10.261  65.998  1.00  0.00    -0.105 N  
HETATM   23  H   UNL     1     -11.256  10.312  66.809  1.00  0.00     0.000 HD 
HETATM   24  C   UNL     1     -10.761  11.207  65.002  1.00  0.00    -0.231 C  
HETATM   25  O   UNL     1     -10.120  11.149  63.954  1.00  0.00    -0.284 OA 
BRANCH  24  26
HETATM   26  C   UNL     1     -11.777  12.332  65.310  1.00  0.00    -0.361 C  
HETATM   27  N   UNL     1     -12.832  12.365  64.260  1.00  0.00    -0.717 NA 
HETATM   28  H2  UNL     1     -13.287  11.458  64.147  1.00  0.00     0.000 HD 
HETATM   29  H1  UNL     1     -13.502  13.107  64.463  1.00  0.00     0.000 HD 
BRANCH  26  30
HETATM   30  C   UNL     1     -11.091  13.675  65.482  1.00  0.00    -0.301 A  
HETATM   31  C   UNL     1      -9.858  13.742  66.153  1.00  0.00    -0.310 A  
HETATM   32  C   UNL     1      -9.209  14.964  66.337  1.00  0.00    -0.317 A  
HETATM   33  C   UNL     1      -9.778  16.138  65.848  1.00  0.00    -0.374 A  
HETATM   34  C   UNL     1     -10.989  16.088  65.162  1.00  0.00    -0.360 A  
HETATM   35  C   UNL     1     -11.637  14.865  64.973  1.00  0.00    -0.357 A  
ENDBRANCH  26  30
ENDBRANCH  24  26
ENDBRANCH   7  22
TORSDOF 10
ENDMDL
MODEL      105
REMARK 921   NORMALIZED FREE ENERGY PREDICTED BY IDOCK:   -4.87 KCAL/MOL
REMARK 922        TOTAL FREE ENERGY PREDICTED BY IDOCK:   -8.97 KCAL/MOL
REMARK 923 INTER-LIGAND FREE ENERGY PREDICTED BY IDOCK:   -8.52 KCAL/MOL
REMARK 924 INTRA-LIGAND FREE ENERGY PREDICTED BY IDOCK:   -0.45 KCAL/MOL
REMARK 927      BINDING AFFINITY PREDICTED BY RF-SCORE:    0.00 PKD
ROOT
HETATM    1  C   UNL     1      -9.269  14.187  66.943  1.00  0.00    -0.257 C  
HETATM    2  S   UNL     1     -10.040  13.160  65.610  1.00  0.00    -0.240 SA 
HETATM    3  C   UNL     1     -11.603  14.149  65.558  1.00  0.00    -0.337 C  
HETATM    4  C   UNL     1     -11.256  15.509  66.197  1.00  0.00    -0.102 C  
HETATM    5  C   UNL     1     -12.126  14.231  64.123  1.00  0.00    -0.423 C  
HETATM    6  C   UNL     1     -12.652  13.378  66.387  1.00  0.00    -0.160 C  
HETATM    7  C   UNL     1      -9.447  13.712  68.413  1.00  0.00    -0.190 C  
HETATM    8  N   UNL     1     -10.248  15.252  67.225  1.00  0.00    -0.245 N  
HETATM    9  O   UNL     1     -11.579  14.944  69.128  1.00  0.00    -0.275 OA 
HETATM   10  C   UNL     1     -10.596  14.749  68.449  1.00  0.00    -0.242 C  
ENDROOT
BRANCH   4  11
HETATM   11  C   UNL     1     -10.689  16.590  65.253  1.00  0.00    -0.254 C  
HETATM   12  O   UNL     1     -11.173  16.943  64.185  1.00  0.00    -1.176 OA 
BRANCH  11  13
HETATM   13  O   UNL     1      -9.494  17.051  65.725  1.00  0.00    -0.518 OA 
BRANCH  13  14
HETATM   14  C   UNL     1      -9.529  18.434  66.111  1.00  0.00    -0.156 C  
HETATM   15  C   UNL     1     -10.775  18.730  66.932  1.00  0.00    -0.406 C  
BRANCH  14  16
HETATM   16  O   UNL     1      -8.408  18.712  66.960  1.00  0.00    -0.257 OA 
BRANCH  16  17
HETATM   17  C   UNL     1      -7.350  19.225  66.287  1.00  0.00    -0.264 C  
HETATM   18  O   UNL     1      -7.412  19.831  65.226  1.00  0.00    -0.378 OA 
BRANCH  17  19
HETATM   19  O   UNL     1      -6.216  18.843  66.921  1.00  0.00    -0.180 OA 
BRANCH  19  20
HETATM   20  C   UNL     1      -5.389  19.924  67.377  1.00  0.00    -0.166 C  
HETATM   21  C   UNL     1      -5.989  20.499  68.648  1.00  0.00    -0.366 C  
ENDBRANCH  19  20
ENDBRANCH  17  19
ENDBRANCH  16  17
ENDBRANCH  14  16
ENDBRANCH  13  14
ENDBRANCH  11  13
ENDBRANCH   4  11
BRANCH   7  22
HETATM   22  N   UNL     1      -9.831  12.298  68.631  1.00  0.00    -0.381 N  
HETATM   23  H   UNL     1     -10.820  12.048  68.635  1.00  0.00     0.000 HD 
HETATM   24  C   UNL     1      -8.889  11.311  68.829  1.00  0.00    -0.102 C  
HETATM   25  O   UNL     1      -7.689  11.556  68.936  1.00  0.00    -0.132 OA 
BRANCH  24  26
HETATM   26  C   UNL     1      -9.472   9.881  68.920  1.00  0.00    -0.170 C  
HETATM   27  N   UNL     1      -9.163   9.291  70.252  1.00  0.00    -0.217 NA 
HETATM   28  H2  UNL     1      -9.484   9.884  71.017  1.00  0.00     0.000 HD 
HETATM   29  H1  UNL     1      -9.547   8.347  70.312  1.00  0.00     0.000 HD 
BRANCH  26  30
HETATM   30  C   UNL     1      -8.992   9.006  67.776  1.00  0.00    -0.132 A  
HETATM   31  C   UNL     1      -9.162   9.445  66.452  1.00  0.00    -0.215 A  
HETATM   32  C   UNL     1      -8.743   8.658  65.378  1.00  0.00    -0.208 A  
HETATM   33  C   UNL     1      -8.140   7.424  65.610  1.00  0.00    -0.129 A  
HETATM   34  C   UNL     1      -7.943   6.983  66.916  1.00  0.00    -0.115 A  
HETATM   35  C   UNL     1      -8.358   7.771  67.992  1.00  0.00    -0.124 A  
ENDBRANCH  26  30
ENDBRANCH  24  26
ENDBRANCH   7  22
TORSDOF 10
ENDMDL
MODEL      106
REMARK 921   NORMALIZED FREE ENERGY PREDICTED BY IDOCK:   -4.84 KCAL/MOL
REMARK 922        TOTAL FREE ENERGY PREDICTED BY IDOCK:   -8.93 KCAL/MOL
REMARK 923 INTER-LIGAND FREE ENERGY PREDICTED BY IDOCK:   -7.31 KCAL/MOL
REMARK 924 INTRA-LIGAND FREE ENERGY PREDICTED BY IDOCK:   -1.61 KCAL/MOL
REMARK 927      BINDING AFFINITY PREDICTED BY RF-SCORE:    0.00 PKD
ROOT
HETATM    1  C   UNL     1      -9.070   8.571  71.975  1.00  0.00    -0.247 C  
HETATM    2  S   UNL     1     -10.716   7.993  72.594  1.00  0.00    -0.358 SA 
HETATM    3  C   UNL     1     -10.584   6.324  71.807  1.00  0.00    -0.225 C  
HETATM    4  C   UNL     1      -9.080   6.108  71.539  1.00  0.00    -0.143 C  
HETATM    5  C   UNL     1     -11.232   5.267  72.702  1.00  0.00    -0.311 C  
HETATM    6  C   UNL     1     -11.397   6.379  70.495  1.00  0.00    -0.438 C  
HETATM    7  C   UNL     1      -9.041   9.364  70.639  1.00  0.00    -0.233 C  
HETATM    8  N   UNL     1      -8.508   7.422  71.243  1.00  0.00    -0.113 N  
HETATM    9  O   UNL     1      -8.689   7.505  68.910  1.00  0.00    -0.132 OA 
HETATM   10  C   UNL     1      -8.659   8.001  70.013  1.00  0.00    -0.134 C  
ENDROOT
BRANCH   4  11
HETATM   11  C   UNL     1      -8.255   5.493  72.688  1.00  0.00    -0.113 C  
HETATM   12  O   UNL     1      -7.894   6.068  73.707  1.00  0.00    -0.099 OA 
BRANCH  11  13
HETATM   13  O   UNL     1      -7.885   4.217  72.375  1.00  0.00    -0.078 OA 
BRANCH  13  14
HETATM   14  C   UNL     1      -7.645   4.022  70.972  1.00  0.00    -0.048 C  
HETATM   15  C   UNL     1      -6.157   4.101  70.666  1.00  0.00    -0.018 C  
BRANCH  14  16
HETATM   16  O   UNL     1      -8.066   2.702  70.604  1.00  0.00    -0.045 OA 
BRANCH  16  17
HETATM   17  C   UNL     1      -9.409   2.592  70.475  1.00  0.00    -0.142 C  
HETATM   18  O   UNL     1     -10.139   1.931  71.200  1.00  0.00    -0.054 OA 
BRANCH  17  19
HETATM   19  O   UNL     1      -9.782   3.233  69.342  1.00  0.00    -0.111 OA 
BRANCH  19  20
HETATM   20  C   UNL     1      -9.338   2.614  68.126  1.00  0.00    -0.203 C  
HETATM   21  C   UNL     1      -8.642   3.657  67.269  1.00  0.00    -0.116 C  
ENDBRANCH  19  20
ENDBRANCH  17  19
ENDBRANCH  16  17
ENDBRANCH  14  16
ENDBRANCH  13  14
ENDBRANCH  11  13
ENDBRANCH   4  11
BRANCH   7  22
HETATM   22  N   UNL     1     -10.312   9.968  70.175  1.00  0.00    -0.312 N  
HETATM   23  H   UNL     1     -11.181   9.714  70.645  1.00  0.00     0.000 HD 
HETATM   24  C   UNL     1     -10.353  10.863  69.128  1.00  0.00    -0.208 C  
HETATM   25  O   UNL     1      -9.362  11.137  68.454  1.00  0.00    -0.171 OA 
BRANCH  24  26
HETATM   26  C   UNL     1     -11.749  11.477  68.866  1.00  0.00    -0.339 C  
HETATM   27  N   UNL     1     -12.021  11.513  67.403  1.00  0.00    -0.597 NA 
HETATM   28  H2  UNL     1     -11.920  10.594  66.972  1.00  0.00     0.000 HD 
HETATM   29  H1  UNL     1     -12.941  11.918  67.230  1.00  0.00     0.000 HD 
BRANCH  26  30
HETATM   30  C   UNL     1     -11.891  12.842  69.514  1.00  0.00    -0.383 A  
HETATM   31  C   UNL     1     -11.642  13.998  68.754  1.00  0.00    -0.366 A  
HETATM   32  C   UNL     1     -11.753  15.267  69.325  1.00  0.00    -0.359 A  
HETATM   33  C   UNL     1     -12.121  15.402  70.662  1.00  0.00    -0.412 A  
HETATM   34  C   UNL     1     -12.393  14.269  71.424  1.00  0.00    -0.431 A  
HETATM   35  C   UNL     1     -12.287  12.998  70.853  1.00  0.00    -0.376 A  
ENDBRANCH  26  30
ENDBRANCH  24  26
ENDBRANCH   7  22
TORSDOF 10
ENDMDL
MODEL      107
REMARK 921   NORMALIZED FREE ENERGY PREDICTED BY IDOCK:   -4.84 KCAL/MOL
REMARK 922        TOTAL FREE ENERGY PREDICTED BY IDOCK:   -8.93 KCAL/MOL
REMARK 923 INTER-LIGAND FREE ENERGY PREDICTED BY IDOCK:   -7.74 KCAL/MOL
REMARK 924 INTRA-LIGAND FREE ENERGY PREDICTED BY IDOCK:   -1.19 KCAL/MOL
REMARK 927      BINDING AFFINITY PREDICTED BY RF-SCORE:    0.00 PKD
ROOT
HETATM    1  C   UNL     1      -8.877  10.428  69.272  1.00  0.00    -0.154 C  
HETATM    2  S   UNL     1     -10.473   9.506  69.101  1.00  0.00    -0.214 SA 
HETATM    3  C   UNL     1     -10.138   8.968  67.363  1.00  0.00    -0.230 C  
HETATM    4  C   UNL     1      -8.612   9.090  67.177  1.00  0.00    -0.116 C  
HETATM    5  C   UNL     1     -10.701   7.566  67.128  1.00  0.00    -0.379 C  
HETATM    6  C   UNL     1     -10.907   9.934  66.436  1.00  0.00     0.078 C  
HETATM    7  C   UNL     1      -8.886  11.949  68.954  1.00  0.00     0.176 C  
HETATM    8  N   UNL     1      -8.172  10.219  67.996  1.00  0.00    -0.112 N  
HETATM    9  O   UNL     1      -8.280  11.988  66.464  1.00  0.00    -0.112 OA 
HETATM   10  C   UNL     1      -8.341  11.510  67.574  1.00  0.00    -0.143 C  
ENDROOT
BRANCH   4  11
HETATM   11  C   UNL     1      -7.767   7.865  67.585  1.00  0.00    -0.117 C  
HETATM   12  O   UNL     1      -7.341   6.998  66.832  1.00  0.00    -0.075 OA 
BRANCH  11  13
HETATM   13  O   UNL     1      -7.629   7.815  68.942  1.00  0.00    -0.096 OA 
BRANCH  13  14
HETATM   14  C   UNL     1      -7.832   6.501  69.487  1.00  0.00    -0.105 C  
HETATM   15  C   UNL     1      -6.799   6.201  70.562  1.00  0.00    -0.055 C  
BRANCH  14  16
HETATM   16  O   UNL     1      -9.113   6.454  70.129  1.00  0.00    -0.152 OA 
BRANCH  16  17
HETATM   17  C   UNL     1      -9.811   5.331  69.833  1.00  0.00    -0.211 C  
HETATM   18  O   UNL     1      -9.494   4.501  68.992  1.00  0.00    -0.136 OA 
BRANCH  17  19
HETATM   19  O   UNL     1     -10.971   5.354  70.531  1.00  0.00    -0.197 OA 
BRANCH  19  20
HETATM   20  C   UNL     1     -11.093   6.442  71.460  1.00  0.00    -0.273 C  
HETATM   21  C   UNL     1     -12.516   6.970  71.413  1.00  0.00    -0.426 C  
ENDBRANCH  19  20
ENDBRANCH  17  19
ENDBRANCH  16  17
ENDBRANCH  14  16
ENDBRANCH  13  14
ENDBRANCH  11  13
ENDBRANCH   4  11
BRANCH   7  22
HETATM   22  N   UNL     1     -10.197  12.639  68.954  1.00  0.00    -0.425 N  
HETATM   23  H   UNL     1     -11.051  12.080  68.947  1.00  0.00     0.000 HD 
HETATM   24  C   UNL     1     -10.296  14.014  68.964  1.00  0.00    -0.125 C  
HETATM   25  O   UNL     1      -9.313  14.747  68.872  1.00  0.00    -0.199 OA 
BRANCH  24  26
HETATM   26  C   UNL     1     -11.742  14.550  69.084  1.00  0.00    -0.314 C  
HETATM   27  N   UNL     1     -11.892  15.791  68.274  1.00  0.00    -0.392 NA 
HETATM   28  H2  UNL     1     -11.616  15.649  67.302  1.00  0.00     0.000 HD 
HETATM   29  H1  UNL     1     -12.846  16.145  68.353  1.00  0.00     0.000 HD 
BRANCH  26  30
HETATM   30  C   UNL     1     -12.146  14.754  70.533  1.00  0.00    -0.378 A  
HETATM   31  C   UNL     1     -11.688  15.887  71.226  1.00  0.00    -0.504 A  
HETATM   32  C   UNL     1     -12.033  16.095  72.563  1.00  0.00    -0.660 A  
HETATM   33  C   UNL     1     -12.847  15.179  73.226  1.00  0.00    -0.640 A  
HETATM   34  C   UNL     1     -13.327  14.061  72.547  1.00  0.00    -0.639 A  
HETATM   35  C   UNL     1     -12.987  13.854  71.209  1.00  0.00    -0.414 A  
ENDBRANCH  26  30
ENDBRANCH  24  26
ENDBRANCH   7  22
TORSDOF 10
ENDMDL
MODEL      108
REMARK 921   NORMALIZED FREE ENERGY PREDICTED BY IDOCK:   -4.84 KCAL/MOL
REMARK 922        TOTAL FREE ENERGY PREDICTED BY IDOCK:   -8.93 KCAL/MOL
REMARK 923 INTER-LIGAND FREE ENERGY PREDICTED BY IDOCK:   -7.82 KCAL/MOL
REMARK 924 INTRA-LIGAND FREE ENERGY PREDICTED BY IDOCK:   -1.11 KCAL/MOL
REMARK 927      BINDING AFFINITY PREDICTED BY RF-SCORE:    0.00 PKD
ROOT
HETATM    1  C   UNL     1      -9.731  11.504  69.286  1.00  0.00     0.287 C  
HETATM    2  S   UNL     1      -8.360  10.402  68.709  1.00  0.00    -0.143 SA 
HETATM    3  C   UNL     1      -8.529  10.887  66.931  1.00  0.00    -0.135 C  
HETATM    4  C   UNL     1      -9.280  12.235  66.938  1.00  0.00    -0.209 C  
HETATM    5  C   UNL     1      -7.155  10.924  66.263  1.00  0.00    -0.119 C  
HETATM    6  C   UNL     1      -9.350   9.778  66.239  1.00  0.00    -0.230 C  
HETATM    7  C   UNL     1     -11.152  10.884  69.403  1.00  0.00    -0.260 C  
HETATM    8  N   UNL     1     -10.196  12.207  68.077  1.00  0.00    -0.195 N  
HETATM    9  O   UNL     1     -12.151  11.372  67.093  1.00  0.00    -0.390 OA 
HETATM   10  C   UNL     1     -11.383  11.529  68.015  1.00  0.00    -0.298 C  
ENDROOT
BRANCH   4  11
HETATM   11  C   UNL     1      -8.415  13.506  67.071  1.00  0.00    -0.123 C  
HETATM   12  O   UNL     1      -7.406  13.624  67.756  1.00  0.00    -0.131 OA 
BRANCH  11  13
HETATM   13  O   UNL     1      -8.985  14.541  66.388  1.00  0.00    -0.222 OA 
BRANCH  13  14
HETATM   14  C   UNL     1      -8.853  15.805  67.058  1.00  0.00    -0.216 C  
HETATM   15  C   UNL     1      -8.016  16.767  66.229  1.00  0.00    -0.352 C  
BRANCH  14  16
HETATM   16  O   UNL     1     -10.150  16.403  67.186  1.00  0.00    -0.259 OA 
BRANCH  16  17
HETATM   17  C   UNL     1     -10.514  16.602  68.476  1.00  0.00    -0.319 C  
HETATM   18  O   UNL     1     -10.298  17.616  69.125  1.00  0.00    -0.353 OA 
BRANCH  17  19
HETATM   19  O   UNL     1     -11.039  15.448  68.953  1.00  0.00    -0.245 OA 
BRANCH  19  20
HETATM   20  C   UNL     1     -11.613  15.545  70.265  1.00  0.00    -0.335 C  
HETATM   21  C   UNL     1     -12.336  14.247  70.582  1.00  0.00    -0.431 C  
ENDBRANCH  19  20
ENDBRANCH  17  19
ENDBRANCH  16  17
ENDBRANCH  14  16
ENDBRANCH  13  14
ENDBRANCH  11  13
ENDBRANCH   4  11
BRANCH   7  22
HETATM   22  N   UNL     1     -11.250   9.407  69.466  1.00  0.00    -0.429 N  
HETATM   23  H   UNL     1     -11.574   8.897  68.644  1.00  0.00     0.000 HD 
HETATM   24  C   UNL     1     -10.914   8.702  70.603  1.00  0.00    -0.240 C  
HETATM   25  O   UNL     1     -10.613   9.258  71.658  1.00  0.00    -0.349 OA 
BRANCH  24  26
HETATM   26  C   UNL     1     -10.965   7.165  70.441  1.00  0.00    -0.265 C  
HETATM   27  N   UNL     1     -12.360   6.730  70.156  1.00  0.00    -0.546 NA 
HETATM   28  H2  UNL     1     -12.755   7.214  69.349  1.00  0.00     0.000 HD 
HETATM   29  H1  UNL     1     -12.394   5.717  70.050  1.00  0.00     0.000 HD 
BRANCH  26  30
HETATM   30  C   UNL     1     -10.372   6.455  71.644  1.00  0.00    -0.235 A  
HETATM   31  C   UNL     1     -11.227   5.835  72.572  1.00  0.00    -0.347 A  
HETATM   32  C   UNL     1     -10.713   5.184  73.695  1.00  0.00    -0.345 A  
HETATM   33  C   UNL     1      -9.336   5.136  73.905  1.00  0.00    -0.128 A  
HETATM   34  C   UNL     1      -8.474   5.726  72.984  1.00  0.00    -0.118 A  
HETATM   35  C   UNL     1      -8.986   6.373  71.858  1.00  0.00    -0.138 A  
ENDBRANCH  26  30
ENDBRANCH  24  26
ENDBRANCH   7  22
TORSDOF 10
ENDMDL
MODEL      109
REMARK 921   NORMALIZED FREE ENERGY PREDICTED BY IDOCK:   -4.82 KCAL/MOL
REMARK 922        TOTAL FREE ENERGY PREDICTED BY IDOCK:   -8.91 KCAL/MOL
REMARK 923 INTER-LIGAND FREE ENERGY PREDICTED BY IDOCK:   -8.45 KCAL/MOL
REMARK 924 INTRA-LIGAND FREE ENERGY PREDICTED BY IDOCK:   -0.45 KCAL/MOL
REMARK 927      BINDING AFFINITY PREDICTED BY RF-SCORE:    0.00 PKD
ROOT
HETATM    1  C   UNL     1      -9.382  15.531  66.568  1.00  0.00    -0.283 C  
HETATM    2  S   UNL     1      -7.548  15.378  66.761  1.00  0.00     0.239 SA 
HETATM    3  C   UNL     1      -7.637  14.862  68.536  1.00  0.00    -0.121 C  
HETATM    4  C   UNL     1      -9.074  14.344  68.747  1.00  0.00    -0.133 C  
HETATM    5  C   UNL     1      -6.539  13.843  68.844  1.00  0.00    -0.103 C  
HETATM    6  C   UNL     1      -7.351  16.119  69.385  1.00  0.00    -0.196 C  
HETATM    7  C   UNL     1     -10.015  16.933  66.792  1.00  0.00    -0.289 C  
HETATM    8  N   UNL     1      -9.943  15.129  67.869  1.00  0.00    -0.220 N  
HETATM    9  O   UNL     1     -10.597  16.874  69.288  1.00  0.00    -0.336 OA 
HETATM   10  C   UNL     1     -10.334  16.396  68.208  1.00  0.00    -0.279 C  
ENDROOT
BRANCH   4  11
HETATM   11  C   UNL     1      -9.325  12.854  68.432  1.00  0.00    -0.147 C  
HETATM   12  O   UNL     1      -8.473  12.027  68.129  1.00  0.00    -0.157 OA 
BRANCH  11  13
HETATM   13  O   UNL     1     -10.663  12.586  68.439  1.00  0.00    -0.225 OA 
BRANCH  13  14
HETATM   14  C   UNL     1     -10.967  11.199  68.220  1.00  0.00    -0.226 C  
HETATM   15  C   UNL     1     -12.021  10.719  69.205  1.00  0.00    -0.334 C  
BRANCH  14  16
HETATM   16  O   UNL     1     -11.533  11.045  66.912  1.00  0.00    -0.384 OA 
BRANCH  16  17
HETATM   17  C   UNL     1     -11.738  12.227  66.284  1.00  0.00    -0.366 C  
HETATM   18  O   UNL     1     -12.638  13.017  66.534  1.00  0.00    -0.303 OA 
BRANCH  17  19
HETATM   19  O   UNL     1     -10.860  12.322  65.257  1.00  0.00    -0.276 OA 
BRANCH  19  20
HETATM   20  C   UNL     1     -11.166  11.493  64.125  1.00  0.00    -0.314 C  
HETATM   21  C   UNL     1      -9.974  10.597  63.836  1.00  0.00    -0.390 C  
ENDBRANCH  19  20
ENDBRANCH  17  19
ENDBRANCH  16  17
ENDBRANCH  14  16
ENDBRANCH  13  14
ENDBRANCH  11  13
ENDBRANCH   4  11
BRANCH   7  22
HETATM   22  N   UNL     1      -9.115  18.108  66.722  1.00  0.00    -0.275 N  
HETATM   23  H   UNL     1      -8.143  17.971  66.446  1.00  0.00     0.000 HD 
HETATM   24  C   UNL     1      -9.555  19.381  67.018  1.00  0.00    -0.329 C  
HETATM   25  O   UNL     1     -10.683  19.605  67.451  1.00  0.00    -0.463 OA 
BRANCH  24  26
HETATM   26  C   UNL     1      -8.508  20.492  66.773  1.00  0.00    -0.126 C  
HETATM   27  N   UNL     1      -7.994  20.407  65.377  1.00  0.00    -0.401 NA 
HETATM   28  H2  UNL     1      -8.748  20.433  64.690  1.00  0.00     0.000 HD 
HETATM   29  H1  UNL     1      -7.303  21.140  65.215  1.00  0.00     0.000 HD 
BRANCH  26  30
HETATM   30  C   UNL     1      -7.393  20.449  67.802  1.00  0.00    -0.316 A  
HETATM   31  C   UNL     1      -6.186  21.121  67.543  1.00  0.00    -0.429 A  
HETATM   32  C   UNL     1      -5.138  21.090  68.464  1.00  0.00    -0.316 A  
HETATM   33  C   UNL     1      -5.282  20.393  69.663  1.00  0.00    -0.309 A  
HETATM   34  C   UNL     1      -6.479  19.740  69.945  1.00  0.00    -0.362 A  
HETATM   35  C   UNL     1      -7.530  19.774  69.026  1.00  0.00    -0.286 A  
ENDBRANCH  26  30
ENDBRANCH  24  26
ENDBRANCH   7  22
TORSDOF 10
ENDMDL
MODEL      110
REMARK 921   NORMALIZED FREE ENERGY PREDICTED BY IDOCK:   -4.82 KCAL/MOL
REMARK 922        TOTAL FREE ENERGY PREDICTED BY IDOCK:   -8.90 KCAL/MOL
REMARK 923 INTER-LIGAND FREE ENERGY PREDICTED BY IDOCK:   -8.54 KCAL/MOL
REMARK 924 INTRA-LIGAND FREE ENERGY PREDICTED BY IDOCK:   -0.36 KCAL/MOL
REMARK 927      BINDING AFFINITY PREDICTED BY RF-SCORE:    0.00 PKD
ROOT
HETATM    1  C   UNL     1     -10.962  10.661  67.659  1.00  0.00    -0.310 C  
HETATM    2  S   UNL     1      -9.741  11.762  68.510  1.00  0.00    -0.139 SA 
HETATM    3  C   UNL     1      -8.506  11.690  67.134  1.00  0.00    -0.162 C  
HETATM    4  C   UNL     1      -9.298  11.245  65.887  1.00  0.00    -0.219 C  
HETATM    5  C   UNL     1      -7.796  13.037  66.994  1.00  0.00     0.015 C  
HETATM    6  C   UNL     1      -7.442  10.647  67.538  1.00  0.00    -0.093 C  
HETATM    7  C   UNL     1     -10.908   9.141  67.982  1.00  0.00    -0.075 C  
HETATM    8  N   UNL     1     -10.357  10.350  66.352  1.00  0.00    -0.232 N  
HETATM    9  O   UNL     1      -9.322   8.257  66.172  1.00  0.00    -0.203 OA 
HETATM   10  C   UNL     1     -10.094   9.045  66.669  1.00  0.00    -0.285 C  
ENDROOT
BRANCH   4  11
HETATM   11  C   UNL     1      -9.967  12.363  65.060  1.00  0.00    -0.197 C  
HETATM   12  O   UNL     1     -10.083  12.388  63.840  1.00  0.00    -0.376 OA 
BRANCH  11  13
HETATM   13  O   UNL     1     -10.339  13.395  65.871  1.00  0.00    -0.279 OA 
BRANCH  13  14
HETATM   14  C   UNL     1     -11.351  14.237  65.293  1.00  0.00    -0.336 C  
HETATM   15  C   UNL     1     -12.739  13.715  65.631  1.00  0.00    -0.505 C  
BRANCH  14  16
HETATM   16  O   UNL     1     -11.257  15.546  65.871  1.00  0.00    -0.254 OA 
BRANCH  16  17
HETATM   17  C   UNL     1     -11.029  16.514  64.952  1.00  0.00    -0.209 C  
HETATM   18  O   UNL     1     -11.540  16.571  63.842  1.00  0.00    -1.175 OA 
BRANCH  17  19
HETATM   19  O   UNL     1     -10.054  17.326  65.422  1.00  0.00    -0.574 OA 
BRANCH  19  20
HETATM   20  C   UNL     1     -10.509  18.374  66.291  1.00  0.00    -0.393 C  
HETATM   21  C   UNL     1      -9.814  18.236  67.634  1.00  0.00    -0.328 C  
ENDBRANCH  19  20
ENDBRANCH  17  19
ENDBRANCH  16  17
ENDBRANCH  14  16
ENDBRANCH  13  14
ENDBRANCH  11  13
ENDBRANCH   4  11
BRANCH   7  22
HETATM   22  N   UNL     1     -10.208   8.730  69.221  1.00  0.00    -0.206 N  
HETATM   23  H   UNL     1      -9.255   8.373  69.156  1.00  0.00     0.000 HD 
HETATM   24  C   UNL     1     -10.808   8.817  70.459  1.00  0.00    -0.233 C  
HETATM   25  O   UNL     1     -11.985   9.144  70.601  1.00  0.00    -0.239 OA 
BRANCH  24  26
HETATM   26  C   UNL     1      -9.882   8.457  71.645  1.00  0.00    -0.221 C  
HETATM   27  N   UNL     1      -8.642   9.280  71.589  1.00  0.00    -0.250 NA 
HETATM   28  H2  UNL     1      -8.847  10.279  71.552  1.00  0.00     0.000 HD 
HETATM   29  H1  UNL     1      -8.031   9.043  72.370  1.00  0.00     0.000 HD 
BRANCH  26  30
HETATM   30  C   UNL     1      -9.587   6.970  71.694  1.00  0.00    -0.160 A  
HETATM   31  C   UNL     1      -8.404   6.519  72.304  1.00  0.00    -0.106 A  
HETATM   32  C   UNL     1      -8.098   5.158  72.355  1.00  0.00    -0.110 A  
HETATM   33  C   UNL     1      -8.973   4.225  71.802  1.00  0.00    -0.156 A  
HETATM   34  C   UNL     1     -10.160   4.652  71.213  1.00  0.00    -0.245 A  
HETATM   35  C   UNL     1     -10.470   6.013  71.166  1.00  0.00    -0.284 A  
ENDBRANCH  26  30
ENDBRANCH  24  26
ENDBRANCH   7  22
TORSDOF 10
ENDMDL
MODEL      111
REMARK 921   NORMALIZED FREE ENERGY PREDICTED BY IDOCK:   -4.81 KCAL/MOL
REMARK 922        TOTAL FREE ENERGY PREDICTED BY IDOCK:   -8.88 KCAL/MOL
REMARK 923 INTER-LIGAND FREE ENERGY PREDICTED BY IDOCK:   -7.64 KCAL/MOL
REMARK 924 INTRA-LIGAND FREE ENERGY PREDICTED BY IDOCK:   -1.24 KCAL/MOL
REMARK 927      BINDING AFFINITY PREDICTED BY RF-SCORE:    0.00 PKD
ROOT
HETATM    1  C   UNL     1     -11.239  10.637  67.715  1.00  0.00    -0.313 C  
HETATM    2  S   UNL     1      -9.543  10.310  67.050  1.00  0.00    -0.175 SA 
HETATM    3  C   UNL     1      -8.697  10.620  68.666  1.00  0.00    -0.148 C  
HETATM    4  C   UNL     1      -9.789  10.461  69.744  1.00  0.00    -0.091 C  
HETATM    5  C   UNL     1      -7.501   9.679  68.823  1.00  0.00    -0.075 C  
HETATM    6  C   UNL     1      -8.146  12.061  68.618  1.00  0.00    -0.069 C  
HETATM    7  C   UNL     1     -11.804  12.078  67.569  1.00  0.00    -0.205 C  
HETATM    8  N   UNL     1     -11.045  10.916  69.148  1.00  0.00    -0.224 N  
HETATM    9  O   UNL     1     -11.071  13.176  69.766  1.00  0.00    -0.033 OA 
HETATM   10  C   UNL     1     -11.332  12.249  69.033  1.00  0.00    -0.280 C  
ENDROOT
BRANCH   4  11
HETATM   11  C   UNL     1     -10.024   9.035  70.284  1.00  0.00    -0.195 C  
HETATM   12  O   UNL     1     -10.293   8.044  69.615  1.00  0.00    -0.211 OA 
BRANCH  11  13
HETATM   13  O   UNL     1      -9.988   9.032  71.648  1.00  0.00    -0.309 OA 
BRANCH  13  14
HETATM   14  C   UNL     1      -9.559   7.778  72.204  1.00  0.00    -0.176 C  
HETATM   15  C   UNL     1      -8.389   7.983  73.152  1.00  0.00    -0.253 C  
BRANCH  14  16
HETATM   16  O   UNL     1     -10.625   7.225  72.988  1.00  0.00    -0.260 OA 
BRANCH  16  17
HETATM   17  C   UNL     1     -11.176   6.122  72.426  1.00  0.00    -0.287 C  
HETATM   18  O   UNL     1     -12.361   5.979  72.161  1.00  0.00    -0.254 OA 
BRANCH  17  19
HETATM   19  O   UNL     1     -10.218   5.170  72.329  1.00  0.00    -0.188 OA 
BRANCH  19  20
HETATM   20  C   UNL     1     -10.568   3.902  72.904  1.00  0.00    -0.149 C  
HETATM   21  C   UNL     1      -9.871   3.761  74.246  1.00  0.00    -0.162 C  
ENDBRANCH  19  20
ENDBRANCH  17  19
ENDBRANCH  16  17
ENDBRANCH  14  16
ENDBRANCH  13  14
ENDBRANCH  11  13
ENDBRANCH   4  11
BRANCH   7  22
HETATM   22  N   UNL     1     -11.168  12.963  66.565  1.00  0.00    -0.291 N  
HETATM   23  H   UNL     1     -10.420  12.590  65.980  1.00  0.00     0.000 HD 
HETATM   24  C   UNL     1     -11.559  14.274  66.398  1.00  0.00    -0.372 C  
HETATM   25  O   UNL     1     -12.383  14.815  67.133  1.00  0.00    -0.128 OA 
BRANCH  24  26
HETATM   26  C   UNL     1     -10.866  15.004  65.224  1.00  0.00    -0.386 C  
HETATM   27  N   UNL     1     -10.030  14.043  64.452  1.00  0.00    -0.658 NA 
HETATM   28  H2  UNL     1     -10.568  13.235  64.137  1.00  0.00     0.000 HD 
HETATM   29  H1  UNL     1      -9.572  14.524  63.677  1.00  0.00     0.000 HD 
BRANCH  26  30
HETATM   30  C   UNL     1     -10.072  16.206  65.701  1.00  0.00    -0.366 A  
HETATM   31  C   UNL     1      -8.752  16.030  66.148  1.00  0.00    -0.348 A  
HETATM   32  C   UNL     1      -8.000  17.115  66.604  1.00  0.00    -0.300 A  
HETATM   33  C   UNL     1      -8.554  18.393  66.615  1.00  0.00    -0.289 A  
HETATM   34  C   UNL     1      -9.854  18.589  66.155  1.00  0.00    -0.297 A  
HETATM   35  C   UNL     1     -10.605  17.506  65.694  1.00  0.00    -0.144 A  
ENDBRANCH  26  30
ENDBRANCH  24  26
ENDBRANCH   7  22
TORSDOF 10
ENDMDL
MODEL      112
REMARK 921   NORMALIZED FREE ENERGY PREDICTED BY IDOCK:   -4.78 KCAL/MOL
REMARK 922        TOTAL FREE ENERGY PREDICTED BY IDOCK:   -8.84 KCAL/MOL
REMARK 923 INTER-LIGAND FREE ENERGY PREDICTED BY IDOCK:   -7.67 KCAL/MOL
REMARK 924 INTRA-LIGAND FREE ENERGY PREDICTED BY IDOCK:   -1.16 KCAL/MOL
REMARK 927      BINDING AFFINITY PREDICTED BY RF-SCORE:    0.00 PKD
ROOT
HETATM    1  C   UNL     1      -9.117  11.330  66.010  1.00  0.00    -0.209 C  
HETATM    2  S   UNL     1     -10.932  11.610  65.778  1.00  0.00    -0.240 SA 
HETATM    3  C   UNL     1     -11.108  12.650  67.299  1.00  0.00    -0.278 C  
HETATM    4  C   UNL     1      -9.687  13.149  67.628  1.00  0.00    -0.213 C  
HETATM    5  C   UNL     1     -12.136  13.758  67.063  1.00  0.00    -0.436 C  
HETATM    6  C   UNL     1     -11.665  11.733  68.409  1.00  0.00    -0.389 C  
HETATM    7  C   UNL     1      -8.678  10.044  66.764  1.00  0.00    -0.129 C  
HETATM    8  N   UNL     1      -8.759  12.095  67.217  1.00  0.00    -0.174 N  
HETATM    9  O   UNL     1      -8.546  10.854  69.192  1.00  0.00    -0.138 OA 
HETATM   10  C   UNL     1      -8.564  10.983  67.989  1.00  0.00    -0.134 C  
ENDROOT
BRANCH   4  11
HETATM   11  C   UNL     1      -9.237  14.455  66.940  1.00  0.00    -0.254 C  
HETATM   12  O   UNL     1      -9.203  14.661  65.733  1.00  0.00    -0.147 OA 
BRANCH  11  13
HETATM   13  O   UNL     1      -8.776  15.345  67.867  1.00  0.00    -0.157 OA 
BRANCH  13  14
HETATM   14  C   UNL     1      -9.250  16.685  67.654  1.00  0.00    -0.208 C  
HETATM   15  C   UNL     1     -10.339  17.034  68.656  1.00  0.00    -0.351 C  
BRANCH  14  16
HETATM   16  O   UNL     1      -8.174  17.604  67.887  1.00  0.00    -0.224 OA 
BRANCH  16  17
HETATM   17  C   UNL     1      -7.578  18.020  66.744  1.00  0.00    -0.220 C  
HETATM   18  O   UNL     1      -6.373  18.041  66.540  1.00  0.00    -0.175 OA 
BRANCH  17  19
HETATM   19  O   UNL     1      -8.533  18.521  65.925  1.00  0.00    -0.497 OA 
BRANCH  19  20
HETATM   20  C   UNL     1      -8.744  19.936  66.041  1.00  0.00    -0.245 C  
HETATM   21  C   UNL     1     -10.237  20.212  66.041  1.00  0.00    -0.497 C  
ENDBRANCH  19  20
ENDBRANCH  17  19
ENDBRANCH  16  17
ENDBRANCH  14  16
ENDBRANCH  13  14
ENDBRANCH  11  13
ENDBRANCH   4  11
BRANCH   7  22
HETATM   22  N   UNL     1      -9.664   8.943  66.868  1.00  0.00    -0.183 N  
HETATM   23  H   UNL     1     -10.634   9.120  66.605  1.00  0.00     0.000 HD 
HETATM   24  C   UNL     1      -9.309   7.687  67.311  1.00  0.00    -0.144 C  
HETATM   25  O   UNL     1      -8.185   7.431  67.738  1.00  0.00    -0.117 OA 
BRANCH  24  26
HETATM   26  C   UNL     1     -10.444   6.638  67.239  1.00  0.00    -0.275 C  
HETATM   27  N   UNL     1     -11.406   6.854  68.354  1.00  0.00    -0.526 NA 
HETATM   28  H2  UNL     1     -11.767   7.809  68.369  1.00  0.00     0.000 HD 
HETATM   29  H1  UNL     1     -12.155   6.163  68.307  1.00  0.00     0.000 HD 
BRANCH  26  30
HETATM   30  C   UNL     1      -9.899   5.222  67.212  1.00  0.00    -0.183 A  
HETATM   31  C   UNL     1      -9.566   4.587  68.420  1.00  0.00    -0.207 A  
HETATM   32  C   UNL     1      -9.051   3.289  68.428  1.00  0.00    -0.210 A  
HETATM   33  C   UNL     1      -8.867   2.603  67.229  1.00  0.00    -0.161 A  
HETATM   34  C   UNL     1      -9.212   3.210  66.024  1.00  0.00    -0.138 A  
HETATM   35  C   UNL     1      -9.732   4.506  66.015  1.00  0.00    -0.216 A  
ENDBRANCH  26  30
ENDBRANCH  24  26
ENDBRANCH   7  22
TORSDOF 10
ENDMDL
MODEL      113
REMARK 921   NORMALIZED FREE ENERGY PREDICTED BY IDOCK:   -4.78 KCAL/MOL
REMARK 922        TOTAL FREE ENERGY PREDICTED BY IDOCK:   -8.83 KCAL/MOL
REMARK 923 INTER-LIGAND FREE ENERGY PREDICTED BY IDOCK:   -8.20 KCAL/MOL
REMARK 924 INTRA-LIGAND FREE ENERGY PREDICTED BY IDOCK:   -0.63 KCAL/MOL
REMARK 927      BINDING AFFINITY PREDICTED BY RF-SCORE:    0.00 PKD
ROOT
HETATM    1  C   UNL     1      -9.118   9.854  66.456  1.00  0.00    -0.152 C  
HETATM    2  S   UNL     1     -10.770   9.811  67.291  1.00  0.00    -0.169 SA 
HETATM    3  C   UNL     1     -10.164  10.626  68.839  1.00  0.00    -0.201 C  
HETATM    4  C   UNL     1      -8.857  11.344  68.447  1.00  0.00    -0.167 C  
HETATM    5  C   UNL     1     -11.249  11.539  69.412  1.00  0.00    -0.324 C  
HETATM    6  C   UNL     1      -9.915   9.503  69.870  1.00  0.00    -0.259 C  
HETATM    7  C   UNL     1      -8.212   8.598  66.589  1.00  0.00    -0.107 C  
HETATM    8  N   UNL     1      -8.222  10.535  67.407  1.00  0.00    -0.117 N  
HETATM    9  O   UNL     1      -6.823   9.146  68.673  1.00  0.00    -0.061 OA 
HETATM   10  C   UNL     1      -7.523   9.401  67.719  1.00  0.00    -0.087 C  
ENDROOT
BRANCH   4  11
HETATM   11  C   UNL     1      -8.996  12.779  67.897  1.00  0.00    -0.186 C  
HETATM   12  O   UNL     1      -8.702  13.811  68.488  1.00  0.00    -0.173 OA 
BRANCH  11  13
HETATM   13  O   UNL     1      -9.594  12.760  66.670  1.00  0.00    -0.242 OA 
BRANCH  13  14
HETATM   14  C   UNL     1     -10.273  13.985  66.350  1.00  0.00    -0.291 C  
HETATM   15  C   UNL     1     -10.554  14.069  64.858  1.00  0.00    -0.442 C  
BRANCH  14  16
HETATM   16  O   UNL     1     -11.550  13.997  67.004  1.00  0.00    -0.331 OA 
BRANCH  16  17
HETATM   17  C   UNL     1     -11.717  15.068  67.816  1.00  0.00    -0.274 C  
HETATM   18  O   UNL     1     -11.267  16.187  67.615  1.00  0.00    -0.266 OA 
BRANCH  17  19
HETATM   19  O   UNL     1     -12.352  14.656  68.939  1.00  0.00    -0.181 OA 
BRANCH  19  20
HETATM   20  C   UNL     1     -12.153  15.495  70.086  1.00  0.00    -0.378 C  
HETATM   21  C   UNL     1     -13.315  15.301  71.045  1.00  0.00    -0.537 C  
ENDBRANCH  19  20
ENDBRANCH  17  19
ENDBRANCH  16  17
ENDBRANCH  14  16
ENDBRANCH  13  14
ENDBRANCH  11  13
ENDBRANCH   4  11
BRANCH   7  22
HETATM   22  N   UNL     1      -8.860   7.326  66.987  1.00  0.00    -0.125 N  
HETATM   23  H   UNL     1      -9.175   7.212  67.951  1.00  0.00     0.000 HD 
HETATM   24  C   UNL     1      -9.050   6.295  66.092  1.00  0.00    -0.138 C  
HETATM   25  O   UNL     1      -8.608   6.326  64.946  1.00  0.00    -0.069 OA 
BRANCH  24  26
HETATM   26  C   UNL     1      -9.850   5.098  66.658  1.00  0.00    -0.189 C  
HETATM   27  N   UNL     1     -11.064   4.861  65.828  1.00  0.00    -0.885 NA 
HETATM   28  H2  UNL     1     -10.835   4.738  64.842  1.00  0.00     0.000 HD 
HETATM   29  H1  UNL     1     -11.592   4.072  66.201  1.00  0.00     0.000 HD 
BRANCH  26  30
HETATM   30  C   UNL     1     -10.182   5.288  68.126  1.00  0.00    -0.204 A  
HETATM   31  C   UNL     1      -9.489   4.542  69.094  1.00  0.00    -0.233 A  
HETATM   32  C   UNL     1      -9.779   4.686  70.452  1.00  0.00    -0.292 A  
HETATM   33  C   UNL     1     -10.763   5.583  70.865  1.00  0.00    -0.283 A  
HETATM   34  C   UNL     1     -11.444   6.347  69.920  1.00  0.00    -0.483 A  
HETATM   35  C   UNL     1     -11.151   6.207  68.562  1.00  0.00    -0.352 A  
ENDBRANCH  26  30
ENDBRANCH  24  26
ENDBRANCH   7  22
TORSDOF 10
ENDMDL
MODEL      114
REMARK 921   NORMALIZED FREE ENERGY PREDICTED BY IDOCK:   -4.78 KCAL/MOL
REMARK 922        TOTAL FREE ENERGY PREDICTED BY IDOCK:   -8.83 KCAL/MOL
REMARK 923 INTER-LIGAND FREE ENERGY PREDICTED BY IDOCK:   -7.53 KCAL/MOL
REMARK 924 INTRA-LIGAND FREE ENERGY PREDICTED BY IDOCK:   -1.30 KCAL/MOL
REMARK 927      BINDING AFFINITY PREDICTED BY RF-SCORE:    0.00 PKD
ROOT
HETATM    1  C   UNL     1      -8.375   9.223  69.135  1.00  0.00    -0.127 C  
HETATM    2  S   UNL     1     -10.191   8.930  69.343  1.00  0.00    -0.213 SA 
HETATM    3  C   UNL     1     -10.186   7.344  68.388  1.00  0.00    -0.183 C  
HETATM    4  C   UNL     1      -8.721   6.861  68.392  1.00  0.00    -0.124 C  
HETATM    5  C   UNL     1     -11.185   6.360  68.997  1.00  0.00    -0.402 C  
HETATM    6  C   UNL     1     -10.675   7.676  66.962  1.00  0.00    -0.340 C  
HETATM    7  C   UNL     1      -7.920  10.112  67.944  1.00  0.00    -0.101 C  
HETATM    8  N   UNL     1      -7.878   8.056  68.386  1.00  0.00    -0.120 N  
HETATM    9  O   UNL     1      -7.535   8.382  66.092  1.00  0.00    -0.086 OA 
HETATM   10  C   UNL     1      -7.657   8.761  67.234  1.00  0.00    -0.089 C  
ENDROOT
BRANCH   4  11
HETATM   11  C   UNL     1      -8.284   5.994  69.592  1.00  0.00    -0.115 C  
HETATM   12  O   UNL     1      -8.204   4.771  69.608  1.00  0.00    -0.071 OA 
BRANCH  11  13
HETATM   13  O   UNL     1      -8.084   6.774  70.693  1.00  0.00    -0.115 OA 
BRANCH  13  14
HETATM   14  C   UNL     1      -8.725   6.266  71.874  1.00  0.00    -0.136 C  
HETATM   15  C   UNL     1      -7.691   5.830  72.901  1.00  0.00    -0.097 C  
BRANCH  14  16
HETATM   16  O   UNL     1      -9.483   7.320  72.485  1.00  0.00    -0.143 OA 
BRANCH  16  17
HETATM   17  C   UNL     1     -10.793   7.010  72.632  1.00  0.00    -0.270 C  
HETATM   18  O   UNL     1     -11.266   5.883  72.573  1.00  0.00    -0.264 OA 
BRANCH  17  19
HETATM   19  O   UNL     1     -11.496   8.163  72.729  1.00  0.00    -0.408 OA 
BRANCH  19  20
HETATM   20  C   UNL     1     -12.747   8.168  72.024  1.00  0.00    -0.323 C  
HETATM   21  C   UNL     1     -13.256   9.596  71.937  1.00  0.00    -0.538 C  
ENDBRANCH  19  20
ENDBRANCH  17  19
ENDBRANCH  16  17
ENDBRANCH  14  16
ENDBRANCH  13  14
ENDBRANCH  11  13
ENDBRANCH   4  11
BRANCH   7  22
HETATM   22  N   UNL     1      -8.936  10.994  67.323  1.00  0.00    -0.138 N  
HETATM   23  H   UNL     1      -9.758  10.573  66.890  1.00  0.00     0.000 HD 
HETATM   24  C   UNL     1      -8.802  12.366  67.315  1.00  0.00    -0.192 C  
HETATM   25  O   UNL     1      -7.793  12.932  67.730  1.00  0.00    -0.131 OA 
BRANCH  24  26
HETATM   26  C   UNL     1     -10.017  13.124  66.731  1.00  0.00    -0.250 C  
HETATM   27  N   UNL     1      -9.565  14.067  65.671  1.00  0.00    -0.530 NA 
HETATM   28  H2  UNL     1      -9.022  13.596  64.946  1.00  0.00     0.000 HD 
HETATM   29  H1  UNL     1     -10.366  14.567  65.285  1.00  0.00     0.000 HD 
BRANCH  26  30
HETATM   30  C   UNL     1     -10.821  13.817  67.816  1.00  0.00    -0.262 A  
HETATM   31  C   UNL     1     -11.382  13.054  68.854  1.00  0.00    -0.333 A  
HETATM   32  C   UNL     1     -12.136  13.661  69.860  1.00  0.00    -0.406 A  
HETATM   33  C   UNL     1     -12.336  15.040  69.848  1.00  0.00    -0.315 A  
HETATM   34  C   UNL     1     -11.770  15.813  68.838  1.00  0.00    -0.404 A  
HETATM   35  C   UNL     1     -11.011  15.208  67.834  1.00  0.00    -0.302 A  
ENDBRANCH  26  30
ENDBRANCH  24  26
ENDBRANCH   7  22
TORSDOF 10
ENDMDL
MODEL      115
REMARK 921   NORMALIZED FREE ENERGY PREDICTED BY IDOCK:   -4.77 KCAL/MOL
REMARK 922        TOTAL FREE ENERGY PREDICTED BY IDOCK:   -8.81 KCAL/MOL
REMARK 923 INTER-LIGAND FREE ENERGY PREDICTED BY IDOCK:   -7.65 KCAL/MOL
REMARK 924 INTRA-LIGAND FREE ENERGY PREDICTED BY IDOCK:   -1.16 KCAL/MOL
REMARK 927      BINDING AFFINITY PREDICTED BY RF-SCORE:    0.00 PKD
ROOT
HETATM    1  C   UNL     1     -10.594  10.060  67.827  1.00  0.00    -0.261 C  
HETATM    2  S   UNL     1      -9.190  10.226  69.022  1.00  0.00    -0.191 SA 
HETATM    3  C   UNL     1      -8.157  11.254  67.881  1.00  0.00    -0.121 C  
HETATM    4  C   UNL     1      -9.138  11.841  66.847  1.00  0.00    -0.192 C  
HETATM    5  C   UNL     1      -7.369  12.294  68.678  1.00  0.00    -0.106 C  
HETATM    6  C   UNL     1      -7.132  10.304  67.223  1.00  0.00    -0.088 C  
HETATM    7  C   UNL     1     -10.617   8.805  66.911  1.00  0.00    -0.193 C  
HETATM    8  N   UNL     1     -10.194  10.847  66.648  1.00  0.00    -0.226 N  
HETATM    9  O   UNL     1      -9.357   9.624  64.834  1.00  0.00    -0.247 OA 
HETATM   10  C   UNL     1      -9.993   9.750  65.856  1.00  0.00    -0.275 C  
ENDROOT
BRANCH   4  11
HETATM   11  C   UNL     1      -9.822  13.172  67.223  1.00  0.00    -0.232 C  
HETATM   12  O   UNL     1     -10.748  13.311  68.013  1.00  0.00    -0.230 OA 
BRANCH  11  13
HETATM   13  O   UNL     1      -9.317  14.194  66.472  1.00  0.00    -0.279 OA 
BRANCH  13  14
HETATM   14  C   UNL     1      -8.933  15.338  67.252  1.00  0.00    -0.195 C  
HETATM   15  C   UNL     1      -7.463  15.664  67.037  1.00  0.00    -0.228 C  
BRANCH  14  16
HETATM   16  O   UNL     1      -9.672  16.481  66.801  1.00  0.00    -0.239 OA 
BRANCH  16  17
HETATM   17  C   UNL     1     -10.344  17.103  67.799  1.00  0.00    -0.347 C  
HETATM   18  O   UNL     1     -11.255  16.614  68.452  1.00  0.00    -0.357 OA 
BRANCH  17  19
HETATM   19  O   UNL     1      -9.920  18.387  67.861  1.00  0.00    -0.318 OA 
BRANCH  19  20
HETATM   20  C   UNL     1     -10.864  19.357  67.381  1.00  0.00    -0.440 C  
HETATM   21  C   UNL     1     -10.533  19.692  65.938  1.00  0.00    -0.591 C  
ENDBRANCH  19  20
ENDBRANCH  17  19
ENDBRANCH  16  17
ENDBRANCH  14  16
ENDBRANCH  13  14
ENDBRANCH  11  13
ENDBRANCH   4  11
BRANCH   7  22
HETATM   22  N   UNL     1      -9.793   7.644  67.323  1.00  0.00    -0.169 N  
HETATM   23  H   UNL     1      -8.839   7.805  67.649  1.00  0.00     0.000 HD 
HETATM   24  C   UNL     1     -10.278   6.354  67.279  1.00  0.00    -0.187 C  
HETATM   25  O   UNL     1     -11.379   6.080  66.805  1.00  0.00    -0.134 OA 
BRANCH  24  26
HETATM   26  C   UNL     1      -9.318   5.290  67.860  1.00  0.00    -0.116 C  
HETATM   27  N   UNL     1      -9.310   4.084  66.988  1.00  0.00    -0.169 NA 
HETATM   28  H2  UNL     1      -9.086   4.314  66.019  1.00  0.00     0.000 HD 
HETATM   29  H1  UNL     1      -8.677   3.381  67.370  1.00  0.00     0.000 HD 
BRANCH  26  30
HETATM   30  C   UNL     1      -9.656   4.958  69.302  1.00  0.00    -0.241 A  
HETATM   31  C   UNL     1      -9.326   3.692  69.816  1.00  0.00    -0.243 A  
HETATM   32  C   UNL     1      -9.634   3.352  71.134  1.00  0.00    -0.234 A  
HETATM   33  C   UNL     1     -10.270   4.274  71.963  1.00  0.00    -0.220 A  
HETATM   34  C   UNL     1     -10.585   5.541  71.477  1.00  0.00    -0.302 A  
HETATM   35  C   UNL     1     -10.273   5.884  70.159  1.00  0.00    -0.281 A  
ENDBRANCH  26  30
ENDBRANCH  24  26
ENDBRANCH   7  22
TORSDOF 10
ENDMDL
MODEL      116
REMARK 921   NORMALIZED FREE ENERGY PREDICTED BY IDOCK:   -4.76 KCAL/MOL
REMARK 922        TOTAL FREE ENERGY PREDICTED BY IDOCK:   -8.80 KCAL/MOL
REMARK 923 INTER-LIGAND FREE ENERGY PREDICTED BY IDOCK:   -7.17 KCAL/MOL
REMARK 924 INTRA-LIGAND FREE ENERGY PREDICTED BY IDOCK:   -1.63 KCAL/MOL
REMARK 927      BINDING AFFINITY PREDICTED BY RF-SCORE:    0.00 PKD
ROOT
HETATM    1  C   UNL     1      -8.820   9.492  67.589  1.00  0.00    -0.118 C  
HETATM    2  S   UNL     1      -9.308  10.438  69.103  1.00  0.00    -0.184 SA 
HETATM    3  C   UNL     1      -9.955   8.950  69.994  1.00  0.00    -0.190 C  
HETATM    4  C   UNL     1      -9.306   7.735  69.300  1.00  0.00    -0.148 C  
HETATM    5  C   UNL     1      -9.661   9.063  71.490  1.00  0.00    -0.365 C  
HETATM    6  C   UNL     1     -11.489   8.954  69.823  1.00  0.00     0.180 C  
HETATM    7  C   UNL     1      -9.845   9.420  66.423  1.00  0.00    -0.269 C  
HETATM    8  N   UNL     1      -9.144   8.087  67.889  1.00  0.00    -0.132 N  
HETATM    9  O   UNL     1     -11.137   7.273  66.965  1.00  0.00    -0.308 OA 
HETATM   10  C   UNL     1     -10.200   8.037  67.021  1.00  0.00    -0.303 C  
ENDROOT
BRANCH   4  11
HETATM   11  C   UNL     1      -7.924   7.294  69.828  1.00  0.00    -0.123 C  
HETATM   12  O   UNL     1      -6.858   7.860  69.620  1.00  0.00    -0.041 OA 
BRANCH  11  13
HETATM   13  O   UNL     1      -8.028   6.108  70.495  1.00  0.00    -0.107 OA 
BRANCH  13  14
HETATM   14  C   UNL     1      -9.166   5.328  70.095  1.00  0.00    -0.139 C  
HETATM   15  C   UNL     1      -8.799   4.387  68.959  1.00  0.00    -0.131 C  
BRANCH  14  16
HETATM   16  O   UNL     1      -9.575   4.500  71.193  1.00  0.00    -0.152 OA 
BRANCH  16  17
HETATM   17  C   UNL     1     -10.458   5.113  72.016  1.00  0.00    -0.215 C  
HETATM   18  O   UNL     1     -11.414   5.785  71.656  1.00  0.00    -0.219 OA 
BRANCH  17  19
HETATM   19  O   UNL     1     -10.028   4.959  73.291  1.00  0.00    -0.149 OA 
BRANCH  19  20
HETATM   20  C   UNL     1     -10.184   6.119  74.123  1.00  0.00    -0.309 C  
HETATM   21  C   UNL     1      -8.831   6.788  74.291  1.00  0.00    -0.197 C  
ENDBRANCH  19  20
ENDBRANCH  17  19
ENDBRANCH  16  17
ENDBRANCH  14  16
ENDBRANCH  13  14
ENDBRANCH  11  13
ENDBRANCH   4  11
BRANCH   7  22
HETATM   22  N   UNL     1     -10.931  10.428  66.406  1.00  0.00     0.011 N  
HETATM   23  H   UNL     1     -11.779  10.251  66.946  1.00  0.00     0.000 HD 
HETATM   24  C   UNL     1     -10.830  11.596  65.681  1.00  0.00    -0.276 C  
HETATM   25  O   UNL     1      -9.884  11.827  64.931  1.00  0.00    -0.249 OA 
BRANCH  24  26
HETATM   26  C   UNL     1     -12.009  12.577  65.881  1.00  0.00    -0.409 C  
HETATM   27  N   UNL     1     -12.316  13.269  64.599  1.00  0.00    -0.518 NA 
HETATM   28  H2  UNL     1     -12.491  12.609  63.840  1.00  0.00     0.000 HD 
HETATM   29  H1  UNL     1     -13.094  13.916  64.730  1.00  0.00     0.000 HD 
BRANCH  26  30
HETATM   30  C   UNL     1     -11.742  13.551  67.014  1.00  0.00    -0.424 A  
HETATM   31  C   UNL     1     -11.893  13.124  68.343  1.00  0.00    -0.386 A  
HETATM   32  C   UNL     1     -11.666  14.000  69.407  1.00  0.00    -0.365 A  
HETATM   33  C   UNL     1     -11.278  15.315  69.158  1.00  0.00    -0.285 A  
HETATM   34  C   UNL     1     -11.103  15.749  67.846  1.00  0.00    -0.326 A  
HETATM   35  C   UNL     1     -11.324  14.873  66.782  1.00  0.00    -0.328 A  
ENDBRANCH  26  30
ENDBRANCH  24  26
ENDBRANCH   7  22
TORSDOF 10
ENDMDL
MODEL      117
REMARK 921   NORMALIZED FREE ENERGY PREDICTED BY IDOCK:   -4.75 KCAL/MOL
REMARK 922        TOTAL FREE ENERGY PREDICTED BY IDOCK:   -8.78 KCAL/MOL
REMARK 923 INTER-LIGAND FREE ENERGY PREDICTED BY IDOCK:   -7.43 KCAL/MOL
REMARK 924 INTRA-LIGAND FREE ENERGY PREDICTED BY IDOCK:   -1.35 KCAL/MOL
REMARK 927      BINDING AFFINITY PREDICTED BY RF-SCORE:    0.00 PKD
ROOT
HETATM    1  C   UNL     1      -9.801  10.434  67.705  1.00  0.00    -0.168 C  
HETATM    2  S   UNL     1      -8.006  10.348  68.149  1.00  0.00    -0.112 SA 
HETATM    3  C   UNL     1      -7.468  11.462  66.773  1.00  0.00    -0.137 C  
HETATM    4  C   UNL     1      -8.730  12.245  66.355  1.00  0.00    -0.017 C  
HETATM    5  C   UNL     1      -6.296  12.333  67.228  1.00  0.00    -0.150 C  
HETATM    6  C   UNL     1      -6.954  10.555  65.634  1.00  0.00    -0.113 C  
HETATM    7  C   UNL     1     -10.368   9.322  66.779  1.00  0.00    -0.226 C  
HETATM    8  N   UNL     1      -9.871  11.353  66.556  1.00  0.00    -0.203 N  
HETATM    9  O   UNL     1     -10.064  10.348  64.449  1.00  0.00    -0.343 OA 
HETATM   10  C   UNL     1     -10.167  10.367  65.655  1.00  0.00    -0.238 C  
ENDROOT
BRANCH   4  11
HETATM   11  C   UNL     1      -9.020  13.549  67.128  1.00  0.00    -0.227 C  
HETATM   12  O   UNL     1      -9.172  13.652  68.339  1.00  0.00    -0.195 OA 
BRANCH  11  13
HETATM   13  O   UNL     1      -9.189  14.588  66.259  1.00  0.00    -0.268 OA 
BRANCH  13  14
HETATM   14  C   UNL     1     -10.352  15.383  66.542  1.00  0.00    -0.289 C  
HETATM   15  C   UNL     1     -10.132  16.826  66.114  1.00  0.00    -0.360 C  
BRANCH  14  16
HETATM   16  O   UNL     1     -11.454  14.892  65.766  1.00  0.00    -0.342 OA 
BRANCH  16  17
HETATM   17  C   UNL     1     -12.245  14.036  66.455  1.00  0.00    -0.451 C  
HETATM   18  O   UNL     1     -12.411  14.044  67.667  1.00  0.00    -0.274 OA 
BRANCH  17  19
HETATM   19  O   UNL     1     -12.715  13.103  65.593  1.00  0.00    -0.469 OA 
BRANCH  19  20
HETATM   20  C   UNL     1     -12.238  13.234  64.245  1.00  0.00    -0.392 C  
HETATM   21  C   UNL     1     -12.625  11.990  63.465  1.00  0.00    -0.625 C  
ENDBRANCH  19  20
ENDBRANCH  17  19
ENDBRANCH  16  17
ENDBRANCH  14  16
ENDBRANCH  13  14
ENDBRANCH  11  13
ENDBRANCH   4  11
BRANCH   7  22
HETATM   22  N   UNL     1      -9.586   8.069  66.659  1.00  0.00    -0.213 N  
HETATM   23  H   UNL     1      -8.585   8.126  66.474  1.00  0.00     0.000 HD 
HETATM   24  C   UNL     1     -10.174   6.828  66.790  1.00  0.00    -0.202 C  
HETATM   25  O   UNL     1     -11.389   6.684  66.913  1.00  0.00    -0.333 OA 
BRANCH  24  26
HETATM   26  C   UNL     1      -9.181   5.643  66.754  1.00  0.00    -0.128 C  
HETATM   27  N   UNL     1      -7.842   6.088  67.228  1.00  0.00    -0.101 NA 
HETATM   28  H2  UNL     1      -7.887   6.522  68.150  1.00  0.00     0.000 HD 
HETATM   29  H1  UNL     1      -7.187   5.307  67.204  1.00  0.00     0.000 HD 
BRANCH  26  30
HETATM   30  C   UNL     1      -9.124   5.002  65.379  1.00  0.00    -0.157 A  
HETATM   31  C   UNL     1      -8.043   5.287  64.528  1.00  0.00    -0.120 A  
HETATM   32  C   UNL     1      -7.968   4.722  63.253  1.00  0.00    -0.086 A  
HETATM   33  C   UNL     1      -8.968   3.857  62.812  1.00  0.00    -0.104 A  
HETATM   34  C   UNL     1     -10.035   3.546  63.652  1.00  0.00    -0.174 A  
HETATM   35  C   UNL     1     -10.109   4.107  64.929  1.00  0.00    -0.213 A  
ENDBRANCH  26  30
ENDBRANCH  24  26
ENDBRANCH   7  22
TORSDOF 10
ENDMDL
MODEL      118
REMARK 921   NORMALIZED FREE ENERGY PREDICTED BY IDOCK:   -4.75 KCAL/MOL
REMARK 922        TOTAL FREE ENERGY PREDICTED BY IDOCK:   -8.78 KCAL/MOL
REMARK 923 INTER-LIGAND FREE ENERGY PREDICTED BY IDOCK:   -7.91 KCAL/MOL
REMARK 924 INTRA-LIGAND FREE ENERGY PREDICTED BY IDOCK:   -0.87 KCAL/MOL
REMARK 927      BINDING AFFINITY PREDICTED BY RF-SCORE:    0.00 PKD
ROOT
HETATM    1  C   UNL     1      -9.373  12.188  66.219  1.00  0.00    -0.218 C  
HETATM    2  S   UNL     1      -9.234  11.832  68.030  1.00  0.00    -0.185 SA 
HETATM    3  C   UNL     1     -10.685  10.683  68.058  1.00  0.00    -0.233 C  
HETATM    4  C   UNL     1     -10.890  10.236  66.596  1.00  0.00    -0.045 C  
HETATM    5  C   UNL     1     -10.435   9.543  69.045  1.00  0.00    -0.229 C  
HETATM    6  C   UNL     1     -11.890  11.493  68.583  1.00  0.00    -0.382 C  
HETATM    7  C   UNL     1     -10.188  13.441  65.792  1.00  0.00    -0.295 C  
HETATM    8  N   UNL     1     -10.499  11.362  65.747  1.00  0.00    -0.256 N  
HETATM    9  O   UNL     1     -12.540  12.475  65.464  1.00  0.00    -0.642 OA 
HETATM   10  C   UNL     1     -11.334  12.428  65.554  1.00  0.00    -0.346 C  
ENDROOT
BRANCH   4  11
HETATM   11  C   UNL     1     -10.085   9.005  66.130  1.00  0.00    -0.172 C  
HETATM   12  O   UNL     1     -10.041   7.917  66.691  1.00  0.00    -0.260 OA 
BRANCH  11  13
HETATM   13  O   UNL     1      -9.329   9.318  65.038  1.00  0.00    -0.229 OA 
BRANCH  13  14
HETATM   14  C   UNL     1      -8.276   8.374  64.785  1.00  0.00    -0.160 C  
HETATM   15  C   UNL     1      -8.042   8.219  63.290  1.00  0.00    -0.137 C  
BRANCH  14  16
HETATM   16  O   UNL     1      -7.053   8.878  65.338  1.00  0.00    -0.079 OA 
BRANCH  16  17
HETATM   17  C   UNL     1      -6.358   7.941  66.025  1.00  0.00    -0.045 C  
HETATM   18  O   UNL     1      -5.473   7.234  65.563  1.00  0.00    -0.027 OA 
BRANCH  17  19
HETATM   19  O   UNL     1      -6.896   7.835  67.263  1.00  0.00    -0.066 OA 
BRANCH  19  20
HETATM   20  C   UNL     1      -6.888   9.049  68.029  1.00  0.00    -0.069 C  
HETATM   21  C   UNL     1      -5.450   9.427  68.337  1.00  0.00    -0.037 C  
ENDBRANCH  19  20
ENDBRANCH  17  19
ENDBRANCH  16  17
ENDBRANCH  14  16
ENDBRANCH  13  14
ENDBRANCH  11  13
ENDBRANCH   4  11
BRANCH   7  22
HETATM   22  N   UNL     1     -10.431  14.480  66.820  1.00  0.00    -0.268 N  
HETATM   23  H   UNL     1     -11.238  14.386  67.437  1.00  0.00     0.000 HD 
HETATM   24  C   UNL     1      -9.599  15.569  66.966  1.00  0.00    -0.224 C  
HETATM   25  O   UNL     1      -8.669  15.797  66.194  1.00  0.00    -0.325 OA 
BRANCH  24  26
HETATM   26  C   UNL     1      -9.943  16.481  68.167  1.00  0.00    -0.248 C  
HETATM   27  N   UNL     1     -11.359  16.271  68.574  1.00  0.00    -0.367 NA 
HETATM   28  H2  UNL     1     -11.560  15.289  68.768  1.00  0.00     0.000 HD 
HETATM   29  H1  UNL     1     -11.587  16.872  69.366  1.00  0.00     0.000 HD 
BRANCH  26  30
HETATM   30  C   UNL     1      -9.637  17.938  67.870  1.00  0.00    -0.286 A  
HETATM   31  C   UNL     1     -10.558  18.702  67.135  1.00  0.00    -0.468 A  
HETATM   32  C   UNL     1     -10.300  20.041  66.836  1.00  0.00    -0.567 A  
HETATM   33  C   UNL     1      -9.120  20.640  67.274  1.00  0.00    -0.408 A  
HETATM   34  C   UNL     1      -8.206  19.903  68.023  1.00  0.00    -0.299 A  
HETATM   35  C   UNL     1      -8.465  18.565  68.327  1.00  0.00    -0.341 A  
ENDBRANCH  26  30
ENDBRANCH  24  26
ENDBRANCH   7  22
TORSDOF 10
ENDMDL
MODEL      119
REMARK 921   NORMALIZED FREE ENERGY PREDICTED BY IDOCK:   -4.74 KCAL/MOL
REMARK 922        TOTAL FREE ENERGY PREDICTED BY IDOCK:   -8.77 KCAL/MOL
REMARK 923 INTER-LIGAND FREE ENERGY PREDICTED BY IDOCK:   -9.03 KCAL/MOL
REMARK 924 INTRA-LIGAND FREE ENERGY PREDICTED BY IDOCK:    0.26 KCAL/MOL
REMARK 927      BINDING AFFINITY PREDICTED BY RF-SCORE:    0.00 PKD
ROOT
HETATM    1  C   UNL     1     -10.896  13.143  67.906  1.00  0.00    -0.242 C  
HETATM    2  S   UNL     1      -9.088  13.194  68.298  1.00  0.00    -0.147 SA 
HETATM    3  C   UNL     1      -8.974  15.039  68.194  1.00  0.00    -0.173 C  
HETATM    4  C   UNL     1     -10.418  15.554  68.366  1.00  0.00    -0.240 C  
HETATM    5  C   UNL     1      -7.980  15.564  69.230  1.00  0.00    -0.238 C  
HETATM    6  C   UNL     1      -8.408  15.377  66.798  1.00  0.00    -0.285 C  
HETATM    7  C   UNL     1     -11.306  12.939  66.421  1.00  0.00    -0.319 C  
HETATM    8  N   UNL     1     -11.302  14.553  67.769  1.00  0.00    -0.302 N  
HETATM    9  O   UNL     1     -11.510  15.351  65.576  1.00  0.00    -0.226 OA 
HETATM   10  C   UNL     1     -11.474  14.478  66.413  1.00  0.00    -0.360 C  
ENDROOT
BRANCH   4  11
HETATM   11  C   UNL     1     -10.898  15.791  69.813  1.00  0.00    -0.314 C  
HETATM   12  O   UNL     1     -11.072  16.880  70.347  1.00  0.00    -0.078 OA 
BRANCH  11  13
HETATM   13  O   UNL     1     -11.017  14.603  70.473  1.00  0.00    -0.101 OA 
BRANCH  13  14
HETATM   14  C   UNL     1     -12.271  14.456  71.159  1.00  0.00    -0.350 C  
HETATM   15  C   UNL     1     -13.311  15.405  70.585  1.00  0.00    -0.286 C  
BRANCH  14  16
HETATM   16  O   UNL     1     -12.769  13.128  70.944  1.00  0.00    -0.307 OA 
BRANCH  16  17
HETATM   17  C   UNL     1     -13.530  12.677  71.970  1.00  0.00    -0.418 C  
HETATM   18  O   UNL     1     -14.382  13.327  72.559  1.00  0.00    -0.662 OA 
BRANCH  17  19
HETATM   19  O   UNL     1     -13.098  11.439  72.308  1.00  0.00    -0.365 OA 
BRANCH  19  20
HETATM   20  C   UNL     1     -13.224  10.454  71.271  1.00  0.00    -0.339 C  
HETATM   21  C   UNL     1     -13.511   9.105  71.907  1.00  0.00    -0.492 C  
ENDBRANCH  19  20
ENDBRANCH  17  19
ENDBRANCH  16  17
ENDBRANCH  14  16
ENDBRANCH  13  14
ENDBRANCH  11  13
ENDBRANCH   4  11
BRANCH   7  22
HETATM   22  N   UNL     1     -10.285  12.385  65.501  1.00  0.00    -0.270 N  
HETATM   23  H   UNL     1      -9.299  12.558  65.693  1.00  0.00     0.000 HD 
HETATM   24  C   UNL     1     -10.631  11.642  64.392  1.00  0.00    -0.323 C  
HETATM   25  O   UNL     1     -11.800  11.479  64.045  1.00  0.00    -0.265 OA 
BRANCH  24  26
HETATM   26  C   UNL     1      -9.430  11.048  63.620  1.00  0.00    -0.272 C  
HETATM   27  N   UNL     1      -9.898  10.433  62.347  1.00  0.00    -0.743 NA 
HETATM   28  H2  UNL     1     -10.431  11.092  61.778  1.00  0.00     0.000 HD 
HETATM   29  H1  UNL     1      -9.106  10.041  61.838  1.00  0.00     0.000 HD 
BRANCH  26  30
HETATM   30  C   UNL     1      -8.640  10.074  64.475  1.00  0.00    -0.197 A  
HETATM   31  C   UNL     1      -9.314   9.272  65.412  1.00  0.00    -0.292 A  
HETATM   32  C   UNL     1      -8.614   8.376  66.222  1.00  0.00    -0.149 A  
HETATM   33  C   UNL     1      -7.231   8.260  66.103  1.00  0.00    -0.070 A  
HETATM   34  C   UNL     1      -6.549   9.031  65.164  1.00  0.00    -0.072 A  
HETATM   35  C   UNL     1      -7.249   9.925  64.350  1.00  0.00    -0.134 A  
ENDBRANCH  26  30
ENDBRANCH  24  26
ENDBRANCH   7  22
TORSDOF 10
ENDMDL
MODEL      120
REMARK 921   NORMALIZED FREE ENERGY PREDICTED BY IDOCK:   -4.73 KCAL/MOL
REMARK 922        TOTAL FREE ENERGY PREDICTED BY IDOCK:   -8.76 KCAL/MOL
REMARK 923 INTER-LIGAND FREE ENERGY PREDICTED BY IDOCK:   -8.11 KCAL/MOL
REMARK 924 INTRA-LIGAND FREE ENERGY PREDICTED BY IDOCK:   -0.65 KCAL/MOL
REMARK 927      BINDING AFFINITY PREDICTED BY RF-SCORE:    0.00 PKD
ROOT
HETATM    1  C   UNL     1     -11.101  15.145  67.037  1.00  0.00    -0.328 C  
HETATM    2  S   UNL     1      -9.386  14.898  66.386  1.00  0.00    -0.288 SA 
HETATM    3  C   UNL     1      -8.907  13.693  67.707  1.00  0.00    -0.190 C  
HETATM    4  C   UNL     1     -10.234  13.157  68.281  1.00  0.00    -0.250 C  
HETATM    5  C   UNL     1      -7.979  12.622  67.132  1.00  0.00    -0.123 C  
HETATM    6  C   UNL     1      -8.103  14.481  68.764  1.00  0.00    -0.146 C  
HETATM    7  C   UNL     1     -11.338  16.337  68.006  1.00  0.00    -0.205 C  
HETATM    8  N   UNL     1     -11.205  14.248  68.201  1.00  0.00    -0.263 N  
HETATM    9  O   UNL     1     -10.958  15.258  70.300  1.00  0.00    -0.268 OA 
HETATM   10  C   UNL     1     -11.204  15.266  69.115  1.00  0.00    -0.278 C  
ENDROOT
BRANCH   4  11
HETATM   11  C   UNL     1     -10.851  11.935  67.568  1.00  0.00    -0.238 C  
HETATM   12  O   UNL     1     -11.788  11.957  66.779  1.00  0.00    -0.598 OA 
BRANCH  11  13
HETATM   13  O   UNL     1     -10.269  10.783  68.012  1.00  0.00    -0.169 OA 
BRANCH  13  14
HETATM   14  C   UNL     1     -10.446   9.675  67.114  1.00  0.00    -0.249 C  
HETATM   15  C   UNL     1      -9.775   9.955  65.778  1.00  0.00    -0.332 C  
BRANCH  14  16
HETATM   16  O   UNL     1      -9.793   8.521  67.662  1.00  0.00    -0.156 OA 
BRANCH  16  17
HETATM   17  C   UNL     1     -10.143   7.371  67.039  1.00  0.00    -0.258 C  
HETATM   18  O   UNL     1     -11.282   6.936  66.942  1.00  0.00    -0.353 OA 
BRANCH  17  19
HETATM   19  O   UNL     1      -9.012   6.732  66.657  1.00  0.00    -0.133 OA 
BRANCH  19  20
HETATM   20  C   UNL     1      -8.762   5.492  67.335  1.00  0.00    -0.107 C  
HETATM   21  C   UNL     1      -7.493   4.873  66.776  1.00  0.00    -0.087 C  
ENDBRANCH  19  20
ENDBRANCH  17  19
ENDBRANCH  16  17
ENDBRANCH  14  16
ENDBRANCH  13  14
ENDBRANCH  11  13
ENDBRANCH   4  11
BRANCH   7  22
HETATM   22  N   UNL     1     -10.329  17.422  68.014  1.00  0.00    -0.345 N  
HETATM   23  H   UNL     1      -9.777  17.578  68.858  1.00  0.00     0.000 HD 
HETATM   24  C   UNL     1     -10.113  18.225  66.915  1.00  0.00    -0.366 C  
HETATM   25  O   UNL     1     -10.809  18.157  65.903  1.00  0.00    -0.243 OA 
BRANCH  24  26
HETATM   26  C   UNL     1      -8.940  19.220  67.069  1.00  0.00    -0.292 C  
HETATM   27  N   UNL     1      -8.851  20.092  65.865  1.00  0.00    -0.504 NA 
HETATM   28  H2  UNL     1      -9.733  20.566  65.671  1.00  0.00     0.000 HD 
HETATM   29  H1  UNL     1      -8.077  20.748  65.967  1.00  0.00     0.000 HD 
BRANCH  26  30
HETATM   30  C   UNL     1      -7.633  18.506  67.363  1.00  0.00    -0.224 A  
HETATM   31  C   UNL     1      -6.951  17.856  66.321  1.00  0.00    -0.310 A  
HETATM   32  C   UNL     1      -5.753  17.180  66.561  1.00  0.00    -0.202 A  
HETATM   33  C   UNL     1      -5.215  17.149  67.846  1.00  0.00    -0.122 A  
HETATM   34  C   UNL     1      -5.867  17.806  68.887  1.00  0.00    -0.188 A  
HETATM   35  C   UNL     1      -7.062  18.487  68.646  1.00  0.00    -0.298 A  
ENDBRANCH  26  30
ENDBRANCH  24  26
ENDBRANCH   7  22
TORSDOF 10
ENDMDL
MODEL      121
REMARK 921   NORMALIZED FREE ENERGY PREDICTED BY IDOCK:   -4.72 KCAL/MOL
REMARK 922        TOTAL FREE ENERGY PREDICTED BY IDOCK:   -8.74 KCAL/MOL
REMARK 923 INTER-LIGAND FREE ENERGY PREDICTED BY IDOCK:   -7.70 KCAL/MOL
REMARK 924 INTRA-LIGAND FREE ENERGY PREDICTED BY IDOCK:   -1.04 KCAL/MOL
REMARK 927      BINDING AFFINITY PREDICTED BY RF-SCORE:    0.00 PKD
ROOT
HETATM    1  C   UNL     1     -10.847  12.750  68.660  1.00  0.00    -0.253 C  
HETATM    2  S   UNL     1      -9.073  12.370  69.027  1.00  0.00     0.629 SA 
HETATM    3  C   UNL     1      -8.482  12.810  67.330  1.00  0.00    -0.194 C  
HETATM    4  C   UNL     1      -9.584  13.704  66.724  1.00  0.00    -0.275 C  
HETATM    5  C   UNL     1      -7.101  13.462  67.406  1.00  0.00    -0.108 C  
HETATM    6  C   UNL     1      -8.326  11.487  66.550  1.00  0.00    -0.147 C  
HETATM    7  C   UNL     1     -11.755  11.576  68.198  1.00  0.00    -0.287 C  
HETATM    8  N   UNL     1     -10.859  13.236  67.270  1.00  0.00    -0.262 N  
HETATM    9  O   UNL     1     -11.529  11.686  65.647  1.00  0.00    -0.246 OA 
HETATM   10  C   UNL     1     -11.473  12.118  66.775  1.00  0.00    -0.356 C  
ENDROOT
BRANCH   4  11
HETATM   11  C   UNL     1      -9.484  15.216  67.015  1.00  0.00    -0.226 C  
HETATM   12  O   UNL     1     -10.190  15.851  67.789  1.00  0.00    -0.250 OA 
BRANCH  11  13
HETATM   13  O   UNL     1      -8.547  15.793  66.207  1.00  0.00    -0.305 OA 
BRANCH  13  14
HETATM   14  C   UNL     1      -8.130  17.092  66.658  1.00  0.00    -0.262 C  
HETATM   15  C   UNL     1      -6.622  17.133  66.852  1.00  0.00    -0.240 C  
BRANCH  14  16
HETATM   16  O   UNL     1      -8.436  18.059  65.644  1.00  0.00    -0.375 OA 
BRANCH  16  17
HETATM   17  C   UNL     1      -9.480  18.856  65.974  1.00  0.00    -0.081 C  
HETATM   18  O   UNL     1     -10.659  18.598  65.778  1.00  0.00    -0.567 OA 
BRANCH  17  19
HETATM   19  O   UNL     1      -8.989  20.031  66.436  1.00  0.00    -0.351 OA 
BRANCH  19  20
HETATM   20  C   UNL     1      -9.548  20.468  67.683  1.00  0.00    -0.349 C  
HETATM   21  C   UNL     1      -8.763  19.839  68.821  1.00  0.00    -0.201 C  
ENDBRANCH  19  20
ENDBRANCH  17  19
ENDBRANCH  16  17
ENDBRANCH  14  16
ENDBRANCH  13  14
ENDBRANCH  11  13
ENDBRANCH   4  11
BRANCH   7  22
HETATM   22  N   UNL     1     -11.287  10.199  68.481  1.00  0.00    -0.491 N  
HETATM   23  H   UNL     1     -10.942   9.625  67.711  1.00  0.00     0.000 HD 
HETATM   24  C   UNL     1     -11.306   9.671  69.755  1.00  0.00    -0.120 C  
HETATM   25  O   UNL     1     -11.800  10.268  70.709  1.00  0.00    -0.308 OA 
BRANCH  24  26
HETATM   26  C   UNL     1     -10.669   8.267  69.874  1.00  0.00    -0.234 C  
HETATM   27  N   UNL     1     -11.731   7.224  69.847  1.00  0.00    -0.526 NA 
HETATM   28  H2  UNL     1     -12.326   7.305  69.022  1.00  0.00     0.000 HD 
HETATM   29  H1  UNL     1     -11.311   6.297  69.926  1.00  0.00     0.000 HD 
BRANCH  26  30
HETATM   30  C   UNL     1      -9.781   8.156  71.101  1.00  0.00    -0.200 A  
HETATM   31  C   UNL     1     -10.295   7.583  72.276  1.00  0.00    -0.263 A  
HETATM   32  C   UNL     1      -9.508   7.478  73.424  1.00  0.00    -0.306 A  
HETATM   33  C   UNL     1      -8.192   7.938  73.414  1.00  0.00    -0.246 A  
HETATM   34  C   UNL     1      -7.660   8.489  72.251  1.00  0.00    -0.107 A  
HETATM   35  C   UNL     1      -8.445   8.590  71.100  1.00  0.00    -0.191 A  
ENDBRANCH  26  30
ENDBRANCH  24  26
ENDBRANCH   7  22
TORSDOF 10
ENDMDL
MODEL      122
REMARK 921   NORMALIZED FREE ENERGY PREDICTED BY IDOCK:   -4.72 KCAL/MOL
REMARK 922        TOTAL FREE ENERGY PREDICTED BY IDOCK:   -8.73 KCAL/MOL
REMARK 923 INTER-LIGAND FREE ENERGY PREDICTED BY IDOCK:   -7.44 KCAL/MOL
REMARK 924 INTRA-LIGAND FREE ENERGY PREDICTED BY IDOCK:   -1.30 KCAL/MOL
REMARK 927      BINDING AFFINITY PREDICTED BY RF-SCORE:    0.00 PKD
ROOT
HETATM    1  C   UNL     1     -10.410   7.898  67.971  1.00  0.00    -0.209 C  
HETATM    2  S   UNL     1      -9.254   7.234  66.687  1.00  0.00    -0.161 SA 
HETATM    3  C   UNL     1      -7.763   7.327  67.780  1.00  0.00    -0.112 C  
HETATM    4  C   UNL     1      -8.307   7.381  69.222  1.00  0.00    -0.132 C  
HETATM    5  C   UNL     1      -6.826   6.153  67.493  1.00  0.00    -0.063 C  
HETATM    6  C   UNL     1      -7.009   8.621  67.404  1.00  0.00    -0.078 C  
HETATM    7  C   UNL     1     -10.685   9.428  67.970  1.00  0.00    -0.190 C  
HETATM    8  N   UNL     1      -9.579   8.102  69.171  1.00  0.00    -0.156 N  
HETATM    9  O   UNL     1      -8.892  10.304  69.580  1.00  0.00    -0.175 OA 
HETATM   10  C   UNL     1      -9.616   9.468  69.090  1.00  0.00    -0.170 C  
ENDROOT
BRANCH   4  11
HETATM   11  C   UNL     1      -8.572   6.026  69.911  1.00  0.00    -0.131 C  
HETATM   12  O   UNL     1      -9.336   5.153  69.518  1.00  0.00    -0.116 OA 
BRANCH  11  13
HETATM   13  O   UNL     1      -7.903   5.959  71.099  1.00  0.00    -0.106 OA 
BRANCH  13  14
HETATM   14  C   UNL     1      -8.682   5.384  72.159  1.00  0.00    -0.130 C  
HETATM   15  C   UNL     1      -7.994   4.149  72.722  1.00  0.00    -0.085 C  
BRANCH  14  16
HETATM   16  O   UNL     1      -8.772   6.325  73.238  1.00  0.00    -0.126 OA 
BRANCH  16  17
HETATM   17  C   UNL     1     -10.050   6.606  73.588  1.00  0.00    -0.276 C  
HETATM   18  O   UNL     1     -10.775   5.887  74.261  1.00  0.00    -0.171 OA 
BRANCH  17  19
HETATM   19  O   UNL     1     -10.421   7.749  72.963  1.00  0.00    -0.320 OA 
BRANCH  19  20
HETATM   20  C   UNL     1     -11.788   7.780  72.527  1.00  0.00    -0.302 C  
HETATM   21  C   UNL     1     -11.953   6.825  71.358  1.00  0.00    -0.403 C  
ENDBRANCH  19  20
ENDBRANCH  17  19
ENDBRANCH  16  17
ENDBRANCH  14  16
ENDBRANCH  13  14
ENDBRANCH  11  13
ENDBRANCH   4  11
BRANCH   7  22
HETATM   22  N   UNL     1     -10.368  10.178  66.732  1.00  0.00    -0.229 N  
HETATM   23  H   UNL     1      -9.657   9.812  66.100  1.00  0.00     0.000 HD 
HETATM   24  C   UNL     1     -11.008  11.357  66.411  1.00  0.00    -0.260 C  
HETATM   25  O   UNL     1     -11.801  11.906  67.174  1.00  0.00    -0.588 OA 
BRANCH  24  26
HETATM   26  C   UNL     1     -10.632  11.931  65.025  1.00  0.00    -0.289 C  
HETATM   27  N   UNL     1      -9.240  11.539  64.674  1.00  0.00    -0.413 NA 
HETATM   28  H2  UNL     1      -9.104  10.529  64.720  1.00  0.00     0.000 HD 
HETATM   29  H1  UNL     1      -8.991  11.918  63.760  1.00  0.00     0.000 HD 
BRANCH  26  30
HETATM   30  C   UNL     1     -10.842  13.433  64.965  1.00  0.00    -0.337 A  
HETATM   31  C   UNL     1     -11.988  13.947  64.337  1.00  0.00    -0.480 A  
HETATM   32  C   UNL     1     -12.203  15.324  64.255  1.00  0.00    -0.205 A  
HETATM   33  C   UNL     1     -11.279  16.209  64.806  1.00  0.00    -0.313 A  
HETATM   34  C   UNL     1     -10.148  15.717  65.452  1.00  0.00    -0.370 A  
HETATM   35  C   UNL     1      -9.934  14.339  65.539  1.00  0.00    -0.341 A  
ENDBRANCH  26  30
ENDBRANCH  24  26
ENDBRANCH   7  22
TORSDOF 10
ENDMDL
MODEL      123
REMARK 921   NORMALIZED FREE ENERGY PREDICTED BY IDOCK:   -4.70 KCAL/MOL
REMARK 922        TOTAL FREE ENERGY PREDICTED BY IDOCK:   -8.71 KCAL/MOL
REMARK 923 INTER-LIGAND FREE ENERGY PREDICTED BY IDOCK:   -8.13 KCAL/MOL
REMARK 924 INTRA-LIGAND FREE ENERGY PREDICTED BY IDOCK:   -0.57 KCAL/MOL
REMARK 927      BINDING AFFINITY PREDICTED BY RF-SCORE:    0.00 PKD
ROOT
HETATM    1  C   UNL     1      -9.597  10.670  67.118  1.00  0.00    -0.164 C  
HETATM    2  S   UNL     1     -11.261  10.994  67.861  1.00  0.00    -0.311 SA 
HETATM    3  C   UNL     1     -11.113  12.835  67.738  1.00  0.00    -0.253 C  
HETATM    4  C   UNL     1     -10.023  13.094  66.678  1.00  0.00    -0.270 C  
HETATM    5  C   UNL     1     -12.475  13.453  67.420  1.00  0.00     0.102 C  
HETATM    6  C   UNL     1     -10.688  13.346  69.132  1.00  0.00    -0.097 C  
HETATM    7  C   UNL     1      -8.397  10.491  68.090  1.00  0.00    -0.119 C  
HETATM    8  N   UNL     1      -9.058  11.999  66.781  1.00  0.00    -0.193 N  
HETATM    9  O   UNL     1      -7.497  12.884  68.286  1.00  0.00    -0.107 OA 
HETATM   10  C   UNL     1      -8.113  11.979  67.770  1.00  0.00    -0.149 C  
ENDROOT
BRANCH   4  11
HETATM   11  C   UNL     1     -10.491  13.160  65.209  1.00  0.00    -0.307 C  
HETATM   12  O   UNL     1     -11.112  12.291  64.609  1.00  0.00    -0.293 OA 
BRANCH  11  13
HETATM   13  O   UNL     1     -10.030  14.299  64.615  1.00  0.00    -0.219 OA 
BRANCH  13  14
HETATM   14  C   UNL     1     -10.960  15.393  64.685  1.00  0.00    -0.314 C  
HETATM   15  C   UNL     1     -12.366  14.924  64.347  1.00  0.00    -0.342 C  
BRANCH  14  16
HETATM   16  O   UNL     1     -11.007  15.881  66.033  1.00  0.00    -0.261 OA 
BRANCH  16  17
HETATM   17  C   UNL     1     -10.123  16.880  66.264  1.00  0.00    -0.324 C  
HETATM   18  O   UNL     1     -10.091  17.949  65.671  1.00  0.00    -0.567 OA 
BRANCH  17  19
HETATM   19  O   UNL     1      -9.213  16.443  67.167  1.00  0.00    -0.208 OA 
BRANCH  19  20
HETATM   20  C   UNL     1      -8.850  17.404  68.170  1.00  0.00    -0.253 C  
HETATM   21  C   UNL     1      -7.492  17.031  68.739  1.00  0.00    -0.242 C  
ENDBRANCH  19  20
ENDBRANCH  17  19
ENDBRANCH  16  17
ENDBRANCH  14  16
ENDBRANCH  13  14
ENDBRANCH  11  13
ENDBRANCH   4  11
BRANCH   7  22
HETATM   22  N   UNL     1      -8.704  10.170  69.503  1.00  0.00    -0.227 N  
HETATM   23  H   UNL     1      -8.635  10.907  70.205  1.00  0.00     0.000 HD 
HETATM   24  C   UNL     1      -9.082   8.903  69.896  1.00  0.00    -0.161 C  
HETATM   25  O   UNL     1      -9.089   7.948  69.123  1.00  0.00    -0.145 OA 
BRANCH  24  26
HETATM   26  C   UNL     1      -9.477   8.788  71.387  1.00  0.00    -0.259 C  
HETATM   27  N   UNL     1      -8.964   7.509  71.950  1.00  0.00    -0.120 NA 
HETATM   28  H2  UNL     1      -7.959   7.405  71.811  1.00  0.00     0.000 HD 
HETATM   29  H1  UNL     1      -9.225   7.432  72.933  1.00  0.00     0.000 HD 
BRANCH  26  30
HETATM   30  C   UNL     1     -10.974   8.947  71.584  1.00  0.00    -0.415 A  
HETATM   31  C   UNL     1     -11.563  10.211  71.411  1.00  0.00    -0.315 A  
HETATM   32  C   UNL     1     -12.935  10.392  71.597  1.00  0.00    -0.581 A  
HETATM   33  C   UNL     1     -13.741   9.311  71.951  1.00  0.00    -0.464 A  
HETATM   34  C   UNL     1     -13.176   8.048  72.106  1.00  0.00    -0.211 A  
HETATM   35  C   UNL     1     -11.805   7.864  71.915  1.00  0.00    -0.345 A  
ENDBRANCH  26  30
ENDBRANCH  24  26
ENDBRANCH   7  22
TORSDOF 10
ENDMDL
MODEL      124
REMARK 921   NORMALIZED FREE ENERGY PREDICTED BY IDOCK:   -4.70 KCAL/MOL
REMARK 922        TOTAL FREE ENERGY PREDICTED BY IDOCK:   -8.71 KCAL/MOL
REMARK 923 INTER-LIGAND FREE ENERGY PREDICTED BY IDOCK:   -8.20 KCAL/MOL
REMARK 924 INTRA-LIGAND FREE ENERGY PREDICTED BY IDOCK:   -0.51 KCAL/MOL
REMARK 927      BINDING AFFINITY PREDICTED BY RF-SCORE:    0.00 PKD
ROOT
HETATM    1  C   UNL     1     -10.665  12.256  68.196  1.00  0.00    -0.216 C  
HETATM    2  S   UNL     1     -11.087  11.775  66.459  1.00  0.00    -0.309 SA 
HETATM    3  C   UNL     1      -9.596  10.700  66.245  1.00  0.00    -0.185 C  
HETATM    4  C   UNL     1      -9.121  10.360  67.672  1.00  0.00    -0.138 C  
HETATM    5  C   UNL     1      -9.942   9.487  65.381  1.00  0.00    -0.135 C  
HETATM    6  C   UNL     1      -8.548  11.531  65.475  1.00  0.00     0.181 C  
HETATM    7  C   UNL     1      -9.865  13.573  68.405  1.00  0.00    -0.225 C  
HETATM    8  N   UNL     1      -9.429  11.518  68.511  1.00  0.00    -0.187 N  
HETATM    9  O   UNL     1      -7.438  12.746  68.375  1.00  0.00    -0.112 OA 
HETATM   10  C   UNL     1      -8.637  12.634  68.497  1.00  0.00    -0.051 C  
ENDROOT
BRANCH   4  11
HETATM   11  C   UNL     1      -9.761   9.124  68.338  1.00  0.00    -0.152 C  
HETATM   12  O   UNL     1      -9.672   7.966  67.948  1.00  0.00    -0.147 OA 
BRANCH  11  13
HETATM   13  O   UNL     1     -10.542   9.504  69.391  1.00  0.00    -0.207 OA 
BRANCH  13  14
HETATM   14  C   UNL     1     -10.254   8.785  70.601  1.00  0.00    -0.202 C  
HETATM   15  C   UNL     1      -8.787   8.932  70.977  1.00  0.00    -0.285 C  
BRANCH  14  16
HETATM   16  O   UNL     1     -11.008   9.359  71.677  1.00  0.00    -0.369 OA 
BRANCH  16  17
HETATM   17  C   UNL     1     -12.002   8.550  72.116  1.00  0.00    -0.383 C  
HETATM   18  O   UNL     1     -13.197   8.798  72.055  1.00  0.00    -0.343 OA 
BRANCH  17  19
HETATM   19  O   UNL     1     -11.441   7.487  72.741  1.00  0.00    -0.334 OA 
BRANCH  19  20
HETATM   20  C   UNL     1     -11.847   6.207  72.235  1.00  0.00    -0.275 C  
HETATM   21  C   UNL     1     -10.609   5.377  71.945  1.00  0.00    -0.288 C  
ENDBRANCH  19  20
ENDBRANCH  17  19
ENDBRANCH  16  17
ENDBRANCH  14  16
ENDBRANCH  13  14
ENDBRANCH  11  13
ENDBRANCH   4  11
BRANCH   7  22
HETATM   22  N   UNL     1      -9.861  14.553  67.293  1.00  0.00    -0.233 N  
HETATM   23  H   UNL     1      -9.102  14.526  66.612  1.00  0.00     0.000 HD 
HETATM   24  C   UNL     1     -10.853  15.500  67.154  1.00  0.00    -0.316 C  
HETATM   25  O   UNL     1     -11.741  15.653  67.992  1.00  0.00    -0.306 OA 
BRANCH  24  26
HETATM   26  C   UNL     1     -10.746  16.355  65.870  1.00  0.00    -0.214 C  
HETATM   27  N   UNL     1     -10.162  15.543  64.767  1.00  0.00    -0.496 NA 
HETATM   28  H2  UNL     1     -10.684  14.680  64.610  1.00  0.00     0.000 HD 
HETATM   29  H1  UNL     1     -10.091  16.107  63.920  1.00  0.00     0.000 HD 
BRANCH  26  30
HETATM   30  C   UNL     1      -9.972  17.638  66.114  1.00  0.00    -0.281 A  
HETATM   31  C   UNL     1     -10.652  18.868  66.104  1.00  0.00    -0.476 A  
HETATM   32  C   UNL     1      -9.966  20.066  66.314  1.00  0.00    -0.597 A  
HETATM   33  C   UNL     1      -8.592  20.053  66.544  1.00  0.00    -0.366 A  
HETATM   34  C   UNL     1      -7.906  18.842  66.579  1.00  0.00    -0.286 A  
HETATM   35  C   UNL     1      -8.591  17.642  66.374  1.00  0.00    -0.269 A  
ENDBRANCH  26  30
ENDBRANCH  24  26
ENDBRANCH   7  22
TORSDOF 10
ENDMDL
MODEL      125
REMARK 921   NORMALIZED FREE ENERGY PREDICTED BY IDOCK:   -4.68 KCAL/MOL
REMARK 922        TOTAL FREE ENERGY PREDICTED BY IDOCK:   -8.68 KCAL/MOL
REMARK 923 INTER-LIGAND FREE ENERGY PREDICTED BY IDOCK:   -7.52 KCAL/MOL
REMARK 924 INTRA-LIGAND FREE ENERGY PREDICTED BY IDOCK:   -1.16 KCAL/MOL
REMARK 927      BINDING AFFINITY PREDICTED BY RF-SCORE:    0.00 PKD
ROOT
HETATM    1  C   UNL     1      -9.687   5.016  70.216  1.00  0.00    -0.215 C  
HETATM    2  S   UNL     1      -8.232   6.056  70.693  1.00  0.00    -0.122 SA 
HETATM    3  C   UNL     1      -9.206   7.628  70.777  1.00  0.00    -0.157 C  
HETATM    4  C   UNL     1     -10.679   7.197  70.933  1.00  0.00    -0.231 C  
HETATM    5  C   UNL     1      -8.676   8.515  71.905  1.00  0.00    -0.270 C  
HETATM    6  C   UNL     1      -8.966   8.378  69.449  1.00  0.00    -0.153 C  
HETATM    7  C   UNL     1      -9.934   4.774  68.701  1.00  0.00    -0.099 C  
HETATM    8  N   UNL     1     -10.835   5.940  70.200  1.00  0.00    -0.318 N  
HETATM    9  O   UNL     1     -11.508   6.702  68.090  1.00  0.00    -0.094 OA 
HETATM   10  C   UNL     1     -10.959   5.926  68.838  1.00  0.00    -0.267 C  
ENDROOT
BRANCH   4  11
HETATM   11  C   UNL     1     -11.179   6.958  72.373  1.00  0.00    -0.266 C  
HETATM   12  O   UNL     1     -11.041   5.929  73.024  1.00  0.00    -0.263 OA 
BRANCH  11  13
HETATM   13  O   UNL     1     -11.901   8.031  72.808  1.00  0.00    -0.372 OA 
BRANCH  13  14
HETATM   14  C   UNL     1     -12.791   8.560  71.813  1.00  0.00    -0.348 C  
HETATM   15  C   UNL     1     -13.947   7.604  71.565  1.00  0.00    -0.500 C  
BRANCH  14  16
HETATM   16  O   UNL     1     -13.370   9.778  72.302  1.00  0.00    -0.443 OA 
BRANCH  16  17
HETATM   17  C   UNL     1     -13.015  10.862  71.571  1.00  0.00    -0.451 C  
HETATM   18  O   UNL     1     -12.345  10.838  70.548  1.00  0.00    -0.312 OA 
BRANCH  17  19
HETATM   19  O   UNL     1     -13.417  11.972  72.233  1.00  0.00    -0.465 OA 
BRANCH  19  20
HETATM   20  C   UNL     1     -12.936  13.208  71.685  1.00  0.00    -0.335 C  
HETATM   21  C   UNL     1     -13.241  14.331  72.661  1.00  0.00    -0.601 C  
ENDBRANCH  19  20
ENDBRANCH  17  19
ENDBRANCH  16  17
ENDBRANCH  14  16
ENDBRANCH  13  14
ENDBRANCH  11  13
ENDBRANCH   4  11
BRANCH   7  22
HETATM   22  N   UNL     1      -8.799   5.010  67.778  1.00  0.00    -0.103 N  
HETATM   23  H   UNL     1      -7.933   5.401  68.149  1.00  0.00     0.000 HD 
HETATM   24  C   UNL     1      -8.880   4.716  66.433  1.00  0.00    -0.112 C  
HETATM   25  O   UNL     1      -9.923   4.337  65.903  1.00  0.00    -0.207 OA 
BRANCH  24  26
HETATM   26  C   UNL     1      -7.559   4.917  65.654  1.00  0.00    -0.086 C  
HETATM   27  N   UNL     1      -6.429   5.088  66.607  1.00  0.00    -0.040 NA 
HETATM   28  H2  UNL     1      -6.368   4.316  67.272  1.00  0.00     0.000 HD 
HETATM   29  H1  UNL     1      -5.557   5.220  66.094  1.00  0.00     0.000 HD 
BRANCH  26  30
HETATM   30  C   UNL     1      -7.660   6.064  64.666  1.00  0.00    -0.091 A  
HETATM   31  C   UNL     1      -7.731   7.384  65.143  1.00  0.00    -0.112 A  
HETATM   32  C   UNL     1      -7.836   8.459  64.259  1.00  0.00    -0.143 A  
HETATM   33  C   UNL     1      -7.866   8.234  62.884  1.00  0.00    -0.143 A  
HETATM   34  C   UNL     1      -7.776   6.933  62.393  1.00  0.00    -0.106 A  
HETATM   35  C   UNL     1      -7.665   5.857  63.276  1.00  0.00    -0.094 A  
ENDBRANCH  26  30
ENDBRANCH  24  26
ENDBRANCH   7  22
TORSDOF 10
ENDMDL
MODEL      126
REMARK 921   NORMALIZED FREE ENERGY PREDICTED BY IDOCK:   -4.68 KCAL/MOL
REMARK 922        TOTAL FREE ENERGY PREDICTED BY IDOCK:   -8.68 KCAL/MOL
REMARK 923 INTER-LIGAND FREE ENERGY PREDICTED BY IDOCK:   -7.65 KCAL/MOL
REMARK 924 INTRA-LIGAND FREE ENERGY PREDICTED BY IDOCK:   -1.03 KCAL/MOL
REMARK 927      BINDING AFFINITY PREDICTED BY RF-SCORE:    0.00 PKD
ROOT
HETATM    1  C   UNL     1     -10.173  11.618  69.120  1.00  0.00     0.034 C  
HETATM    2  S   UNL     1      -8.537  10.913  68.620  1.00  0.00    -0.153 SA 
HETATM    3  C   UNL     1      -8.405  11.940  67.086  1.00  0.00    -0.174 C  
HETATM    4  C   UNL     1      -9.367  13.127  67.296  1.00  0.00    -0.225 C  
HETATM    5  C   UNL     1      -6.948  12.333  66.839  1.00  0.00     0.051 C  
HETATM    6  C   UNL     1      -8.847  11.046  65.907  1.00  0.00    -0.204 C  
HETATM    7  C   UNL     1     -11.452  10.856  68.675  1.00  0.00    -0.311 C  
HETATM    8  N   UNL     1     -10.486  12.632  68.097  1.00  0.00    -0.224 N  
HETATM    9  O   UNL     1     -12.004  11.978  66.437  1.00  0.00    -0.611 OA 
HETATM   10  C   UNL     1     -11.492  11.897  67.531  1.00  0.00    -0.326 C  
ENDROOT
BRANCH   4  11
HETATM   11  C   UNL     1      -8.791  14.362  68.020  1.00  0.00    -0.178 C  
HETATM   12  O   UNL     1      -8.597  14.467  69.225  1.00  0.00    -0.041 OA 
BRANCH  11  13
HETATM   13  O   UNL     1      -8.610  15.387  67.138  1.00  0.00    -0.179 OA 
BRANCH  13  14
HETATM   14  C   UNL     1      -9.842  15.935  66.641  1.00  0.00    -0.254 C  
HETATM   15  C   UNL     1     -10.793  16.242  67.788  1.00  0.00    -0.315 C  
BRANCH  14  16
HETATM   16  O   UNL     1      -9.571  17.185  65.993  1.00  0.00    -0.443 OA 
BRANCH  16  17
HETATM   17  C   UNL     1     -10.658  17.705  65.375  1.00  0.00     0.039 C  
HETATM   18  O   UNL     1     -11.264  17.184  64.449  1.00  0.00    -1.143 OA 
BRANCH  17  19
HETATM   19  O   UNL     1     -10.875  18.947  65.869  1.00  0.00    -0.367 OA 
BRANCH  19  20
HETATM   20  C   UNL     1      -9.710  19.783  65.931  1.00  0.00    -0.281 C  
HETATM   21  C   UNL     1      -9.713  20.534  67.251  1.00  0.00    -0.600 C  
ENDBRANCH  19  20
ENDBRANCH  17  19
ENDBRANCH  16  17
ENDBRANCH  14  16
ENDBRANCH  13  14
ENDBRANCH  11  13
ENDBRANCH   4  11
BRANCH   7  22
HETATM   22  N   UNL     1     -11.296   9.439  68.270  1.00  0.00    -0.388 N  
HETATM   23  H   UNL     1     -11.419   9.189  67.288  1.00  0.00     0.000 HD 
HETATM   24  C   UNL     1     -10.990   8.450  69.180  1.00  0.00     0.085 C  
HETATM   25  O   UNL     1     -10.927   8.664  70.390  1.00  0.00    -0.232 OA 
BRANCH  24  26
HETATM   26  C   UNL     1     -10.749   7.057  68.555  1.00  0.00    -0.179 C  
HETATM   27  N   UNL     1     -11.022   5.994  69.561  1.00  0.00    -0.372 NA 
HETATM   28  H2  UNL     1     -11.957   6.078  69.962  1.00  0.00     0.000 HD 
HETATM   29  H1  UNL     1     -10.863   5.075  69.149  1.00  0.00     0.000 HD 
BRANCH  26  30
HETATM   30  C   UNL     1      -9.359   6.943  67.957  1.00  0.00    -0.123 A  
HETATM   31  C   UNL     1      -8.289   6.530  68.769  1.00  0.00    -0.122 A  
HETATM   32  C   UNL     1      -6.996   6.428  68.252  1.00  0.00    -0.080 A  
HETATM   33  C   UNL     1      -6.753   6.729  66.913  1.00  0.00    -0.056 A  
HETATM   34  C   UNL     1      -7.806   7.118  66.088  1.00  0.00    -0.105 A  
HETATM   35  C   UNL     1      -9.101   7.217  66.603  1.00  0.00    -0.175 A  
ENDBRANCH  26  30
ENDBRANCH  24  26
ENDBRANCH   7  22
TORSDOF 10
ENDMDL
MODEL      127
REMARK 921   NORMALIZED FREE ENERGY PREDICTED BY IDOCK:   -4.68 KCAL/MOL
REMARK 922        TOTAL FREE ENERGY PREDICTED BY IDOCK:   -8.67 KCAL/MOL
REMARK 923 INTER-LIGAND FREE ENERGY PREDICTED BY IDOCK:   -7.62 KCAL/MOL
REMARK 924 INTRA-LIGAND FREE ENERGY PREDICTED BY IDOCK:   -1.05 KCAL/MOL
REMARK 927      BINDING AFFINITY PREDICTED BY RF-SCORE:    0.00 PKD
ROOT
HETATM    1  C   UNL     1     -10.743  12.372  66.810  1.00  0.00    -0.234 C  
HETATM    2  S   UNL     1     -11.829  13.183  68.070  1.00  0.00    -0.326 SA 
HETATM    3  C   UNL     1     -10.788  14.708  68.191  1.00  0.00    -0.252 C  
HETATM    4  C   UNL     1      -9.945  14.740  66.900  1.00  0.00    -0.244 C  
HETATM    5  C   UNL     1     -11.674  15.936  68.406  1.00  0.00    -0.246 C  
HETATM    6  C   UNL     1      -9.904  14.551  69.447  1.00  0.00     0.061 C  
HETATM    7  C   UNL     1      -9.642  11.403  67.326  1.00  0.00    -0.174 C  
HETATM    8  N   UNL     1      -9.676  13.350  66.532  1.00  0.00    -0.276 N  
HETATM    9  O   UNL     1      -7.627  12.964  67.600  1.00  0.00    -0.129 OA 
HETATM   10  C   UNL     1      -8.705  12.624  67.166  1.00  0.00    -0.201 C  
ENDROOT
BRANCH   4  11
HETATM   11  C   UNL     1     -10.584  15.426  65.674  1.00  0.00    -0.364 C  
HETATM   12  O   UNL     1     -11.629  15.098  65.126  1.00  0.00    -0.326 OA 
BRANCH  11  13
HETATM   13  O   UNL     1      -9.768  16.414  65.204  1.00  0.00    -0.332 OA 
BRANCH  13  14
HETATM   14  C   UNL     1      -9.136  17.174  66.247  1.00  0.00    -0.228 C  
HETATM   15  C   UNL     1      -7.625  17.012  66.189  1.00  0.00    -0.280 C  
BRANCH  14  16
HETATM   16  O   UNL     1      -9.404  18.567  66.038  1.00  0.00    -0.496 OA 
BRANCH  16  17
HETATM   17  C   UNL     1     -10.033  19.147  67.088  1.00  0.00    -0.356 C  
HETATM   18  O   UNL     1     -11.243  19.270  67.210  1.00  0.00    -0.340 OA 
BRANCH  17  19
HETATM   19  O   UNL     1      -9.093  19.675  67.909  1.00  0.00    -0.314 OA 
BRANCH  19  20
HETATM   20  C   UNL     1      -8.131  20.519  67.259  1.00  0.00    -0.309 C  
HETATM   21  C   UNL     1      -6.848  20.518  68.072  1.00  0.00    -0.316 C  
ENDBRANCH  19  20
ENDBRANCH  17  19
ENDBRANCH  16  17
ENDBRANCH  14  16
ENDBRANCH  13  14
ENDBRANCH  11  13
ENDBRANCH   4  11
BRANCH   7  22
HETATM   22  N   UNL     1      -9.793  10.865  68.698  1.00  0.00    -0.184 N  
HETATM   23  H   UNL     1     -10.632  11.098  69.231  1.00  0.00     0.000 HD 
HETATM   24  C   UNL     1      -8.835  10.060  69.275  1.00  0.00    -0.178 C  
HETATM   25  O   UNL     1      -7.758   9.822  68.730  1.00  0.00    -0.078 OA 
BRANCH  24  26
HETATM   26  C   UNL     1      -9.222   9.498  70.663  1.00  0.00    -0.180 C  
HETATM   27  N   UNL     1      -8.070   9.620  71.599  1.00  0.00     0.176 NA 
HETATM   28  H2  UNL     1      -7.722  10.577  71.656  1.00  0.00     0.000 HD 
HETATM   29  H1  UNL     1      -8.324   9.249  72.515  1.00  0.00     0.000 HD 
BRANCH  26  30
HETATM   30  C   UNL     1      -9.741   8.076  70.568  1.00  0.00    -0.179 A  
HETATM   31  C   UNL     1     -11.118   7.831  70.707  1.00  0.00    -0.265 A  
HETATM   32  C   UNL     1     -11.625   6.532  70.636  1.00  0.00    -0.442 A  
HETATM   33  C   UNL     1     -10.765   5.458  70.417  1.00  0.00    -0.276 A  
HETATM   34  C   UNL     1      -9.400   5.684  70.256  1.00  0.00    -0.186 A  
HETATM   35  C   UNL     1      -8.892   6.983  70.321  1.00  0.00    -0.148 A  
ENDBRANCH  26  30
ENDBRANCH  24  26
ENDBRANCH   7  22
TORSDOF 10
ENDMDL
MODEL      128
REMARK 921   NORMALIZED FREE ENERGY PREDICTED BY IDOCK:   -4.67 KCAL/MOL
REMARK 922        TOTAL FREE ENERGY PREDICTED BY IDOCK:   -8.66 KCAL/MOL
REMARK 923 INTER-LIGAND FREE ENERGY PREDICTED BY IDOCK:   -7.52 KCAL/MOL
REMARK 924 INTRA-LIGAND FREE ENERGY PREDICTED BY IDOCK:   -1.14 KCAL/MOL
REMARK 927      BINDING AFFINITY PREDICTED BY RF-SCORE:    0.00 PKD
ROOT
HETATM    1  C   UNL     1     -11.237  13.766  67.756  1.00  0.00    -0.288 C  
HETATM    2  S   UNL     1      -9.681  13.405  68.691  1.00  0.00    -0.004 SA 
HETATM    3  C   UNL     1      -8.825  14.951  68.140  1.00  0.00    -0.174 C  
HETATM    4  C   UNL     1      -9.946  15.906  67.682  1.00  0.00    -0.237 C  
HETATM    5  C   UNL     1      -7.942  15.493  69.264  1.00  0.00    -0.238 C  
HETATM    6  C   UNL     1      -7.895  14.558  66.971  1.00  0.00    -0.015 C  
HETATM    7  C   UNL     1     -11.377  13.161  66.331  1.00  0.00    -0.315 C  
HETATM    8  N   UNL     1     -11.011  15.075  67.119  1.00  0.00    -0.323 N  
HETATM    9  O   UNL     1     -10.426  15.027  64.852  1.00  0.00    -0.405 OA 
HETATM   10  C   UNL     1     -10.914  14.560  65.856  1.00  0.00    -0.320 C  
ENDROOT
BRANCH   4  11
HETATM   11  C   UNL     1     -10.581  16.797  68.770  1.00  0.00    -0.348 C  
HETATM   12  O   UNL     1     -11.083  16.409  69.819  1.00  0.00    -0.338 OA 
BRANCH  11  13
HETATM   13  O   UNL     1     -10.602  18.100  68.364  1.00  0.00    -0.324 OA 
BRANCH  13  14
HETATM   14  C   UNL     1      -9.395  18.508  67.700  1.00  0.00    -0.281 C  
HETATM   15  C   UNL     1      -9.701  19.025  66.303  1.00  0.00    -0.392 C  
BRANCH  14  16
HETATM   16  O   UNL     1      -8.812  19.602  68.420  1.00  0.00    -0.340 OA 
BRANCH  16  17
HETATM   17  C   UNL     1      -7.458  19.577  68.413  1.00  0.00    -0.324 C  
HETATM   18  O   UNL     1      -6.742  20.195  67.638  1.00  0.00    -0.229 OA 
BRANCH  17  19
HETATM   19  O   UNL     1      -7.045  18.661  69.321  1.00  0.00    -0.258 OA 
BRANCH  19  20
HETATM   20  C   UNL     1      -5.679  18.801  69.739  1.00  0.00    -0.237 C  
HETATM   21  C   UNL     1      -5.435  17.893  70.932  1.00  0.00    -0.123 C  
ENDBRANCH  19  20
ENDBRANCH  17  19
ENDBRANCH  16  17
ENDBRANCH  14  16
ENDBRANCH  13  14
ENDBRANCH  11  13
ENDBRANCH   4  11
BRANCH   7  22
HETATM   22  N   UNL     1     -10.494  12.023  65.982  1.00  0.00    -0.241 N  
HETATM   23  H   UNL     1      -9.783  12.151  65.262  1.00  0.00     0.000 HD 
HETATM   24  C   UNL     1     -10.607  10.797  66.603  1.00  0.00    -0.232 C  
HETATM   25  O   UNL     1     -11.504  10.544  67.405  1.00  0.00    -0.405 OA 
BRANCH  24  26
HETATM   26  C   UNL     1      -9.524   9.771  66.194  1.00  0.00    -0.205 C  
HETATM   27  N   UNL     1     -10.130   8.417  66.067  1.00  0.00    -0.412 NA 
HETATM   28  H2  UNL     1     -10.924   8.412  65.427  1.00  0.00     0.000 HD 
HETATM   29  H1  UNL     1      -9.416   7.740  65.798  1.00  0.00     0.000 HD 
BRANCH  26  30
HETATM   30  C   UNL     1      -8.345   9.789  67.150  1.00  0.00    -0.121 A  
HETATM   31  C   UNL     1      -7.288  10.688  66.926  1.00  0.00    -0.114 A  
HETATM   32  C   UNL     1      -6.184  10.720  67.781  1.00  0.00    -0.047 A  
HETATM   33  C   UNL     1      -6.123   9.860  68.875  1.00  0.00    -0.041 A  
HETATM   34  C   UNL     1      -7.172   8.979  69.124  1.00  0.00    -0.067 A  
HETATM   35  C   UNL     1      -8.279   8.949  68.273  1.00  0.00    -0.121 A  
ENDBRANCH  26  30
ENDBRANCH  24  26
ENDBRANCH   7  22
TORSDOF 10
ENDMDL
MODEL      129
REMARK 921   NORMALIZED FREE ENERGY PREDICTED BY IDOCK:   -4.66 KCAL/MOL
REMARK 922        TOTAL FREE ENERGY PREDICTED BY IDOCK:   -8.65 KCAL/MOL
REMARK 923 INTER-LIGAND FREE ENERGY PREDICTED BY IDOCK:   -8.47 KCAL/MOL
REMARK 924 INTRA-LIGAND FREE ENERGY PREDICTED BY IDOCK:   -0.18 KCAL/MOL
REMARK 927      BINDING AFFINITY PREDICTED BY RF-SCORE:    0.00 PKD
ROOT
HETATM    1  C   UNL     1      -8.766  14.405  66.838  1.00  0.00    -0.193 C  
HETATM    2  S   UNL     1      -9.715  13.324  65.673  1.00  0.00    -0.002 SA 
HETATM    3  C   UNL     1     -11.304  14.248  65.889  1.00  0.00    -0.328 C  
HETATM    4  C   UNL     1     -10.909  15.631  66.444  1.00  0.00    -0.252 C  
HETATM    5  C   UNL     1     -12.076  14.284  64.570  1.00  0.00    -0.499 C  
HETATM    6  C   UNL     1     -12.155  13.448  66.899  1.00  0.00    -0.406 C  
HETATM    7  C   UNL     1      -8.660  13.948  68.320  1.00  0.00    -0.177 C  
HETATM    8  N   UNL     1      -9.724  15.433  67.279  1.00  0.00    -0.211 N  
HETATM    9  O   UNL     1     -10.682  15.104  69.391  1.00  0.00    -0.243 OA 
HETATM   10  C   UNL     1      -9.828  14.938  68.550  1.00  0.00    -0.217 C  
ENDROOT
BRANCH   4  11
HETATM   11  C   UNL     1     -10.565  16.719  65.404  1.00  0.00    -0.203 C  
HETATM   12  O   UNL     1     -11.113  16.881  64.321  1.00  0.00    -1.135 OA 
BRANCH  11  13
HETATM   13  O   UNL     1      -9.478  17.438  65.812  1.00  0.00    -0.523 OA 
BRANCH  13  14
HETATM   14  C   UNL     1      -9.817  18.732  66.336  1.00  0.00    -0.373 C  
HETATM   15  C   UNL     1     -10.996  19.325  65.580  1.00  0.00    -0.127 C  
BRANCH  14  16
HETATM   16  O   UNL     1     -10.239  18.589  67.699  1.00  0.00    -0.348 OA 
BRANCH  16  17
HETATM   17  C   UNL     1      -9.665  19.494  68.527  1.00  0.00    -0.419 C  
HETATM   18  O   UNL     1     -10.212  20.029  69.481  1.00  0.00    -0.256 OA 
BRANCH  17  19
HETATM   19  O   UNL     1      -8.436  19.796  68.042  1.00  0.00    -0.306 OA 
BRANCH  19  20
HETATM   20  C   UNL     1      -7.354  19.556  68.954  1.00  0.00    -0.363 C  
HETATM   21  C   UNL     1      -7.028  18.073  68.952  1.00  0.00    -0.263 C  
ENDBRANCH  19  20
ENDBRANCH  17  19
ENDBRANCH  16  17
ENDBRANCH  14  16
ENDBRANCH  13  14
ENDBRANCH  11  13
ENDBRANCH   4  11
BRANCH   7  22
HETATM   22  N   UNL     1      -8.937  12.523  68.617  1.00  0.00    -0.388 N  
HETATM   23  H   UNL     1      -9.887  12.245  68.864  1.00  0.00     0.000 HD 
HETATM   24  C   UNL     1      -7.948  11.564  68.569  1.00  0.00    -0.143 C  
HETATM   25  O   UNL     1      -6.766  11.844  68.377  1.00  0.00    -0.059 OA 
BRANCH  24  26
HETATM   26  C   UNL     1      -8.449  10.118  68.791  1.00  0.00    -0.131 C  
HETATM   27  N   UNL     1      -7.787   9.529  69.988  1.00  0.00    -0.131 NA 
HETATM   28  H2  UNL     1      -7.912  10.110  70.818  1.00  0.00     0.000 HD 
HETATM   29  H1  UNL     1      -8.117   8.575  70.134  1.00  0.00     0.000 HD 
BRANCH  26  30
HETATM   30  C   UNL     1      -8.264   9.264  67.550  1.00  0.00    -0.114 A  
HETATM   31  C   UNL     1      -7.244   8.297  67.521  1.00  0.00    -0.088 A  
HETATM   32  C   UNL     1      -7.041   7.504  66.390  1.00  0.00    -0.071 A  
HETATM   33  C   UNL     1      -7.858   7.660  65.272  1.00  0.00    -0.122 A  
HETATM   34  C   UNL     1      -8.887   8.598  65.291  1.00  0.00    -0.178 A  
HETATM   35  C   UNL     1      -9.095   9.388  66.424  1.00  0.00    -0.199 A  
ENDBRANCH  26  30
ENDBRANCH  24  26
ENDBRANCH   7  22
TORSDOF 10
ENDMDL
MODEL      130
REMARK 921   NORMALIZED FREE ENERGY PREDICTED BY IDOCK:   -4.65 KCAL/MOL
REMARK 922        TOTAL FREE ENERGY PREDICTED BY IDOCK:   -8.64 KCAL/MOL
REMARK 923 INTER-LIGAND FREE ENERGY PREDICTED BY IDOCK:   -7.79 KCAL/MOL
REMARK 924 INTRA-LIGAND FREE ENERGY PREDICTED BY IDOCK:   -0.85 KCAL/MOL
REMARK 927      BINDING AFFINITY PREDICTED BY RF-SCORE:    0.00 PKD
ROOT
HETATM    1  C   UNL     1      -8.607  11.466  68.716  1.00  0.00    -0.083 C  
HETATM    2  S   UNL     1     -10.248  11.048  67.969  1.00  0.00    -0.187 SA 
HETATM    3  C   UNL     1      -9.592   9.632  66.974  1.00  0.00    -0.173 C  
HETATM    4  C   UNL     1      -8.262   9.232  67.645  1.00  0.00    -0.115 C  
HETATM    5  C   UNL     1     -10.633   8.514  66.899  1.00  0.00    -0.279 C  
HETATM    6  C   UNL     1      -9.373  10.155  65.538  1.00  0.00    -0.260 C  
HETATM    7  C   UNL     1      -7.748  12.551  68.008  1.00  0.00    -0.140 C  
HETATM    8  N   UNL     1      -7.672  10.457  68.186  1.00  0.00    -0.091 N  
HETATM    9  O   UNL     1      -6.313  11.153  66.409  1.00  0.00    -0.127 OA 
HETATM   10  C   UNL     1      -7.014  11.343  67.377  1.00  0.00    -0.106 C  
ENDROOT
BRANCH   4  11
HETATM   11  C   UNL     1      -8.352   8.214  68.801  1.00  0.00    -0.126 C  
HETATM   12  O   UNL     1      -8.051   7.028  68.744  1.00  0.00    -0.118 OA 
BRANCH  11  13
HETATM   13  O   UNL     1      -8.915   8.793  69.901  1.00  0.00    -0.143 OA 
BRANCH  13  14
HETATM   14  C   UNL     1      -9.051   7.892  71.012  1.00  0.00    -0.143 C  
HETATM   15  C   UNL     1      -8.026   8.211  72.089  1.00  0.00    -0.168 C  
BRANCH  14  16
HETATM   16  O   UNL     1     -10.340   8.079  71.611  1.00  0.00    -0.201 OA 
BRANCH  16  17
HETATM   17  C   UNL     1     -11.316   7.368  70.996  1.00  0.00    -0.275 C  
HETATM   18  O   UNL     1     -11.145   6.345  70.347  1.00  0.00    -0.283 OA 
BRANCH  17  19
HETATM   19  O   UNL     1     -12.480   8.049  71.117  1.00  0.00    -0.284 OA 
BRANCH  19  20
HETATM   20  C   UNL     1     -12.511   9.002  72.190  1.00  0.00    -0.380 C  
HETATM   21  C   UNL     1     -12.884  10.363  71.628  1.00  0.00    -0.579 C  
ENDBRANCH  19  20
ENDBRANCH  17  19
ENDBRANCH  16  17
ENDBRANCH  14  16
ENDBRANCH  13  14
ENDBRANCH  11  13
ENDBRANCH   4  11
BRANCH   7  22
HETATM   22  N   UNL     1      -8.441  13.464  67.069  1.00  0.00    -0.365 N  
HETATM   23  H   UNL     1      -8.419  13.256  66.070  1.00  0.00     0.000 HD 
HETATM   24  C   UNL     1      -9.114  14.585  67.506  1.00  0.00    -0.193 C  
HETATM   25  O   UNL     1      -9.097  14.948  68.681  1.00  0.00    -0.174 OA 
BRANCH  24  26
HETATM   26  C   UNL     1      -9.874  15.348  66.396  1.00  0.00    -0.281 C  
HETATM   27  N   UNL     1      -9.702  14.650  65.092  1.00  0.00    -0.461 NA 
HETATM   28  H2  UNL     1      -9.980  13.670  65.143  1.00  0.00     0.000 HD 
HETATM   29  H1  UNL     1     -10.203  15.153  64.359  1.00  0.00     0.000 HD 
BRANCH  26  30
HETATM   30  C   UNL     1      -9.457  16.806  66.331  1.00  0.00    -0.307 A  
HETATM   31  C   UNL     1     -10.443  17.807  66.329  1.00  0.00    -0.307 A  
HETATM   32  C   UNL     1     -10.091  19.157  66.258  1.00  0.00    -0.499 A  
HETATM   33  C   UNL     1      -8.749  19.527  66.194  1.00  0.00    -0.332 A  
HETATM   34  C   UNL     1      -7.759  18.548  66.217  1.00  0.00    -0.283 A  
HETATM   35  C   UNL     1      -8.109  17.198  66.294  1.00  0.00    -0.325 A  
ENDBRANCH  26  30
ENDBRANCH  24  26
ENDBRANCH   7  22
TORSDOF 10
ENDMDL
MODEL      131
REMARK 921   NORMALIZED FREE ENERGY PREDICTED BY IDOCK:   -4.65 KCAL/MOL
REMARK 922        TOTAL FREE ENERGY PREDICTED BY IDOCK:   -8.63 KCAL/MOL
REMARK 923 INTER-LIGAND FREE ENERGY PREDICTED BY IDOCK:   -8.29 KCAL/MOL
REMARK 924 INTRA-LIGAND FREE ENERGY PREDICTED BY IDOCK:   -0.34 KCAL/MOL
REMARK 927      BINDING AFFINITY PREDICTED BY RF-SCORE:    0.00 PKD
ROOT
HETATM    1  C   UNL     1      -9.198  13.712  67.286  1.00  0.00    -0.232 C  
HETATM    2  S   UNL     1      -9.415  14.342  69.012  1.00  0.00     0.042 SA 
HETATM    3  C   UNL     1     -11.261  14.419  68.902  1.00  0.00    -0.262 C  
HETATM    4  C   UNL     1     -11.647  13.485  67.737  1.00  0.00    -0.339 C  
HETATM    5  C   UNL     1     -11.884  14.053  70.250  1.00  0.00    -0.373 C  
HETATM    6  C   UNL     1     -11.633  15.888  68.606  1.00  0.00    -0.383 C  
HETATM    7  C   UNL     1      -8.942  14.757  66.164  1.00  0.00    -0.026 C  
HETATM    8  N   UNL     1     -10.564  13.557  66.756  1.00  0.00    -0.271 N  
HETATM    9  O   UNL     1     -11.317  15.268  65.345  1.00  0.00    -0.326 OA 
HETATM   10  C   UNL     1     -10.459  14.614  65.893  1.00  0.00    -0.314 C  
ENDROOT
BRANCH   4  11
HETATM   11  C   UNL     1     -11.856  11.996  68.087  1.00  0.00    -0.286 C  
HETATM   12  O   UNL     1     -12.123  11.545  69.194  1.00  0.00    -0.325 OA 
BRANCH  11  13
HETATM   13  O   UNL     1     -11.603  11.214  66.997  1.00  0.00    -0.463 OA 
BRANCH  13  14
HETATM   14  C   UNL     1     -10.416  10.416  67.132  1.00  0.00    -0.256 C  
HETATM   15  C   UNL     1     -10.773   8.971  67.442  1.00  0.00    -0.231 C  
BRANCH  14  16
HETATM   16  O   UNL     1      -9.716  10.402  65.880  1.00  0.00    -0.192 OA 
BRANCH  16  17
HETATM   17  C   UNL     1      -8.376  10.276  66.026  1.00  0.00    -0.142 C  
HETATM   18  O   UNL     1      -7.751  10.493  67.055  1.00  0.00    -0.105 OA 
BRANCH  17  19
HETATM   19  O   UNL     1      -7.840   9.996  64.814  1.00  0.00    -0.136 OA 
BRANCH  19  20
HETATM   20  C   UNL     1      -7.176   8.726  64.729  1.00  0.00    -0.091 C  
HETATM   21  C   UNL     1      -8.152   7.633  65.129  1.00  0.00    -0.134 C  
ENDBRANCH  19  20
ENDBRANCH  17  19
ENDBRANCH  16  17
ENDBRANCH  14  16
ENDBRANCH  13  14
ENDBRANCH  11  13
ENDBRANCH   4  11
BRANCH   7  22
HETATM   22  N   UNL     1      -8.471  16.100  66.576  1.00  0.00    -0.282 N  
HETATM   23  H   UNL     1      -9.117  16.888  66.525  1.00  0.00     0.000 HD 
HETATM   24  C   UNL     1      -7.186  16.314  67.027  1.00  0.00    -0.227 C  
HETATM   25  O   UNL     1      -6.329  15.433  67.020  1.00  0.00    -0.267 OA 
BRANCH  24  26
HETATM   26  C   UNL     1      -6.915  17.753  67.525  1.00  0.00    -0.177 C  
HETATM   27  N   UNL     1      -6.464  17.723  68.943  1.00  0.00    -0.211 NA 
HETATM   28  H2  UNL     1      -5.656  17.113  69.075  1.00  0.00     0.000 HD 
HETATM   29  H1  UNL     1      -6.285  18.672  69.272  1.00  0.00     0.000 HD 
BRANCH  26  30
HETATM   30  C   UNL     1      -8.119  18.654  67.321  1.00  0.00    -0.249 A  
HETATM   31  C   UNL     1      -9.060  18.796  68.355  1.00  0.00    -0.372 A  
HETATM   32  C   UNL     1     -10.184  19.607  68.193  1.00  0.00    -0.580 A  
HETATM   33  C   UNL     1     -10.383  20.295  66.998  1.00  0.00    -0.421 A  
HETATM   34  C   UNL     1      -9.450  20.183  65.970  1.00  0.00    -0.345 A  
HETATM   35  C   UNL     1      -8.322  19.375  66.132  1.00  0.00    -0.310 A  
ENDBRANCH  26  30
ENDBRANCH  24  26
ENDBRANCH   7  22
TORSDOF 10
ENDMDL
MODEL      132
REMARK 921   NORMALIZED FREE ENERGY PREDICTED BY IDOCK:   -4.63 KCAL/MOL
REMARK 922        TOTAL FREE ENERGY PREDICTED BY IDOCK:   -8.60 KCAL/MOL
REMARK 923 INTER-LIGAND FREE ENERGY PREDICTED BY IDOCK:   -6.96 KCAL/MOL
REMARK 924 INTRA-LIGAND FREE ENERGY PREDICTED BY IDOCK:   -1.64 KCAL/MOL
REMARK 927      BINDING AFFINITY PREDICTED BY RF-SCORE:    0.00 PKD
ROOT
HETATM    1  C   UNL     1     -10.332   8.835  67.260  1.00  0.00    -0.290 C  
HETATM    2  S   UNL     1     -11.152   8.305  68.833  1.00  0.00     0.438 SA 
HETATM    3  C   UNL     1     -10.457   9.702  69.829  1.00  0.00    -0.238 C  
HETATM    4  C   UNL     1     -10.048  10.780  68.805  1.00  0.00    -0.191 C  
HETATM    5  C   UNL     1     -11.476  10.163  70.871  1.00  0.00    -0.444 C  
HETATM    6  C   UNL     1      -9.236   9.145  70.593  1.00  0.00    -0.310 C  
HETATM    7  C   UNL     1      -8.955   8.201  66.917  1.00  0.00    -0.140 C  
HETATM    8  N   UNL     1      -9.616  10.078  67.596  1.00  0.00    -0.147 N  
HETATM    9  O   UNL     1      -7.313   9.867  67.967  1.00  0.00    -0.083 OA 
HETATM   10  C   UNL     1      -8.376   9.507  67.513  1.00  0.00    -0.125 C  
ENDROOT
BRANCH   4  11
HETATM   11  C   UNL     1     -11.141  11.787  68.390  1.00  0.00    -0.237 C  
HETATM   12  O   UNL     1     -12.079  11.564  67.634  1.00  0.00    -0.623 OA 
BRANCH  11  13
HETATM   13  O   UNL     1     -10.870  13.021  68.906  1.00  0.00    -0.246 OA 
BRANCH  13  14
HETATM   14  C   UNL     1     -12.050  13.774  69.230  1.00  0.00    -0.329 C  
HETATM   15  C   UNL     1     -12.328  13.719  70.724  1.00  0.00    -0.451 C  
BRANCH  14  16
HETATM   16  O   UNL     1     -11.827  15.154  68.909  1.00  0.00    -0.326 OA 
BRANCH  16  17
HETATM   17  C   UNL     1     -11.393  15.336  67.639  1.00  0.00    -0.312 C  
HETATM   18  O   UNL     1     -11.851  14.787  66.647  1.00  0.00    -0.342 OA 
BRANCH  17  19
HETATM   19  O   UNL     1     -10.293  16.126  67.675  1.00  0.00    -0.273 OA 
BRANCH  19  20
HETATM   20  C   UNL     1      -9.454  16.044  66.512  1.00  0.00    -0.271 C  
HETATM   21  C   UNL     1      -8.119  15.440  66.912  1.00  0.00    -0.259 C  
ENDBRANCH  19  20
ENDBRANCH  17  19
ENDBRANCH  16  17
ENDBRANCH  14  16
ENDBRANCH  13  14
ENDBRANCH  11  13
ENDBRANCH   4  11
BRANCH   7  22
HETATM   22  N   UNL     1      -8.590   6.944  67.611  1.00  0.00    -0.122 N  
HETATM   23  H   UNL     1      -7.945   6.983  68.400  1.00  0.00     0.000 HD 
HETATM   24  C   UNL     1      -9.096   5.723  67.219  1.00  0.00    -0.110 C  
HETATM   25  O   UNL     1      -9.797   5.590  66.217  1.00  0.00    -0.158 OA 
BRANCH  24  26
HETATM   26  C   UNL     1      -8.698   4.542  68.134  1.00  0.00    -0.103 C  
HETATM   27  N   UNL     1      -9.409   3.305  67.707  1.00  0.00    -0.196 NA 
HETATM   28  H2  UNL     1      -9.253   3.096  66.720  1.00  0.00     0.000 HD 
HETATM   29  H1  UNL     1      -9.147   2.526  68.310  1.00  0.00     0.000 HD 
BRANCH  26  30
HETATM   30  C   UNL     1      -8.930   4.864  69.599  1.00  0.00    -0.137 A  
HETATM   31  C   UNL     1     -10.243   4.921  70.095  1.00  0.00    -0.310 A  
HETATM   32  C   UNL     1     -10.490   5.227  71.435  1.00  0.00    -0.273 A  
HETATM   33  C   UNL     1      -9.427   5.474  72.302  1.00  0.00    -0.163 A  
HETATM   34  C   UNL     1      -8.118   5.401  71.832  1.00  0.00    -0.114 A  
HETATM   35  C   UNL     1      -7.870   5.090  70.493  1.00  0.00    -0.074 A  
ENDBRANCH  26  30
ENDBRANCH  24  26
ENDBRANCH   7  22
TORSDOF 10
ENDMDL
MODEL      133
REMARK 921   NORMALIZED FREE ENERGY PREDICTED BY IDOCK:   -4.62 KCAL/MOL
REMARK 922        TOTAL FREE ENERGY PREDICTED BY IDOCK:   -8.59 KCAL/MOL
REMARK 923 INTER-LIGAND FREE ENERGY PREDICTED BY IDOCK:   -7.40 KCAL/MOL
REMARK 924 INTRA-LIGAND FREE ENERGY PREDICTED BY IDOCK:   -1.19 KCAL/MOL
REMARK 927      BINDING AFFINITY PREDICTED BY RF-SCORE:    0.00 PKD
ROOT
HETATM    1  C   UNL     1      -9.587  10.852  69.298  1.00  0.00    -0.044 C  
HETATM    2  S   UNL     1      -7.760  10.744  69.019  1.00  0.00    -0.133 SA 
HETATM    3  C   UNL     1      -7.911   9.674  67.517  1.00  0.00    -0.106 C  
HETATM    4  C   UNL     1      -9.355   9.869  67.010  1.00  0.00    -0.147 C  
HETATM    5  C   UNL     1      -6.824  10.033  66.503  1.00  0.00    -0.087 C  
HETATM    6  C   UNL     1      -7.656   8.221  67.972  1.00  0.00    -0.102 C  
HETATM    7  C   UNL     1     -10.228   9.825  70.273  1.00  0.00    -0.289 C  
HETATM    8  N   UNL     1     -10.193  10.095  68.188  1.00  0.00    -0.163 N  
HETATM    9  O   UNL     1     -10.897   7.920  68.694  1.00  0.00    -0.087 OA 
HETATM   10  C   UNL     1     -10.596   9.056  68.981  1.00  0.00    -0.190 C  
ENDROOT
BRANCH   4  11
HETATM   11  C   UNL     1      -9.593  11.046  66.041  1.00  0.00    -0.215 C  
HETATM   12  O   UNL     1      -8.970  12.100  66.018  1.00  0.00    -0.122 OA 
BRANCH  11  13
HETATM   13  O   UNL     1     -10.679  10.798  65.252  1.00  0.00    -0.202 OA 
BRANCH  13  14
HETATM   14  C   UNL     1     -11.360  11.991  64.830  1.00  0.00    -0.310 C  
HETATM   15  C   UNL     1     -12.002  11.789  63.467  1.00  0.00    -0.484 C  
BRANCH  14  16
HETATM   16  O   UNL     1     -12.429  12.267  65.746  1.00  0.00    -0.564 OA 
BRANCH  16  17
HETATM   17  C   UNL     1     -12.617  13.593  65.952  1.00  0.00    -0.425 C  
HETATM   18  O   UNL     1     -13.429  14.293  65.364  1.00  0.00    -0.581 OA 
BRANCH  17  19
HETATM   19  O   UNL     1     -11.674  14.026  66.822  1.00  0.00    -0.364 OA 
BRANCH  19  20
HETATM   20  C   UNL     1     -11.828  13.546  68.166  1.00  0.00    -0.365 C  
HETATM   21  C   UNL     1     -10.930  14.358  69.083  1.00  0.00    -0.288 C  
ENDBRANCH  19  20
ENDBRANCH  17  19
ENDBRANCH  16  17
ENDBRANCH  14  16
ENDBRANCH  13  14
ENDBRANCH  11  13
ENDBRANCH   4  11
BRANCH   7  22
HETATM   22  N   UNL     1      -9.327   9.127  71.220  1.00  0.00    -0.249 N  
HETATM   23  H   UNL     1      -8.328   9.094  71.018  1.00  0.00     0.000 HD 
HETATM   24  C   UNL     1      -9.801   8.523  72.364  1.00  0.00    -0.288 C  
HETATM   25  O   UNL     1     -11.001   8.438  72.617  1.00  0.00    -0.353 OA 
BRANCH  24  26
HETATM   26  C   UNL     1      -8.700   7.951  73.288  1.00  0.00    -0.236 C  
HETATM   27  N   UNL     1      -7.499   8.830  73.251  1.00  0.00    -0.365 NA 
HETATM   28  H2  UNL     1      -7.726   9.798  73.479  1.00  0.00     0.000 HD 
HETATM   29  H1  UNL     1      -6.772   8.453  73.859  1.00  0.00     0.000 HD 
BRANCH  26  30
HETATM   30  C   UNL     1      -8.372   6.509  72.944  1.00  0.00    -0.115 A  
HETATM   31  C   UNL     1      -9.381   5.671  72.442  1.00  0.00    -0.154 A  
HETATM   32  C   UNL     1      -9.114   4.337  72.128  1.00  0.00    -0.150 A  
HETATM   33  C   UNL     1      -7.831   3.823  72.302  1.00  0.00    -0.068 A  
HETATM   34  C   UNL     1      -6.812   4.645  72.777  1.00  0.00    -0.065 A  
HETATM   35  C   UNL     1      -7.078   5.981  73.088  1.00  0.00    -0.085 A  
ENDBRANCH  26  30
ENDBRANCH  24  26
ENDBRANCH   7  22
TORSDOF 10
ENDMDL
MODEL      134
REMARK 921   NORMALIZED FREE ENERGY PREDICTED BY IDOCK:   -4.62 KCAL/MOL
REMARK 922        TOTAL FREE ENERGY PREDICTED BY IDOCK:   -8.58 KCAL/MOL
REMARK 923 INTER-LIGAND FREE ENERGY PREDICTED BY IDOCK:   -7.80 KCAL/MOL
REMARK 924 INTRA-LIGAND FREE ENERGY PREDICTED BY IDOCK:   -0.78 KCAL/MOL
REMARK 927      BINDING AFFINITY PREDICTED BY RF-SCORE:    0.00 PKD
ROOT
HETATM    1  C   UNL     1      -9.978  13.998  65.926  1.00  0.00    -0.307 C  
HETATM    2  S   UNL     1     -11.545  14.344  66.849  1.00  0.00    -0.398 SA 
HETATM    3  C   UNL     1     -10.722  15.387  68.137  1.00  0.00    -0.271 C  
HETATM    4  C   UNL     1      -9.383  15.835  67.516  1.00  0.00    -0.209 C  
HETATM    5  C   UNL     1     -11.646  16.531  68.557  1.00  0.00    -0.010 C  
HETATM    6  C   UNL     1     -10.507  14.489  69.374  1.00  0.00    -0.139 C  
HETATM    7  C   UNL     1      -9.206  12.696  66.279  1.00  0.00    -0.110 C  
HETATM    8  N   UNL     1      -8.933  14.749  66.644  1.00  0.00    -0.265 N  
HETATM    9  O   UNL     1      -7.589  13.499  68.100  1.00  0.00    -0.112 OA 
HETATM   10  C   UNL     1      -8.338  13.629  67.158  1.00  0.00    -0.137 C  
ENDROOT
BRANCH   4  11
HETATM   11  C   UNL     1      -9.411  17.125  66.669  1.00  0.00    -0.264 C  
HETATM   12  O   UNL     1     -10.117  17.330  65.688  1.00  0.00    -0.566 OA 
BRANCH  11  13
HETATM   13  O   UNL     1      -8.456  17.998  67.103  1.00  0.00    -0.227 OA 
BRANCH  13  14
HETATM   14  C   UNL     1      -8.928  19.351  67.206  1.00  0.00    -0.299 C  
HETATM   15  C   UNL     1      -9.985  19.470  68.293  1.00  0.00    -0.533 C  
BRANCH  14  16
HETATM   16  O   UNL     1      -7.840  20.197  67.604  1.00  0.00    -0.293 OA 
BRANCH  16  17
HETATM   17  C   UNL     1      -6.677  19.520  67.763  1.00  0.00    -0.230 C  
HETATM   18  O   UNL     1      -5.846  19.324  66.888  1.00  0.00    -0.168 OA 
BRANCH  17  19
HETATM   19  O   UNL     1      -6.657  18.997  69.012  1.00  0.00    -0.266 OA 
BRANCH  19  20
HETATM   20  C   UNL     1      -5.680  17.965  69.217  1.00  0.00    -0.213 C  
HETATM   21  C   UNL     1      -6.397  16.669  69.553  1.00  0.00    -0.227 C  
ENDBRANCH  19  20
ENDBRANCH  17  19
ENDBRANCH  16  17
ENDBRANCH  14  16
ENDBRANCH  13  14
ENDBRANCH  11  13
ENDBRANCH   4  11
BRANCH   7  22
HETATM   22  N   UNL     1      -9.952  11.631  66.989  1.00  0.00    -0.202 N  
HETATM   23  H   UNL     1     -10.254  11.795  67.950  1.00  0.00     0.000 HD 
HETATM   24  C   UNL     1     -10.250  10.426  66.389  1.00  0.00    -0.230 C  
HETATM   25  O   UNL     1      -9.832  10.125  65.273  1.00  0.00    -0.280 OA 
BRANCH  24  26
HETATM   26  C   UNL     1     -11.137   9.489  67.241  1.00  0.00     0.182 C  
HETATM   27  N   UNL     1     -11.688  10.233  68.407  1.00  0.00    -0.698 NA 
HETATM   28  H2  UNL     1     -12.186  11.077  68.122  1.00  0.00     0.000 HD 
HETATM   29  H1  UNL     1     -12.273   9.615  68.970  1.00  0.00     0.000 HD 
BRANCH  26  30
HETATM   30  C   UNL     1     -10.390   8.235  67.657  1.00  0.00    -0.313 A  
HETATM   31  C   UNL     1     -10.903   6.976  67.305  1.00  0.00    -0.403 A  
HETATM   32  C   UNL     1     -10.245   5.804  67.683  1.00  0.00    -0.236 A  
HETATM   33  C   UNL     1      -9.060   5.872  68.413  1.00  0.00    -0.115 A  
HETATM   34  C   UNL     1      -8.526   7.113  68.753  1.00  0.00    -0.126 A  
HETATM   35  C   UNL     1      -9.181   8.286  68.371  1.00  0.00    -0.135 A  
ENDBRANCH  26  30
ENDBRANCH  24  26
ENDBRANCH   7  22
TORSDOF 10
ENDMDL
MODEL      135
REMARK 921   NORMALIZED FREE ENERGY PREDICTED BY IDOCK:   -4.61 KCAL/MOL
REMARK 922        TOTAL FREE ENERGY PREDICTED BY IDOCK:   -8.57 KCAL/MOL
REMARK 923 INTER-LIGAND FREE ENERGY PREDICTED BY IDOCK:   -7.30 KCAL/MOL
REMARK 924 INTRA-LIGAND FREE ENERGY PREDICTED BY IDOCK:   -1.26 KCAL/MOL
REMARK 927      BINDING AFFINITY PREDICTED BY RF-SCORE:    0.00 PKD
ROOT
HETATM    1  C   UNL     1     -11.393   9.807  68.469  1.00  0.00     0.087 C  
HETATM    2  S   UNL     1     -10.268  10.578  67.218  1.00  0.00    -0.227 SA 
HETATM    3  C   UNL     1      -8.762   9.681  67.813  1.00  0.00    -0.122 C  
HETATM    4  C   UNL     1      -9.287   8.465  68.603  1.00  0.00    -0.143 C  
HETATM    5  C   UNL     1      -7.855   9.334  66.632  1.00  0.00    -0.104 C  
HETATM    6  C   UNL     1      -7.985  10.660  68.719  1.00  0.00    -0.135 C  
HETATM    7  C   UNL     1     -11.635  10.582  69.795  1.00  0.00    -0.294 C  
HETATM    8  N   UNL     1     -10.544   8.875  69.231  1.00  0.00    -0.226 N  
HETATM    9  O   UNL     1      -9.804   9.635  71.319  1.00  0.00    -0.153 OA 
HETATM   10  C   UNL     1     -10.552   9.636  70.368  1.00  0.00    -0.295 C  
ENDROOT
BRANCH   4  11
HETATM   11  C   UNL     1      -9.574   7.185  67.789  1.00  0.00    -0.129 C  
HETATM   12  O   UNL     1     -10.259   7.111  66.777  1.00  0.00    -0.235 OA 
BRANCH  11  13
HETATM   13  O   UNL     1      -9.031   6.098  68.410  1.00  0.00    -0.117 OA 
BRANCH  13  14
HETATM   14  C   UNL     1      -9.988   5.338  69.166  1.00  0.00    -0.205 C  
HETATM   15  C   UNL     1      -9.707   3.848  69.044  1.00  0.00    -0.129 C  
BRANCH  14  16
HETATM   16  O   UNL     1      -9.852   5.665  70.556  1.00  0.00    -0.174 OA 
BRANCH  16  17
HETATM   17  C   UNL     1     -11.043   5.851  71.173  1.00  0.00    -0.236 C  
HETATM   18  O   UNL     1     -11.971   6.517  70.736  1.00  0.00    -0.378 OA 
BRANCH  17  19
HETATM   19  O   UNL     1     -10.980   5.284  72.401  1.00  0.00    -0.232 OA 
BRANCH  19  20
HETATM   20  C   UNL     1      -9.681   5.312  73.011  1.00  0.00    -0.146 C  
HETATM   21  C   UNL     1      -9.274   3.893  73.366  1.00  0.00    -0.115 C  
ENDBRANCH  19  20
ENDBRANCH  17  19
ENDBRANCH  16  17
ENDBRANCH  14  16
ENDBRANCH  13  14
ENDBRANCH  11  13
ENDBRANCH   4  11
BRANCH   7  22
HETATM   22  N   UNL     1     -11.317  12.029  69.807  1.00  0.00    -0.490 N  
HETATM   23  H   UNL     1     -10.528  12.367  69.256  1.00  0.00     0.000 HD 
HETATM   24  C   UNL     1     -12.057  12.931  70.543  1.00  0.00    -0.282 C  
HETATM   25  O   UNL     1     -12.955  12.580  71.305  1.00  0.00    -0.322 OA 
BRANCH  24  26
HETATM   26  C   UNL     1     -11.651  14.409  70.337  1.00  0.00    -0.226 C  
HETATM   27  N   UNL     1     -12.830  15.293  70.549  1.00  0.00    -0.581 NA 
HETATM   28  H2  UNL     1     -13.266  15.138  71.459  1.00  0.00     0.000 HD 
HETATM   29  H1  UNL     1     -12.563  16.268  70.414  1.00  0.00     0.000 HD 
BRANCH  26  30
HETATM   30  C   UNL     1     -11.000  14.629  68.984  1.00  0.00    -0.269 A  
HETATM   31  C   UNL     1      -9.662  15.054  68.921  1.00  0.00    -0.224 A  
HETATM   32  C   UNL     1      -9.039  15.276  67.692  1.00  0.00    -0.184 A  
HETATM   33  C   UNL     1      -9.741  15.071  66.506  1.00  0.00    -0.285 A  
HETATM   34  C   UNL     1     -11.061  14.630  66.549  1.00  0.00    -0.329 A  
HETATM   35  C   UNL     1     -11.684  14.402  67.778  1.00  0.00    -0.407 A  
ENDBRANCH  26  30
ENDBRANCH  24  26
ENDBRANCH   7  22
TORSDOF 10
ENDMDL
MODEL      136
REMARK 921   NORMALIZED FREE ENERGY PREDICTED BY IDOCK:   -4.59 KCAL/MOL
REMARK 922        TOTAL FREE ENERGY PREDICTED BY IDOCK:   -8.54 KCAL/MOL
REMARK 923 INTER-LIGAND FREE ENERGY PREDICTED BY IDOCK:   -7.91 KCAL/MOL
REMARK 924 INTRA-LIGAND FREE ENERGY PREDICTED BY IDOCK:   -0.63 KCAL/MOL
REMARK 927      BINDING AFFINITY PREDICTED BY RF-SCORE:    0.00 PKD
ROOT
HETATM    1  C   UNL     1      -9.245  11.862  66.099  1.00  0.00    -0.199 C  
HETATM    2  S   UNL     1     -10.889  11.192  66.621  1.00  0.00    -0.220 SA 
HETATM    3  C   UNL     1     -10.674  11.663  68.398  1.00  0.00    -0.217 C  
HETATM    4  C   UNL     1      -9.584  12.754  68.410  1.00  0.00    -0.175 C  
HETATM    5  C   UNL     1     -12.015  12.090  68.996  1.00  0.00    -0.321 C  
HETATM    6  C   UNL     1     -10.219  10.392  69.148  1.00  0.00    -0.239 C  
HETATM    7  C   UNL     1      -8.043  10.876  66.063  1.00  0.00    -0.142 C  
HETATM    8  N   UNL     1      -8.660  12.446  67.319  1.00  0.00    -0.178 N  
HETATM    9  O   UNL     1      -7.053  11.139  68.413  1.00  0.00    -0.068 OA 
HETATM   10  C   UNL     1      -7.707  11.473  67.451  1.00  0.00    -0.143 C  
ENDROOT
BRANCH   4  11
HETATM   11  C   UNL     1     -10.062  14.208  68.214  1.00  0.00    -0.241 C  
HETATM   12  O   UNL     1     -10.714  14.633  67.267  1.00  0.00    -0.281 OA 
BRANCH  11  13
HETATM   13  O   UNL     1      -9.572  15.007  69.207  1.00  0.00    -0.215 OA 
BRANCH  13  14
HETATM   14  C   UNL     1     -10.577  15.825  69.827  1.00  0.00    -0.312 C  
HETATM   15  C   UNL     1     -10.961  16.983  68.919  1.00  0.00    -0.141 C  
BRANCH  14  16
HETATM   16  O   UNL     1     -11.766  15.044  70.014  1.00  0.00    -0.267 OA 
BRANCH  16  17
HETATM   17  C   UNL     1     -12.573  15.536  70.985  1.00  0.00    -0.454 C  
HETATM   18  O   UNL     1     -13.782  15.691  70.890  1.00  0.00    -0.549 OA 
BRANCH  17  19
HETATM   19  O   UNL     1     -11.797  15.940  72.019  1.00  0.00    -0.428 OA 
BRANCH  19  20
HETATM   20  C   UNL     1     -11.930  15.156  73.214  1.00  0.00    -0.362 C  
HETATM   21  C   UNL     1     -12.474  16.039  74.323  1.00  0.00    -0.725 C  
ENDBRANCH  19  20
ENDBRANCH  17  19
ENDBRANCH  16  17
ENDBRANCH  14  16
ENDBRANCH  13  14
ENDBRANCH  11  13
ENDBRANCH   4  11
BRANCH   7  22
HETATM   22  N   UNL     1      -8.350   9.427  66.027  1.00  0.00    -0.117 N  
HETATM   23  H   UNL     1      -9.314   9.122  66.167  1.00  0.00     0.000 HD 
HETATM   24  C   UNL     1      -7.372   8.481  65.810  1.00  0.00    -0.080 C  
HETATM   25  O   UNL     1      -6.179   8.771  65.734  1.00  0.00    -0.054 OA 
BRANCH  24  26
HETATM   26  C   UNL     1      -7.899   7.032  65.687  1.00  0.00    -0.112 C  
HETATM   27  N   UNL     1      -8.483   6.818  64.335  1.00  0.00    -0.339 NA 
HETATM   28  H2  UNL     1      -7.823   7.050  63.592  1.00  0.00     0.000 HD 
HETATM   29  H1  UNL     1      -8.831   5.863  64.253  1.00  0.00     0.000 HD 
BRANCH  26  30
HETATM   30  C   UNL     1      -8.876   6.695  66.799  1.00  0.00    -0.132 A  
HETATM   31  C   UNL     1      -8.386   6.328  68.063  1.00  0.00    -0.114 A  
HETATM   32  C   UNL     1      -9.259   6.000  69.102  1.00  0.00    -0.131 A  
HETATM   33  C   UNL     1     -10.636   6.041  68.896  1.00  0.00    -0.356 A  
HETATM   34  C   UNL     1     -11.140   6.424  67.655  1.00  0.00    -0.388 A  
HETATM   35  C   UNL     1     -10.268   6.757  66.616  1.00  0.00    -0.211 A  
ENDBRANCH  26  30
ENDBRANCH  24  26
ENDBRANCH   7  22
TORSDOF 10
ENDMDL
MODEL      137
REMARK 921   NORMALIZED FREE ENERGY PREDICTED BY IDOCK:   -4.59 KCAL/MOL
REMARK 922        TOTAL FREE ENERGY PREDICTED BY IDOCK:   -8.53 KCAL/MOL
REMARK 923 INTER-LIGAND FREE ENERGY PREDICTED BY IDOCK:   -7.51 KCAL/MOL
REMARK 924 INTRA-LIGAND FREE ENERGY PREDICTED BY IDOCK:   -1.02 KCAL/MOL
REMARK 927      BINDING AFFINITY PREDICTED BY RF-SCORE:    0.00 PKD
ROOT
HETATM    1  C   UNL     1      -8.377  10.988  68.220  1.00  0.00    -0.133 C  
HETATM    2  S   UNL     1      -7.954   9.981  66.726  1.00  0.00    -0.115 SA 
HETATM    3  C   UNL     1      -9.682   9.982  66.063  1.00  0.00    -0.240 C  
HETATM    4  C   UNL     1     -10.388  11.171  66.746  1.00  0.00    -0.241 C  
HETATM    5  C   UNL     1      -9.659  10.044  64.535  1.00  0.00    -0.346 C  
HETATM    6  C   UNL     1     -10.317   8.633  66.460  1.00  0.00    -0.237 C  
HETATM    7  C   UNL     1      -8.724  10.223  69.529  1.00  0.00    -0.139 C  
HETATM    8  N   UNL     1      -9.811  11.298  68.084  1.00  0.00    -0.177 N  
HETATM    9  O   UNL     1     -11.270   9.980  69.358  1.00  0.00    -0.231 OA 
HETATM   10  C   UNL     1     -10.192  10.466  69.102  1.00  0.00    -0.222 C  
ENDROOT
BRANCH   4  11
HETATM   11  C   UNL     1     -10.256  12.543  66.054  1.00  0.00    -0.251 C  
HETATM   12  O   UNL     1     -10.265  12.747  64.846  1.00  0.00    -0.295 OA 
BRANCH  11  13
HETATM   13  O   UNL     1     -10.026  13.520  66.979  1.00  0.00    -0.238 OA 
BRANCH  13  14
HETATM   14  C   UNL     1     -10.876  14.667  66.818  1.00  0.00    -0.312 C  
HETATM   15  C   UNL     1     -11.632  14.959  68.106  1.00  0.00    -0.356 C  
BRANCH  14  16
HETATM   16  O   UNL     1     -10.063  15.819  66.555  1.00  0.00    -0.260 OA 
BRANCH  16  17
HETATM   17  C   UNL     1     -10.462  16.506  65.457  1.00  0.00    -0.301 C  
HETATM   18  O   UNL     1     -10.945  16.012  64.448  1.00  0.00    -0.554 OA 
BRANCH  17  19
HETATM   19  O   UNL     1     -10.118  17.806  65.620  1.00  0.00    -0.570 OA 
BRANCH  19  20
HETATM   20  C   UNL     1     -10.284  18.310  66.954  1.00  0.00    -0.375 C  
HETATM   21  C   UNL     1     -10.532  19.807  66.887  1.00  0.00    -0.596 C  
ENDBRANCH  19  20
ENDBRANCH  17  19
ENDBRANCH  16  17
ENDBRANCH  14  16
ENDBRANCH  13  14
ENDBRANCH  11  13
ENDBRANCH   4  11
BRANCH   7  22
HETATM   22  N   UNL     1      -8.293   8.809  69.628  1.00  0.00    -0.123 N  
HETATM   23  H   UNL     1      -7.848   8.370  68.822  1.00  0.00     0.000 HD 
HETATM   24  C   UNL     1      -8.477   8.071  70.778  1.00  0.00    -0.124 C  
HETATM   25  O   UNL     1      -9.094   8.505  71.749  1.00  0.00    -0.191 OA 
BRANCH  24  26
HETATM   26  C   UNL     1      -7.857   6.655  70.735  1.00  0.00    -0.105 C  
HETATM   27  N   UNL     1      -6.376   6.745  70.860  1.00  0.00    -0.040 NA 
HETATM   28  H2  UNL     1      -6.094   7.262  71.694  1.00  0.00     0.000 HD 
HETATM   29  H1  UNL     1      -5.967   5.811  70.832  1.00  0.00     0.000 HD 
BRANCH  26  30
HETATM   30  C   UNL     1      -8.286   5.892  69.494  1.00  0.00    -0.114 A  
HETATM   31  C   UNL     1      -7.320   5.513  68.547  1.00  0.00    -0.076 A  
HETATM   32  C   UNL     1      -7.685   4.821  67.391  1.00  0.00    -0.090 A  
HETATM   33  C   UNL     1      -9.020   4.492  67.166  1.00  0.00    -0.122 A  
HETATM   34  C   UNL     1      -9.988   4.841  68.104  1.00  0.00    -0.152 A  
HETATM   35  C   UNL     1      -9.624   5.529  69.264  1.00  0.00    -0.184 A  
ENDBRANCH  26  30
ENDBRANCH  24  26
ENDBRANCH   7  22
TORSDOF 10
ENDMDL
MODEL      138
REMARK 921   NORMALIZED FREE ENERGY PREDICTED BY IDOCK:   -4.58 KCAL/MOL
REMARK 922        TOTAL FREE ENERGY PREDICTED BY IDOCK:   -8.52 KCAL/MOL
REMARK 923 INTER-LIGAND FREE ENERGY PREDICTED BY IDOCK:   -7.09 KCAL/MOL
REMARK 924 INTRA-LIGAND FREE ENERGY PREDICTED BY IDOCK:   -1.43 KCAL/MOL
REMARK 927      BINDING AFFINITY PREDICTED BY RF-SCORE:    0.00 PKD
ROOT
HETATM    1  C   UNL     1      -8.279   8.200  69.418  1.00  0.00    -0.121 C  
HETATM    2  S   UNL     1      -8.847   9.008  70.983  1.00  0.00    -0.210 SA 
HETATM    3  C   UNL     1     -10.329   7.916  71.174  1.00  0.00    -0.200 C  
HETATM    4  C   UNL     1     -10.039   6.668  70.317  1.00  0.00    -0.179 C  
HETATM    5  C   UNL     1     -10.584   7.630  72.655  1.00  0.00    -0.354 C  
HETATM    6  C   UNL     1     -11.543   8.708  70.642  1.00  0.00    -0.225 C  
HETATM    7  C   UNL     1      -8.737   8.832  68.073  1.00  0.00    -0.141 C  
HETATM    8  N   UNL     1      -9.242   7.112  69.173  1.00  0.00    -0.140 N  
HETATM    9  O   UNL     1     -10.903   7.552  67.580  1.00  0.00    -0.208 OA 
HETATM   10  C   UNL     1      -9.825   7.731  68.101  1.00  0.00    -0.167 C  
ENDROOT
BRANCH   4  11
HETATM   11  C   UNL     1      -9.264   5.523  71.003  1.00  0.00    -0.148 C  
HETATM   12  O   UNL     1      -8.094   5.558  71.364  1.00  0.00    -0.112 OA 
BRANCH  11  13
HETATM   13  O   UNL     1     -10.038   4.401  71.072  1.00  0.00    -0.189 OA 
BRANCH  13  14
HETATM   14  C   UNL     1      -9.316   3.193  70.785  1.00  0.00    -0.153 C  
HETATM   15  C   UNL     1      -9.608   2.131  71.834  1.00  0.00    -0.196 C  
BRANCH  14  16
HETATM   16  O   UNL     1      -9.770   2.662  69.533  1.00  0.00    -0.047 OA 
BRANCH  16  17
HETATM   17  C   UNL     1      -8.907   2.898  68.516  1.00  0.00    -0.118 C  
HETATM   18  O   UNL     1      -7.853   2.307  68.330  1.00  0.00    -0.053 OA 
BRANCH  17  19
HETATM   19  O   UNL     1      -9.349   3.974  67.823  1.00  0.00    -0.150 OA 
BRANCH  19  20
HETATM   20  C   UNL     1      -9.190   3.881  66.399  1.00  0.00    -0.166 C  
HETATM   21  C   UNL     1     -10.366   4.567  65.727  1.00  0.00    -0.287 C  
ENDBRANCH  19  20
ENDBRANCH  17  19
ENDBRANCH  16  17
ENDBRANCH  14  16
ENDBRANCH  13  14
ENDBRANCH  11  13
ENDBRANCH   4  11
BRANCH   7  22
HETATM   22  N   UNL     1      -9.217  10.233  68.106  1.00  0.00    -0.135 N  
HETATM   23  H   UNL     1      -9.844  10.524  68.857  1.00  0.00     0.000 HD 
HETATM   24  C   UNL     1      -8.842  11.154  67.152  1.00  0.00    -0.143 C  
HETATM   25  O   UNL     1      -8.171  10.848  66.167  1.00  0.00    -0.163 OA 
BRANCH  24  26
HETATM   26  C   UNL     1      -9.345  12.592  67.418  1.00  0.00    -0.187 C  
HETATM   27  N   UNL     1      -9.886  12.692  68.801  1.00  0.00    -0.421 NA 
HETATM   28  H2  UNL     1      -9.208  12.388  69.500  1.00  0.00     0.000 HD 
HETATM   29  H1  UNL     1     -10.219  13.641  68.977  1.00  0.00     0.000 HD 
BRANCH  26  30
HETATM   30  C   UNL     1     -10.350  13.037  66.371  1.00  0.00    -0.287 A  
HETATM   31  C   UNL     1     -10.147  14.249  65.689  1.00  0.00    -0.364 A  
HETATM   32  C   UNL     1     -11.059  14.691  64.729  1.00  0.00    -0.394 A  
HETATM   33  C   UNL     1     -12.185  13.926  64.430  1.00  0.00    -0.449 A  
HETATM   34  C   UNL     1     -12.390  12.712  65.080  1.00  0.00    -0.547 A  
HETATM   35  C   UNL     1     -11.475  12.266  66.037  1.00  0.00    -0.434 A  
ENDBRANCH  26  30
ENDBRANCH  24  26
ENDBRANCH   7  22
TORSDOF 10
ENDMDL
MODEL      139
REMARK 921   NORMALIZED FREE ENERGY PREDICTED BY IDOCK:   -4.54 KCAL/MOL
REMARK 922        TOTAL FREE ENERGY PREDICTED BY IDOCK:   -8.45 KCAL/MOL
REMARK 923 INTER-LIGAND FREE ENERGY PREDICTED BY IDOCK:   -7.34 KCAL/MOL
REMARK 924 INTRA-LIGAND FREE ENERGY PREDICTED BY IDOCK:   -1.11 KCAL/MOL
REMARK 927      BINDING AFFINITY PREDICTED BY RF-SCORE:    0.00 PKD
ROOT
HETATM    1  C   UNL     1      -9.313  11.082  69.111  1.00  0.00    -0.021 C  
HETATM    2  S   UNL     1      -8.823  10.543  67.410  1.00  0.00    -0.131 SA 
HETATM    3  C   UNL     1     -10.096  11.583  66.561  1.00  0.00    -0.213 C  
HETATM    4  C   UNL     1     -10.493  12.669  67.581  1.00  0.00    -0.219 C  
HETATM    5  C   UNL     1      -9.544  12.118  65.239  1.00  0.00    -0.078 C  
HETATM    6  C   UNL     1     -11.283  10.655  66.222  1.00  0.00     0.241 C  
HETATM    7  C   UNL     1     -10.335  10.200  69.880  1.00  0.00    -0.261 C  
HETATM    8  N   UNL     1     -10.393  12.064  68.909  1.00  0.00    -0.148 N  
HETATM    9  O   UNL     1     -12.573  11.271  69.234  1.00  0.00    -0.289 OA 
HETATM   10  C   UNL     1     -11.373  11.237  69.386  1.00  0.00    -0.292 C  
ENDROOT
BRANCH   4  11
HETATM   11  C   UNL     1      -9.636  13.952  67.592  1.00  0.00    -0.215 C  
HETATM   12  O   UNL     1      -8.415  14.004  67.682  1.00  0.00    -0.165 OA 
BRANCH  11  13
HETATM   13  O   UNL     1     -10.436  15.058  67.586  1.00  0.00    -0.242 OA 
BRANCH  13  14
HETATM   14  C   UNL     1     -10.560  15.677  68.877  1.00  0.00    -0.228 C  
HETATM   15  C   UNL     1     -10.292  17.171  68.783  1.00  0.00    -0.353 C  
BRANCH  14  16
HETATM   16  O   UNL     1     -11.912  15.535  69.335  1.00  0.00    -0.345 OA 
BRANCH  16  17
HETATM   17  C   UNL     1     -12.008  15.473  70.685  1.00  0.00    -0.378 C  
HETATM   18  O   UNL     1     -11.076  15.280  71.453  1.00  0.00    -0.348 OA 
BRANCH  17  19
HETATM   19  O   UNL     1     -13.318  15.536  71.022  1.00  0.00    -0.505 OA 
BRANCH  19  20
HETATM   20  C   UNL     1     -13.657  14.869  72.247  1.00  0.00    -0.434 C  
HETATM   21  C   UNL     1     -13.645  13.369  72.010  1.00  0.00    -0.577 C  
ENDBRANCH  19  20
ENDBRANCH  17  19
ENDBRANCH  16  17
ENDBRANCH  14  16
ENDBRANCH  13  14
ENDBRANCH  11  13
ENDBRANCH   4  11
BRANCH   7  22
HETATM   22  N   UNL     1     -10.523   8.807  69.411  1.00  0.00    -0.221 N  
HETATM   23  H   UNL     1     -10.383   8.594  68.423  1.00  0.00     0.000 HD 
HETATM   24  C   UNL     1     -10.882   7.791  70.272  1.00  0.00    -0.249 C  
HETATM   25  O   UNL     1     -11.164   7.994  71.451  1.00  0.00    -0.243 OA 
BRANCH  24  26
HETATM   26  C   UNL     1     -10.914   6.387  69.625  1.00  0.00    -0.358 C  
HETATM   27  N   UNL     1     -10.578   5.352  70.642  1.00  0.00    -0.256 NA 
HETATM   28  H2  UNL     1     -11.183   5.410  71.461  1.00  0.00     0.000 HD 
HETATM   29  H1  UNL     1     -10.599   4.425  70.216  1.00  0.00     0.000 HD 
BRANCH  26  30
HETATM   30  C   UNL     1     -10.014   6.311  68.405  1.00  0.00    -0.156 A  
HETATM   31  C   UNL     1     -10.583   6.371  67.121  1.00  0.00    -0.389 A  
HETATM   32  C   UNL     1      -9.783   6.292  65.980  1.00  0.00     0.067 A  
HETATM   33  C   UNL     1      -8.402   6.158  66.103  1.00  0.00    -0.128 A  
HETATM   34  C   UNL     1      -7.819   6.118  67.367  1.00  0.00    -0.098 A  
HETATM   35  C   UNL     1      -8.617   6.202  68.510  1.00  0.00    -0.113 A  
ENDBRANCH  26  30
ENDBRANCH  24  26
ENDBRANCH   7  22
TORSDOF 10
ENDMDL
MODEL      140
REMARK 921   NORMALIZED FREE ENERGY PREDICTED BY IDOCK:   -4.52 KCAL/MOL
REMARK 922        TOTAL FREE ENERGY PREDICTED BY IDOCK:   -8.43 KCAL/MOL
REMARK 923 INTER-LIGAND FREE ENERGY PREDICTED BY IDOCK:   -7.18 KCAL/MOL
REMARK 924 INTRA-LIGAND FREE ENERGY PREDICTED BY IDOCK:   -1.25 KCAL/MOL
REMARK 927      BINDING AFFINITY PREDICTED BY RF-SCORE:    0.00 PKD
ROOT
HETATM    1  C   UNL     1      -9.685  11.062  66.582  1.00  0.00    -0.195 C  
HETATM    2  S   UNL     1     -11.444  11.372  67.067  1.00  0.00    -0.040 SA 
HETATM    3  C   UNL     1     -11.141  13.126  67.577  1.00  0.00    -0.271 C  
HETATM    4  C   UNL     1      -9.829  13.541  66.880  1.00  0.00    -0.257 C  
HETATM    5  C   UNL     1     -12.352  13.991  67.229  1.00  0.00    -0.195 C  
HETATM    6  C   UNL     1     -10.998  13.129  69.115  1.00  0.00    -0.194 C  
HETATM    7  C   UNL     1      -8.743  10.436  67.649  1.00  0.00    -0.118 C  
HETATM    8  N   UNL     1      -8.992  12.344  66.801  1.00  0.00    -0.211 N  
HETATM    9  O   UNL     1      -7.740  12.510  68.773  1.00  0.00    -0.092 OA 
HETATM   10  C   UNL     1      -8.290  11.897  67.887  1.00  0.00    -0.152 C  
ENDROOT
BRANCH   4  11
HETATM   11  C   UNL     1      -9.957  14.111  65.452  1.00  0.00    -0.291 C  
HETATM   12  O   UNL     1     -10.077  13.458  64.422  1.00  0.00    -0.341 OA 
BRANCH  11  13
HETATM   13  O   UNL     1      -9.820  15.469  65.469  1.00  0.00    -0.337 OA 
BRANCH  13  14
HETATM   14  C   UNL     1      -9.145  15.957  66.640  1.00  0.00    -0.260 C  
HETATM   15  C   UNL     1      -8.012  16.896  66.254  1.00  0.00    -0.350 C  
BRANCH  14  16
HETATM   16  O   UNL     1     -10.066  16.731  67.421  1.00  0.00    -0.263 OA 
BRANCH  16  17
HETATM   17  C   UNL     1      -9.966  16.487  68.750  1.00  0.00    -0.255 C  
HETATM   18  O   UNL     1      -8.981  16.034  69.315  1.00  0.00    -0.244 OA 
BRANCH  17  19
HETATM   19  O   UNL     1     -11.177  16.709  69.315  1.00  0.00    -0.260 OA 
BRANCH  19  20
HETATM   20  C   UNL     1     -11.306  16.239  70.665  1.00  0.00    -0.297 C  
HETATM   21  C   UNL     1     -12.681  15.619  70.841  1.00  0.00    -0.500 C  
ENDBRANCH  19  20
ENDBRANCH  17  19
ENDBRANCH  16  17
ENDBRANCH  14  16
ENDBRANCH  13  14
ENDBRANCH  11  13
ENDBRANCH   4  11
BRANCH   7  22
HETATM   22  N   UNL     1      -9.375   9.748  68.799  1.00  0.00    -0.146 N  
HETATM   23  H   UNL     1     -10.393   9.679  68.836  1.00  0.00     0.000 HD 
HETATM   24  C   UNL     1      -8.629   9.199  69.819  1.00  0.00    -0.142 C  
HETATM   25  O   UNL     1      -7.408   9.333  69.889  1.00  0.00    -0.059 OA 
BRANCH  24  26
HETATM   26  C   UNL     1      -9.455   8.419  70.869  1.00  0.00    -0.169 C  
HETATM   27  N   UNL     1      -8.966   8.737  72.238  1.00  0.00    -0.392 NA 
HETATM   28  H2  UNL     1      -8.964   9.740  72.421  1.00  0.00     0.000 HD 
HETATM   29  H1  UNL     1      -9.510   8.222  72.931  1.00  0.00     0.000 HD 
BRANCH  26  30
HETATM   30  C   UNL     1      -9.456   6.928  70.586  1.00  0.00    -0.165 A  
HETATM   31  C   UNL     1     -10.332   6.408  69.618  1.00  0.00    -0.249 A  
HETATM   32  C   UNL     1     -10.365   5.040  69.344  1.00  0.00    -0.215 A  
HETATM   33  C   UNL     1      -9.518   4.170  70.029  1.00  0.00    -0.260 A  
HETATM   34  C   UNL     1      -8.629   4.671  70.976  1.00  0.00    -0.128 A  
HETATM   35  C   UNL     1      -8.591   6.040  71.247  1.00  0.00    -0.129 A  
ENDBRANCH  26  30
ENDBRANCH  24  26
ENDBRANCH   7  22
TORSDOF 10
ENDMDL
MODEL      141
REMARK 921   NORMALIZED FREE ENERGY PREDICTED BY IDOCK:   -4.52 KCAL/MOL
REMARK 922        TOTAL FREE ENERGY PREDICTED BY IDOCK:   -8.42 KCAL/MOL
REMARK 923 INTER-LIGAND FREE ENERGY PREDICTED BY IDOCK:   -7.28 KCAL/MOL
REMARK 924 INTRA-LIGAND FREE ENERGY PREDICTED BY IDOCK:   -1.14 KCAL/MOL
REMARK 927      BINDING AFFINITY PREDICTED BY RF-SCORE:    0.00 PKD
ROOT
HETATM    1  C   UNL     1      -8.931   9.830  66.593  1.00  0.00    -0.142 C  
HETATM    2  S   UNL     1     -10.734   9.719  66.995  1.00  0.00    -0.103 SA 
HETATM    3  C   UNL     1     -10.600  10.753  68.524  1.00  0.00    -0.195 C  
HETATM    4  C   UNL     1      -9.286  11.548  68.375  1.00  0.00    -0.194 C  
HETATM    5  C   UNL     1     -11.853  11.614  68.689  1.00  0.00    -0.370 C  
HETATM    6  C   UNL     1     -10.548   9.781  69.722  1.00  0.00    -0.285 C  
HETATM    7  C   UNL     1      -8.007   8.690  67.107  1.00  0.00    -0.100 C  
HETATM    8  N   UNL     1      -8.354  10.696  67.637  1.00  0.00    -0.114 N  
HETATM    9  O   UNL     1      -7.236   9.597  69.378  1.00  0.00    -0.063 OA 
HETATM   10  C   UNL     1      -7.684   9.676  68.256  1.00  0.00    -0.082 C  
ENDROOT
BRANCH   4  11
HETATM   11  C   UNL     1      -9.375  12.893  67.624  1.00  0.00    -0.195 C  
HETATM   12  O   UNL     1      -9.497  13.039  66.414  1.00  0.00    -0.256 OA 
BRANCH  11  13
HETATM   13  O   UNL     1      -9.199  13.933  68.492  1.00  0.00    -0.198 OA 
BRANCH  13  14
HETATM   14  C   UNL     1      -9.875  15.133  68.086  1.00  0.00    -0.218 C  
HETATM   15  C   UNL     1     -10.978  15.488  69.071  1.00  0.00    -0.256 C  
BRANCH  14  16
HETATM   16  O   UNL     1      -8.945  16.225  68.108  1.00  0.00    -0.183 OA 
BRANCH  16  17
HETATM   17  C   UNL     1      -9.142  17.107  67.100  1.00  0.00    -0.228 C  
HETATM   18  O   UNL     1      -9.321  16.814  65.926  1.00  0.00    -0.476 OA 
BRANCH  17  19
HETATM   19  O   UNL     1      -8.982  18.359  67.592  1.00  0.00    -0.269 OA 
BRANCH  19  20
HETATM   20  C   UNL     1      -7.825  19.055  67.103  1.00  0.00    -0.246 C  
HETATM   21  C   UNL     1      -8.275  20.129  66.128  1.00  0.00    -0.233 C  
ENDBRANCH  19  20
ENDBRANCH  17  19
ENDBRANCH  16  17
ENDBRANCH  14  16
ENDBRANCH  13  14
ENDBRANCH  11  13
ENDBRANCH   4  11
BRANCH   7  22
HETATM   22  N   UNL     1      -8.649   7.414  67.496  1.00  0.00    -0.122 N  
HETATM   23  H   UNL     1      -8.973   7.295  68.456  1.00  0.00     0.000 HD 
HETATM   24  C   UNL     1      -8.822   6.382  66.598  1.00  0.00    -0.130 C  
HETATM   25  O   UNL     1      -8.368   6.419  65.456  1.00  0.00    -0.140 OA 
BRANCH  24  26
HETATM   26  C   UNL     1      -9.618   5.178  67.153  1.00  0.00    -0.146 C  
HETATM   27  N   UNL     1     -10.802   4.910  66.290  1.00  0.00    -0.524 NA 
HETATM   28  H2  UNL     1     -10.540   4.779  65.312  1.00  0.00     0.000 HD 
HETATM   29  H1  UNL     1     -11.327   4.116  66.655  1.00  0.00     0.000 HD 
BRANCH  26  30
HETATM   30  C   UNL     1      -9.999   5.380  68.608  1.00  0.00    -0.232 A  
HETATM   31  C   UNL     1      -9.220   4.787  69.616  1.00  0.00    -0.180 A  
HETATM   32  C   UNL     1      -9.551   4.945  70.963  1.00  0.00    -0.238 A  
HETATM   33  C   UNL     1     -10.663   5.703  71.325  1.00  0.00    -0.312 A  
HETATM   34  C   UNL     1     -11.434   6.316  70.340  1.00  0.00    -0.414 A  
HETATM   35  C   UNL     1     -11.100   6.163  68.992  1.00  0.00    -0.437 A  
ENDBRANCH  26  30
ENDBRANCH  24  26
ENDBRANCH   7  22
TORSDOF 10
ENDMDL
MODEL      142
REMARK 921   NORMALIZED FREE ENERGY PREDICTED BY IDOCK:   -4.52 KCAL/MOL
REMARK 922        TOTAL FREE ENERGY PREDICTED BY IDOCK:   -8.42 KCAL/MOL
REMARK 923 INTER-LIGAND FREE ENERGY PREDICTED BY IDOCK:   -7.29 KCAL/MOL
REMARK 924 INTRA-LIGAND FREE ENERGY PREDICTED BY IDOCK:   -1.14 KCAL/MOL
REMARK 927      BINDING AFFINITY PREDICTED BY RF-SCORE:    0.00 PKD
ROOT
HETATM    1  C   UNL     1     -10.659   8.992  68.453  1.00  0.00    -0.154 C  
HETATM    2  S   UNL     1      -9.485  10.105  69.352  1.00  0.00    -0.213 SA 
HETATM    3  C   UNL     1      -9.066  11.107  67.854  1.00  0.00    -0.150 C  
HETATM    4  C   UNL     1     -10.219  10.867  66.858  1.00  0.00    -0.228 C  
HETATM    5  C   UNL     1      -8.851  12.570  68.243  1.00  0.00    -0.171 C  
HETATM    6  C   UNL     1      -7.723  10.570  67.315  1.00  0.00    -0.106 C  
HETATM    7  C   UNL     1     -10.099   7.654  67.894  1.00  0.00    -0.185 C  
HETATM    8  N   UNL     1     -10.686   9.497  67.069  1.00  0.00    -0.199 N  
HETATM    9  O   UNL     1      -9.392   8.311  65.519  1.00  0.00    -0.037 OA 
HETATM   10  C   UNL     1     -10.002   8.428  66.557  1.00  0.00    -0.265 C  
ENDROOT
BRANCH   4  11
HETATM   11  C   UNL     1     -11.444  11.798  66.982  1.00  0.00    -0.298 C  
HETATM   12  O   UNL     1     -11.877  12.286  68.019  1.00  0.00    -0.349 OA 
BRANCH  11  13
HETATM   13  O   UNL     1     -12.060  11.935  65.772  1.00  0.00    -0.451 OA 
BRANCH  13  14
HETATM   14  C   UNL     1     -11.390  12.854  64.894  1.00  0.00    -0.307 C  
HETATM   15  C   UNL     1     -10.958  12.155  63.614  1.00  0.00    -0.527 C  
BRANCH  14  16
HETATM   16  O   UNL     1     -12.310  13.883  64.504  1.00  0.00    -0.521 OA 
BRANCH  16  17
HETATM   17  C   UNL     1     -11.740  15.111  64.459  1.00  0.00    -0.328 C  
HETATM   18  O   UNL     1     -12.082  16.024  63.721  1.00  0.00    -0.882 OA 
BRANCH  17  19
HETATM   19  O   UNL     1     -10.658  15.108  65.273  1.00  0.00    -0.348 OA 
BRANCH  19  20
HETATM   20  C   UNL     1     -10.490  16.300  66.056  1.00  0.00    -0.331 C  
HETATM   21  C   UNL     1     -10.844  15.992  67.501  1.00  0.00    -0.292 C  
ENDBRANCH  19  20
ENDBRANCH  17  19
ENDBRANCH  16  17
ENDBRANCH  14  16
ENDBRANCH  13  14
ENDBRANCH  11  13
ENDBRANCH   4  11
BRANCH   7  22
HETATM   22  N   UNL     1      -8.823   7.159  68.461  1.00  0.00    -0.126 N  
HETATM   23  H   UNL     1      -8.309   7.750  69.115  1.00  0.00     0.000 HD 
HETATM   24  C   UNL     1      -8.310   5.923  68.129  1.00  0.00    -0.115 C  
HETATM   25  O   UNL     1      -8.824   5.203  67.275  1.00  0.00    -0.107 OA 
BRANCH  24  26
HETATM   26  C   UNL     1      -7.034   5.529  68.910  1.00  0.00    -0.060 C  
HETATM   27  N   UNL     1      -6.630   4.141  68.555  1.00  0.00    -0.044 NA 
HETATM   28  H2  UNL     1      -6.515   4.021  67.549  1.00  0.00     0.000 HD 
HETATM   29  H1  UNL     1      -5.789   3.881  69.070  1.00  0.00     0.000 HD 
BRANCH  26  30
HETATM   30  C   UNL     1      -7.213   5.715  70.406  1.00  0.00    -0.071 A  
HETATM   31  C   UNL     1      -6.526   6.751  71.061  1.00  0.00    -0.049 A  
HETATM   32  C   UNL     1      -6.661   6.939  72.438  1.00  0.00    -0.058 A  
HETATM   33  C   UNL     1      -7.489   6.100  73.181  1.00  0.00    -0.096 A  
HETATM   34  C   UNL     1      -8.193   5.081  72.544  1.00  0.00    -0.116 A  
HETATM   35  C   UNL     1      -8.064   4.895  71.166  1.00  0.00    -0.101 A  
ENDBRANCH  26  30
ENDBRANCH  24  26
ENDBRANCH   7  22
TORSDOF 10
ENDMDL
MODEL      143
REMARK 921   NORMALIZED FREE ENERGY PREDICTED BY IDOCK:   -4.52 KCAL/MOL
REMARK 922        TOTAL FREE ENERGY PREDICTED BY IDOCK:   -8.42 KCAL/MOL
REMARK 923 INTER-LIGAND FREE ENERGY PREDICTED BY IDOCK:   -7.46 KCAL/MOL
REMARK 924 INTRA-LIGAND FREE ENERGY PREDICTED BY IDOCK:   -0.96 KCAL/MOL
REMARK 927      BINDING AFFINITY PREDICTED BY RF-SCORE:    0.00 PKD
ROOT
HETATM    1  C   UNL     1      -9.095   8.812  71.370  1.00  0.00    -0.243 C  
HETATM    2  S   UNL     1      -8.792   7.614  69.992  1.00  0.00    -0.143 SA 
HETATM    3  C   UNL     1     -10.483   7.807  69.265  1.00  0.00    -0.217 C  
HETATM    4  C   UNL     1     -11.018   9.147  69.808  1.00  0.00    -0.181 C  
HETATM    5  C   UNL     1     -10.413   7.716  67.740  1.00  0.00    -0.282 C  
HETATM    6  C   UNL     1     -11.324   6.611  69.760  1.00  0.00    -0.412 C  
HETATM    7  C   UNL     1      -9.585   8.238  72.729  1.00  0.00    -0.268 C  
HETATM    8  N   UNL     1     -10.462   9.316  71.150  1.00  0.00    -0.309 N  
HETATM    9  O   UNL     1     -12.134   8.359  72.481  1.00  0.00    -0.393 OA 
HETATM   10  C   UNL     1     -10.989   8.653  72.224  1.00  0.00    -0.322 C  
ENDROOT
BRANCH   4  11
HETATM   11  C   UNL     1     -10.663  10.411  68.997  1.00  0.00    -0.228 C  
HETATM   12  O   UNL     1      -9.556  10.928  68.913  1.00  0.00    -0.192 OA 
BRANCH  11  13
HETATM   13  O   UNL     1     -11.789  10.955  68.449  1.00  0.00    -0.498 OA 
BRANCH  13  14
HETATM   14  C   UNL     1     -12.119  12.245  68.988  1.00  0.00    -0.145 C  
HETATM   15  C   UNL     1     -12.146  12.201  70.508  1.00  0.00    -0.383 C  
BRANCH  14  16
HETATM   16  O   UNL     1     -11.092  13.179  68.627  1.00  0.00    -0.245 OA 
BRANCH  16  17
HETATM   17  C   UNL     1     -11.541  14.174  67.826  1.00  0.00    -0.347 C  
HETATM   18  O   UNL     1     -11.468  14.188  66.605  1.00  0.00    -0.337 OA 
BRANCH  17  19
HETATM   19  O   UNL     1     -11.964  15.194  68.609  1.00  0.00    -0.315 OA 
BRANCH  19  20
HETATM   20  C   UNL     1     -10.956  15.753  69.465  1.00  0.00    -0.295 C  
HETATM   21  C   UNL     1     -11.547  15.962  70.849  1.00  0.00    -0.456 C  
ENDBRANCH  19  20
ENDBRANCH  17  19
ENDBRANCH  16  17
ENDBRANCH  14  16
ENDBRANCH  13  14
ENDBRANCH  11  13
ENDBRANCH   4  11
BRANCH   7  22
HETATM   22  N   UNL     1      -9.376   6.792  72.975  1.00  0.00    -0.134 N  
HETATM   23  H   UNL     1     -10.090   6.130  72.670  1.00  0.00     0.000 HD 
HETATM   24  C   UNL     1      -8.244   6.317  73.602  1.00  0.00    -0.113 C  
HETATM   25  O   UNL     1      -7.393   7.063  74.082  1.00  0.00    -0.097 OA 
BRANCH  24  26
HETATM   26  C   UNL     1      -8.147   4.774  73.663  1.00  0.00    -0.106 C  
HETATM   27  N   UNL     1      -6.855   4.371  74.283  1.00  0.00    -0.067 NA 
HETATM   28  H2  UNL     1      -6.720   4.800  75.199  1.00  0.00     0.000 HD 
HETATM   29  H1  UNL     1      -6.790   3.354  74.323  1.00  0.00     0.000 HD 
BRANCH  26  30
HETATM   30  C   UNL     1      -8.353   4.146  72.297  1.00  0.00    -0.102 A  
HETATM   31  C   UNL     1      -7.433   4.410  71.268  1.00  0.00    -0.060 A  
HETATM   32  C   UNL     1      -7.601   3.856  69.998  1.00  0.00    -0.048 A  
HETATM   33  C   UNL     1      -8.688   3.024  69.737  1.00  0.00    -0.130 A  
HETATM   34  C   UNL     1      -9.598   2.734  70.751  1.00  0.00    -0.187 A  
HETATM   35  C   UNL     1      -9.428   3.283  72.024  1.00  0.00    -0.202 A  
ENDBRANCH  26  30
ENDBRANCH  24  26
ENDBRANCH   7  22
TORSDOF 10
ENDMDL
MODEL      144
REMARK 921   NORMALIZED FREE ENERGY PREDICTED BY IDOCK:   -4.51 KCAL/MOL
REMARK 922        TOTAL FREE ENERGY PREDICTED BY IDOCK:   -8.41 KCAL/MOL
REMARK 923 INTER-LIGAND FREE ENERGY PREDICTED BY IDOCK:   -7.50 KCAL/MOL
REMARK 924 INTRA-LIGAND FREE ENERGY PREDICTED BY IDOCK:   -0.91 KCAL/MOL
REMARK 927      BINDING AFFINITY PREDICTED BY RF-SCORE:    0.00 PKD
ROOT
HETATM    1  C   UNL     1     -10.186  10.061  69.022  1.00  0.00    -0.203 C  
HETATM    2  S   UNL     1      -8.344  10.148  69.190  1.00  0.00    -0.166 SA 
HETATM    3  C   UNL     1      -8.020   9.594  67.454  1.00  0.00    -0.106 C  
HETATM    4  C   UNL     1      -9.329   9.858  66.682  1.00  0.00    -0.157 C  
HETATM    5  C   UNL     1      -6.791  10.312  66.894  1.00  0.00    -0.086 C  
HETATM    6  C   UNL     1      -7.686   8.088  67.517  1.00  0.00    -0.106 C  
HETATM    7  C   UNL     1     -10.888   8.747  69.465  1.00  0.00    -0.142 C  
HETATM    8  N   UNL     1     -10.428   9.658  67.626  1.00  0.00    -0.245 N  
HETATM    9  O   UNL     1     -10.939   7.397  67.286  1.00  0.00    -0.280 OA 
HETATM   10  C   UNL     1     -10.859   8.402  67.956  1.00  0.00     0.054 C  
ENDROOT
BRANCH   4  11
HETATM   11  C   UNL     1      -9.497  11.264  66.068  1.00  0.00    -0.216 C  
HETATM   12  O   UNL     1      -8.940  12.288  66.445  1.00  0.00    -0.195 OA 
BRANCH  11  13
HETATM   13  O   UNL     1     -10.444  11.242  65.086  1.00  0.00    -0.275 OA 
BRANCH  13  14
HETATM   14  C   UNL     1      -9.984  11.791  63.840  1.00  0.00    -0.331 C  
HETATM   15  C   UNL     1      -9.347  10.710  62.981  1.00  0.00    -0.342 C  
BRANCH  14  16
HETATM   16  O   UNL     1     -11.110  12.284  63.102  1.00  0.00    -0.372 OA 
BRANCH  16  17
HETATM   17  C   UNL     1     -12.169  12.582  63.892  1.00  0.00    -0.503 C  
HETATM   18  O   UNL     1     -13.274  12.062  63.823  1.00  0.00    -0.723 OA 
BRANCH  17  19
HETATM   19  O   UNL     1     -11.832  13.632  64.678  1.00  0.00    -0.364 OA 
BRANCH  19  20
HETATM   20  C   UNL     1     -12.787  13.949  65.702  1.00  0.00    -0.424 C  
HETATM   21  C   UNL     1     -12.040  14.323  66.971  1.00  0.00    -0.424 C  
ENDBRANCH  19  20
ENDBRANCH  17  19
ENDBRANCH  16  17
ENDBRANCH  14  16
ENDBRANCH  13  14
ENDBRANCH  11  13
ENDBRANCH   4  11
BRANCH   7  22
HETATM   22  N   UNL     1     -10.136   7.840  70.363  1.00  0.00    -0.193 N  
HETATM   23  H   UNL     1      -9.490   7.164  69.955  1.00  0.00     0.000 HD 
HETATM   24  C   UNL     1     -10.284   7.883  71.733  1.00  0.00    -0.196 C  
HETATM   25  O   UNL     1     -11.116   8.602  72.284  1.00  0.00    -0.354 OA 
BRANCH  24  26
HETATM   26  C   UNL     1      -9.331   6.945  72.509  1.00  0.00    -0.139 C  
HETATM   27  N   UNL     1     -10.018   6.409  73.716  1.00  0.00    -0.209 NA 
HETATM   28  H2  UNL     1     -10.899   5.951  73.483  1.00  0.00     0.000 HD 
HETATM   29  H1  UNL     1      -9.389   5.790  74.229  1.00  0.00     0.000 HD 
BRANCH  26  30
HETATM   30  C   UNL     1      -8.021   7.633  72.848  1.00  0.00    -0.140 A  
HETATM   31  C   UNL     1      -7.780   8.050  74.168  1.00  0.00    -0.255 A  
HETATM   32  C   UNL     1      -6.590   8.696  74.508  1.00  0.00    -0.171 A  
HETATM   33  C   UNL     1      -5.619   8.929  73.536  1.00  0.00    -0.104 A  
HETATM   34  C   UNL     1      -5.832   8.504  72.227  1.00  0.00    -0.061 A  
HETATM   35  C   UNL     1      -7.020   7.853  71.886  1.00  0.00    -0.070 A  
ENDBRANCH  26  30
ENDBRANCH  24  26
ENDBRANCH   7  22
TORSDOF 10
ENDMDL
MODEL      145
REMARK 921   NORMALIZED FREE ENERGY PREDICTED BY IDOCK:   -4.48 KCAL/MOL
REMARK 922        TOTAL FREE ENERGY PREDICTED BY IDOCK:   -8.36 KCAL/MOL
REMARK 923 INTER-LIGAND FREE ENERGY PREDICTED BY IDOCK:   -7.61 KCAL/MOL
REMARK 924 INTRA-LIGAND FREE ENERGY PREDICTED BY IDOCK:   -0.75 KCAL/MOL
REMARK 927      BINDING AFFINITY PREDICTED BY RF-SCORE:    0.00 PKD
ROOT
HETATM    1  C   UNL     1     -10.091  10.116  69.258  1.00  0.00    -0.222 C  
HETATM    2  S   UNL     1      -8.252  10.200  69.443  1.00  0.00    -0.169 SA 
HETATM    3  C   UNL     1      -7.922  10.065  67.627  1.00  0.00    -0.105 C  
HETATM    4  C   UNL     1      -9.238  10.471  66.934  1.00  0.00    -0.155 C  
HETATM    5  C   UNL     1      -6.710  10.916  67.248  1.00  0.00    -0.082 C  
HETATM    6  C   UNL     1      -7.557   8.591  67.345  1.00  0.00    -0.097 C  
HETATM    7  C   UNL     1     -10.765   8.721  69.387  1.00  0.00    -0.169 C  
HETATM    8  N   UNL     1     -10.330  10.037  67.806  1.00  0.00    -0.200 N  
HETATM    9  O   UNL     1     -10.796   7.904  66.958  1.00  0.00    -0.305 OA 
HETATM   10  C   UNL     1     -10.734   8.730  67.840  1.00  0.00    -0.107 C  
ENDROOT
BRANCH   4  11
HETATM   11  C   UNL     1      -9.437  11.976  66.658  1.00  0.00    -0.217 C  
HETATM   12  O   UNL     1      -9.923  12.794  67.429  1.00  0.00    -0.208 OA 
BRANCH  11  13
HETATM   13  O   UNL     1      -9.083  12.273  65.374  1.00  0.00     0.124 OA 
BRANCH  13  14
HETATM   14  C   UNL     1     -10.085  11.913  64.409  1.00  0.00    -0.279 C  
HETATM   15  C   UNL     1      -9.776  10.556  63.795  1.00  0.00    -0.385 C  
BRANCH  14  16
HETATM   16  O   UNL     1     -11.348  11.778  65.075  1.00  0.00    -0.295 OA 
BRANCH  16  17
HETATM   17  C   UNL     1     -12.304  12.590  64.564  1.00  0.00    -0.467 C  
HETATM   18  O   UNL     1     -12.907  12.403  63.517  1.00  0.00    -0.749 OA 
BRANCH  17  19
HETATM   19  O   UNL     1     -12.382  13.697  65.340  1.00  0.00    -0.417 OA 
BRANCH  19  20
HETATM   20  C   UNL     1     -12.246  14.939  64.634  1.00  0.00    -0.341 C  
HETATM   21  C   UNL     1     -10.854  15.495  64.881  1.00  0.00    -0.447 C  
ENDBRANCH  19  20
ENDBRANCH  17  19
ENDBRANCH  16  17
ENDBRANCH  14  16
ENDBRANCH  13  14
ENDBRANCH  11  13
ENDBRANCH   4  11
BRANCH   7  22
HETATM   22  N   UNL     1      -9.992   7.648  70.055  1.00  0.00    -0.188 N  
HETATM   23  H   UNL     1      -8.981   7.751  70.147  1.00  0.00     0.000 HD 
HETATM   24  C   UNL     1     -10.599   6.516  70.554  1.00  0.00    -0.234 C  
HETATM   25  O   UNL     1     -11.794   6.281  70.389  1.00  0.00    -0.329 OA 
BRANCH  24  26
HETATM   26  C   UNL     1      -9.649   5.566  71.321  1.00  0.00    -0.155 C  
HETATM   27  N   UNL     1      -8.314   6.205  71.482  1.00  0.00    -0.126 NA 
HETATM   28  H2  UNL     1      -8.379   7.122  71.925  1.00  0.00     0.000 HD 
HETATM   29  H1  UNL     1      -7.686   5.579  71.987  1.00  0.00     0.000 HD 
BRANCH  26  30
HETATM   30  C   UNL     1      -9.561   4.204  70.657  1.00  0.00    -0.264 A  
HETATM   31  C   UNL     1      -9.525   3.047  71.453  1.00  0.00    -0.216 A  
HETATM   32  C   UNL     1      -9.432   1.781  70.873  1.00  0.00    -0.194 A  
HETATM   33  C   UNL     1      -9.381   1.651  69.486  1.00  0.00    -0.158 A  
HETATM   34  C   UNL     1      -9.437   2.785  68.681  1.00  0.00    -0.191 A  
HETATM   35  C   UNL     1      -9.535   4.052  69.260  1.00  0.00    -0.260 A  
ENDBRANCH  26  30
ENDBRANCH  24  26
ENDBRANCH   7  22
TORSDOF 10
ENDMDL
MODEL      146
REMARK 921   NORMALIZED FREE ENERGY PREDICTED BY IDOCK:   -4.45 KCAL/MOL
REMARK 922        TOTAL FREE ENERGY PREDICTED BY IDOCK:   -8.31 KCAL/MOL
REMARK 923 INTER-LIGAND FREE ENERGY PREDICTED BY IDOCK:   -7.51 KCAL/MOL
REMARK 924 INTRA-LIGAND FREE ENERGY PREDICTED BY IDOCK:   -0.80 KCAL/MOL
REMARK 927      BINDING AFFINITY PREDICTED BY RF-SCORE:    0.00 PKD
ROOT
HETATM    1  C   UNL     1      -9.541  10.302  69.285  1.00  0.00    -0.224 C  
HETATM    2  S   UNL     1      -8.571   9.226  70.437  1.00  0.00    -0.231 SA 
HETATM    3  C   UNL     1      -7.807   8.224  69.081  1.00  0.00    -0.106 C  
HETATM    4  C   UNL     1      -7.935   9.082  67.806  1.00  0.00    -0.101 C  
HETATM    5  C   UNL     1      -6.375   7.841  69.453  1.00  0.00    -0.035 C  
HETATM    6  C   UNL     1      -8.622   6.916  68.975  1.00  0.00    -0.128 C  
HETATM    7  C   UNL     1     -11.004   9.884  68.968  1.00  0.00    -0.190 C  
HETATM    8  N   UNL     1      -9.175   9.849  67.931  1.00  0.00    -0.131 N  
HETATM    9  O   UNL     1     -10.715   8.437  66.872  1.00  0.00    -0.279 OA 
HETATM   10  C   UNL     1     -10.392   9.274  67.684  1.00  0.00    -0.253 C  
ENDROOT
BRANCH   4  11
HETATM   11  C   UNL     1      -6.796  10.087  67.534  1.00  0.00    -0.081 C  
HETATM   12  O   UNL     1      -5.995  10.037  66.608  1.00  0.00    -0.053 OA 
BRANCH  11  13
HETATM   13  O   UNL     1      -6.730  11.012  68.535  1.00  0.00    -0.057 OA 
BRANCH  13  14
HETATM   14  C   UNL     1      -6.718  12.367  68.058  1.00  0.00    -0.081 C  
HETATM   15  C   UNL     1      -5.399  12.682  67.370  1.00  0.00    -0.058 C  
BRANCH  14  16
HETATM   16  O   UNL     1      -7.741  12.522  67.065  1.00  0.00    -0.135 OA 
BRANCH  16  17
HETATM   17  C   UNL     1      -8.672  13.445  67.407  1.00  0.00    -0.209 C  
HETATM   18  O   UNL     1      -8.807  13.939  68.517  1.00  0.00    -0.181 OA 
BRANCH  17  19
HETATM   19  O   UNL     1      -9.497  13.629  66.349  1.00  0.00    -0.273 OA 
BRANCH  19  20
HETATM   20  C   UNL     1     -10.064  12.424  65.811  1.00  0.00    -0.253 C  
HETATM   21  C   UNL     1     -11.552  12.405  66.112  1.00  0.00    -0.452 C  
ENDBRANCH  19  20
ENDBRANCH  17  19
ENDBRANCH  16  17
ENDBRANCH  14  16
ENDBRANCH  13  14
ENDBRANCH  11  13
ENDBRANCH   4  11
BRANCH   7  22
HETATM   22  N   UNL     1     -11.660   8.935  69.899  1.00  0.00    -0.438 N  
HETATM   23  H   UNL     1     -11.639   7.938  69.685  1.00  0.00     0.000 HD 
HETATM   24  C   UNL     1     -12.296   9.362  71.045  1.00  0.00    -0.258 C  
HETATM   25  O   UNL     1     -12.445  10.553  71.312  1.00  0.00    -0.354 OA 
BRANCH  24  26
HETATM   26  C   UNL     1     -12.815   8.221  71.951  1.00  0.00    -0.344 C  
HETATM   27  N   UNL     1     -13.561   8.791  73.107  1.00  0.00    -0.950 NA 
HETATM   28  H2  UNL     1     -14.311   9.415  72.809  1.00  0.00     0.000 HD 
HETATM   29  H1  UNL     1     -13.903   8.039  73.705  1.00  0.00     0.000 HD 
BRANCH  26  30
HETATM   30  C   UNL     1     -11.694   7.296  72.385  1.00  0.00    -0.278 A  
HETATM   31  C   UNL     1     -11.654   5.979  71.895  1.00  0.00    -0.312 A  
HETATM   32  C   UNL     1     -10.642   5.100  72.286  1.00  0.00    -0.278 A  
HETATM   33  C   UNL     1      -9.650   5.525  73.166  1.00  0.00    -0.158 A  
HETATM   34  C   UNL     1      -9.661   6.833  73.645  1.00  0.00    -0.224 A  
HETATM   35  C   UNL     1     -10.670   7.715  73.251  1.00  0.00    -0.409 A  
ENDBRANCH  26  30
ENDBRANCH  24  26
ENDBRANCH   7  22
TORSDOF 10
ENDMDL
MODEL      147
REMARK 921   NORMALIZED FREE ENERGY PREDICTED BY IDOCK:   -4.45 KCAL/MOL
REMARK 922        TOTAL FREE ENERGY PREDICTED BY IDOCK:   -8.31 KCAL/MOL
REMARK 923 INTER-LIGAND FREE ENERGY PREDICTED BY IDOCK:   -7.03 KCAL/MOL
REMARK 924 INTRA-LIGAND FREE ENERGY PREDICTED BY IDOCK:   -1.28 KCAL/MOL
REMARK 927      BINDING AFFINITY PREDICTED BY RF-SCORE:    0.00 PKD
ROOT
HETATM    1  C   UNL     1      -8.331  10.320  69.109  1.00  0.00    -0.154 C  
HETATM    2  S   UNL     1      -7.810   9.402  67.589  1.00  0.00    -0.095 SA 
HETATM    3  C   UNL     1      -9.528   9.259  66.916  1.00  0.00    -0.161 C  
HETATM    4  C   UNL     1     -10.346  10.355  67.629  1.00  0.00    -0.219 C  
HETATM    5  C   UNL     1      -9.507   9.367  65.391  1.00  0.00    -0.322 C  
HETATM    6  C   UNL     1     -10.035   7.845  67.272  1.00  0.00    -0.280 C  
HETATM    7  C   UNL     1      -8.608   9.489  70.394  1.00  0.00    -0.206 C  
HETATM    8  N   UNL     1      -9.787  10.498  68.974  1.00  0.00    -0.204 N  
HETATM    9  O   UNL     1     -11.120   9.012  70.201  1.00  0.00    -0.239 OA 
HETATM   10  C   UNL     1     -10.092   9.605  69.965  1.00  0.00    -0.252 C  
ENDROOT
BRANCH   4  11
HETATM   11  C   UNL     1     -10.342  11.754  66.977  1.00  0.00    -0.214 C  
HETATM   12  O   UNL     1      -9.363  12.473  66.815  1.00  0.00    -0.218 OA 
BRANCH  11  13
HETATM   13  O   UNL     1     -11.616  12.143  66.681  1.00  0.00    -0.394 OA 
BRANCH  13  14
HETATM   14  C   UNL     1     -11.754  13.564  66.519  1.00  0.00    -0.371 C  
HETATM   15  C   UNL     1     -12.832  13.885  65.495  1.00  0.00    -0.471 C  
BRANCH  14  16
HETATM   16  O   UNL     1     -12.190  14.135  67.760  1.00  0.00    -0.334 OA 
BRANCH  16  17
HETATM   17  C   UNL     1     -11.439  15.194  68.146  1.00  0.00    -0.342 C  
HETATM   18  O   UNL     1     -10.425  15.586  67.585  1.00  0.00    -0.267 OA 
BRANCH  17  19
HETATM   19  O   UNL     1     -11.929  15.658  69.320  1.00  0.00    -0.365 OA 
BRANCH  19  20
HETATM   20  C   UNL     1     -12.343  14.640  70.244  1.00  0.00    -0.349 C  
HETATM   21  C   UNL     1     -12.860  15.305  71.508  1.00  0.00    -0.469 C  
ENDBRANCH  19  20
ENDBRANCH  17  19
ENDBRANCH  16  17
ENDBRANCH  14  16
ENDBRANCH  13  14
ENDBRANCH  11  13
ENDBRANCH   4  11
BRANCH   7  22
HETATM   22  N   UNL     1      -8.047   8.120  70.455  1.00  0.00    -0.101 N  
HETATM   23  H   UNL     1      -8.525   7.366  69.962  1.00  0.00     0.000 HD 
HETATM   24  C   UNL     1      -6.897   7.835  71.160  1.00  0.00    -0.049 C  
HETATM   25  O   UNL     1      -6.326   8.673  71.857  1.00  0.00    -0.064 OA 
BRANCH  24  26
HETATM   26  C   UNL     1      -6.398   6.379  71.010  1.00  0.00    -0.048 C  
HETATM   27  N   UNL     1      -5.353   6.306  69.953  1.00  0.00    -0.013 NA 
HETATM   28  H2  UNL     1      -4.587   6.958  70.127  1.00  0.00     0.000 HD 
HETATM   29  H1  UNL     1      -5.024   5.346  69.854  1.00  0.00     0.000 HD 
BRANCH  26  30
HETATM   30  C   UNL     1      -7.545   5.418  70.756  1.00  0.00    -0.088 A  
HETATM   31  C   UNL     1      -8.376   5.034  71.822  1.00  0.00    -0.116 A  
HETATM   32  C   UNL     1      -9.431   4.142  71.622  1.00  0.00    -0.216 A  
HETATM   33  C   UNL     1      -9.677   3.625  70.352  1.00  0.00    -0.201 A  
HETATM   34  C   UNL     1      -8.877   4.011  69.280  1.00  0.00    -0.143 A  
HETATM   35  C   UNL     1      -7.824   4.907  69.477  1.00  0.00    -0.067 A  
ENDBRANCH  26  30
ENDBRANCH  24  26
ENDBRANCH   7  22
TORSDOF 10
ENDMDL
MODEL      148
REMARK 921   NORMALIZED FREE ENERGY PREDICTED BY IDOCK:   -4.45 KCAL/MOL
REMARK 922        TOTAL FREE ENERGY PREDICTED BY IDOCK:   -8.31 KCAL/MOL
REMARK 923 INTER-LIGAND FREE ENERGY PREDICTED BY IDOCK:   -7.08 KCAL/MOL
REMARK 924 INTRA-LIGAND FREE ENERGY PREDICTED BY IDOCK:   -1.23 KCAL/MOL
REMARK 927      BINDING AFFINITY PREDICTED BY RF-SCORE:    0.00 PKD
ROOT
HETATM    1  C   UNL     1     -10.182   8.733  67.741  1.00  0.00    -0.228 C  
HETATM    2  S   UNL     1      -8.380   8.874  67.346  1.00  0.00    -0.108 SA 
HETATM    3  C   UNL     1      -7.913   9.475  69.033  1.00  0.00    -0.092 C  
HETATM    4  C   UNL     1      -9.073   9.056  69.959  1.00  0.00    -0.176 C  
HETATM    5  C   UNL     1      -6.545   8.919  69.430  1.00  0.00    -0.045 C  
HETATM    6  C   UNL     1      -7.778  11.010  68.943  1.00  0.00    -0.140 C  
HETATM    7  C   UNL     1     -11.092   9.947  67.401  1.00  0.00    -0.030 C  
HETATM    8  N   UNL     1     -10.298   9.112  69.160  1.00  0.00    -0.208 N  
HETATM    9  O   UNL     1     -11.039  11.294  69.582  1.00  0.00    -0.249 OA 
HETATM   10  C   UNL     1     -10.918  10.303  68.897  1.00  0.00    -0.238 C  
ENDROOT
BRANCH   4  11
HETATM   11  C   UNL     1      -8.989   7.644  70.576  1.00  0.00    -0.151 C  
HETATM   12  O   UNL     1      -8.621   6.626  70.002  1.00  0.00    -0.137 OA 
BRANCH  11  13
HETATM   13  O   UNL     1      -9.481   7.652  71.849  1.00  0.00    -0.142 OA 
BRANCH  13  14
HETATM   14  C   UNL     1      -9.299   6.404  72.537  1.00  0.00    -0.145 C  
HETATM   15  C   UNL     1      -8.895   6.644  73.984  1.00  0.00    -0.171 C  
BRANCH  14  16
HETATM   16  O   UNL     1     -10.550   5.705  72.576  1.00  0.00    -0.203 OA 
BRANCH  16  17
HETATM   17  C   UNL     1     -10.404   4.372  72.768  1.00  0.00    -0.184 C  
HETATM   18  O   UNL     1     -10.973   3.714  73.627  1.00  0.00    -0.218 OA 
BRANCH  17  19
HETATM   19  O   UNL     1      -9.434   3.926  71.936  1.00  0.00    -0.123 OA 
BRANCH  19  20
HETATM   20  C   UNL     1      -9.816   2.822  71.102  1.00  0.00    -0.023 C  
HETATM   21  C   UNL     1      -9.298   3.065  69.696  1.00  0.00    -0.214 C  
ENDBRANCH  19  20
ENDBRANCH  17  19
ENDBRANCH  16  17
ENDBRANCH  14  16
ENDBRANCH  13  14
ENDBRANCH  11  13
ENDBRANCH   4  11
BRANCH   7  22
HETATM   22  N   UNL     1     -10.575  10.935  66.426  1.00  0.00    -0.250 N  
HETATM   23  H   UNL     1      -9.647  10.796  66.024  1.00  0.00     0.000 HD 
HETATM   24  C   UNL     1     -11.312  12.036  66.045  1.00  0.00    -0.343 C  
HETATM   25  O   UNL     1     -12.391  12.318  66.561  1.00  0.00    -0.504 OA 
BRANCH  24  26
HETATM   26  C   UNL     1     -10.660  12.887  64.930  1.00  0.00    -0.323 C  
HETATM   27  N   UNL     1      -9.509  12.152  64.337  1.00  0.00    -0.462 NA 
HETATM   28  H2  UNL     1      -9.777  11.226  64.004  1.00  0.00     0.000 HD 
HETATM   29  H1  UNL     1      -9.078  12.713  63.602  1.00  0.00     0.000 HD 
BRANCH  26  30
HETATM   30  C   UNL     1     -10.268  14.265  65.434  1.00  0.00    -0.395 A  
HETATM   31  C   UNL     1      -9.223  14.389  66.365  1.00  0.00    -0.242 A  
HETATM   32  C   UNL     1      -8.847  15.641  66.856  1.00  0.00    -0.279 A  
HETATM   33  C   UNL     1      -9.504  16.789  66.418  1.00  0.00    -0.307 A  
HETATM   34  C   UNL     1     -10.528  16.686  65.479  1.00  0.00    -0.285 A  
HETATM   35  C   UNL     1     -10.901  15.435  64.983  1.00  0.00    -0.462 A  
ENDBRANCH  26  30
ENDBRANCH  24  26
ENDBRANCH   7  22
TORSDOF 10
ENDMDL
MODEL      149
REMARK 921   NORMALIZED FREE ENERGY PREDICTED BY IDOCK:   -4.44 KCAL/MOL
REMARK 922        TOTAL FREE ENERGY PREDICTED BY IDOCK:   -8.30 KCAL/MOL
REMARK 923 INTER-LIGAND FREE ENERGY PREDICTED BY IDOCK:   -8.12 KCAL/MOL
REMARK 924 INTRA-LIGAND FREE ENERGY PREDICTED BY IDOCK:   -0.18 KCAL/MOL
REMARK 927      BINDING AFFINITY PREDICTED BY RF-SCORE:    0.00 PKD
ROOT
HETATM    1  C   UNL     1      -9.172  11.748  67.029  1.00  0.00    -0.187 C  
HETATM    2  S   UNL     1      -8.942  11.337  68.819  1.00  0.00    -0.056 SA 
HETATM    3  C   UNL     1     -10.586  10.503  68.983  1.00  0.00    -0.222 C  
HETATM    4  C   UNL     1     -11.010  10.133  67.547  1.00  0.00    -0.255 C  
HETATM    5  C   UNL     1     -10.481   9.318  69.944  1.00  0.00    -0.247 C  
HETATM    6  C   UNL     1     -11.550  11.528  69.619  1.00  0.00    -0.403 C  
HETATM    7  C   UNL     1      -9.754  13.147  66.680  1.00  0.00    -0.261 C  
HETATM    8  N   UNL     1     -10.479  11.173  66.665  1.00  0.00    -0.241 N  
HETATM    9  O   UNL     1     -12.272  12.678  66.574  1.00  0.00    -0.538 OA 
HETATM   10  C   UNL     1     -11.097  12.388  66.551  1.00  0.00    -0.301 C  
ENDROOT
BRANCH   4  11
HETATM   11  C   UNL     1     -10.516   8.774  67.009  1.00  0.00    -0.268 C  
HETATM   12  O   UNL     1     -10.704   7.680  67.527  1.00  0.00    -0.253 OA 
BRANCH  11  13
HETATM   13  O   UNL     1      -9.737   8.957  65.903  1.00  0.00    -0.255 OA 
BRANCH  13  14
HETATM   14  C   UNL     1      -8.448   8.330  66.005  1.00  0.00    -0.139 C  
HETATM   15  C   UNL     1      -8.529   6.868  65.597  1.00  0.00    -0.141 C  
BRANCH  14  16
HETATM   16  O   UNL     1      -7.547   8.960  65.084  1.00  0.00    -0.094 OA 
BRANCH  16  17
HETATM   17  C   UNL     1      -8.105   9.181  63.869  1.00  0.00    -0.155 C  
HETATM   18  O   UNL     1      -8.229   8.347  62.984  1.00  0.00    -0.175 OA 
BRANCH  17  19
HETATM   19  O   UNL     1      -8.381  10.503  63.763  1.00  0.00    -0.165 OA 
BRANCH  19  20
HETATM   20  C   UNL     1      -9.236  10.853  62.664  1.00  0.00    -0.330 C  
HETATM   21  C   UNL     1     -10.262  11.865  63.142  1.00  0.00    -0.334 C  
ENDBRANCH  19  20
ENDBRANCH  17  19
ENDBRANCH  16  17
ENDBRANCH  14  16
ENDBRANCH  13  14
ENDBRANCH  11  13
ENDBRANCH   4  11
BRANCH   7  22
HETATM   22  N   UNL     1      -9.687  14.194  67.725  1.00  0.00    -0.219 N  
HETATM   23  H   UNL     1     -10.236  14.078  68.578  1.00  0.00     0.000 HD 
HETATM   24  C   UNL     1      -8.906  15.320  67.580  1.00  0.00    -0.179 C  
HETATM   25  O   UNL     1      -8.299  15.572  66.540  1.00  0.00    -0.269 OA 
BRANCH  24  26
HETATM   26  C   UNL     1      -8.871  16.240  68.823  1.00  0.00    -0.243 C  
HETATM   27  N   UNL     1     -10.182  16.193  69.525  1.00  0.00    -0.262 NA 
HETATM   28  H2  UNL     1     -10.456  15.239  69.762  1.00  0.00     0.000 HD 
HETATM   29  H1  UNL     1     -10.160  16.800  70.345  1.00  0.00     0.000 HD 
BRANCH  26  30
HETATM   30  C   UNL     1      -8.459  17.655  68.462  1.00  0.00    -0.289 A  
HETATM   31  C   UNL     1      -9.425  18.557  67.986  1.00  0.00    -0.326 A  
HETATM   32  C   UNL     1      -9.075  19.862  67.634  1.00  0.00    -0.431 A  
HETATM   33  C   UNL     1      -7.754  20.289  67.759  1.00  0.00    -0.297 A  
HETATM   34  C   UNL     1      -6.787  19.415  68.250  1.00  0.00    -0.309 A  
HETATM   35  C   UNL     1      -7.137  18.110  68.607  1.00  0.00    -0.274 A  
ENDBRANCH  26  30
ENDBRANCH  24  26
ENDBRANCH   7  22
TORSDOF 10
ENDMDL
MODEL      150
REMARK 921   NORMALIZED FREE ENERGY PREDICTED BY IDOCK:   -4.42 KCAL/MOL
REMARK 922        TOTAL FREE ENERGY PREDICTED BY IDOCK:   -8.27 KCAL/MOL
REMARK 923 INTER-LIGAND FREE ENERGY PREDICTED BY IDOCK:   -7.51 KCAL/MOL
REMARK 924 INTRA-LIGAND FREE ENERGY PREDICTED BY IDOCK:   -0.76 KCAL/MOL
REMARK 927      BINDING AFFINITY PREDICTED BY RF-SCORE:    0.00 PKD
ROOT
HETATM    1  C   UNL     1     -11.335   6.351  69.728  1.00  0.00    -0.427 C  
HETATM    2  S   UNL     1     -10.306   5.651  71.098  1.00  0.00    -0.242 SA 
HETATM    3  C   UNL     1      -9.337   7.207  71.355  1.00  0.00    -0.154 C  
HETATM    4  C   UNL     1     -10.187   8.333  70.731  1.00  0.00    -0.192 C  
HETATM    5  C   UNL     1      -9.021   7.391  72.839  1.00  0.00    -0.182 C  
HETATM    6  C   UNL     1      -7.994   7.027  70.615  1.00  0.00    -0.109 C  
HETATM    7  C   UNL     1     -10.850   6.116  68.270  1.00  0.00    -0.306 C  
HETATM    8  N   UNL     1     -10.896   7.751  69.592  1.00  0.00    -0.223 N  
HETATM    9  O   UNL     1      -9.413   8.194  67.834  1.00  0.00    -0.143 OA 
HETATM   10  C   UNL     1     -10.266   7.544  68.395  1.00  0.00    -0.185 C  
ENDROOT
BRANCH   4  11
HETATM   11  C   UNL     1     -11.242   8.989  71.647  1.00  0.00    -0.361 C  
HETATM   12  O   UNL     1     -11.876   8.431  72.533  1.00  0.00    -0.391 OA 
BRANCH  11  13
HETATM   13  O   UNL     1     -11.457  10.284  71.271  1.00  0.00    -0.318 OA 
BRANCH  13  14
HETATM   14  C   UNL     1     -12.849  10.617  71.147  1.00  0.00    -0.420 C  
HETATM   15  C   UNL     1     -13.161  11.903  71.897  1.00  0.00    -0.467 C  
BRANCH  14  16
HETATM   16  O   UNL     1     -13.149  10.868  69.768  1.00  0.00    -0.057 OA 
BRANCH  16  17
HETATM   17  C   UNL     1     -12.158  11.528  69.124  1.00  0.00    -0.263 C  
HETATM   18  O   UNL     1     -11.731  12.634  69.424  1.00  0.00    -0.297 OA 
BRANCH  17  19
HETATM   19  O   UNL     1     -11.814  10.814  68.026  1.00  0.00    -0.546 OA 
BRANCH  19  20
HETATM   20  C   UNL     1     -10.853  11.450  67.170  1.00  0.00    -0.268 C  
HETATM   21  C   UNL     1     -11.587  12.138  66.033  1.00  0.00    -0.420 C  
ENDBRANCH  19  20
ENDBRANCH  17  19
ENDBRANCH  16  17
ENDBRANCH  14  16
ENDBRANCH  13  14
ENDBRANCH  11  13
ENDBRANCH   4  11
BRANCH   7  22
HETATM   22  N   UNL     1      -9.874   5.025  68.043  1.00  0.00    -0.153 N  
HETATM   23  H   UNL     1      -9.265   4.738  68.810  1.00  0.00     0.000 HD 
HETATM   24  C   UNL     1      -9.766   4.386  66.826  1.00  0.00    -0.215 C  
HETATM   25  O   UNL     1     -10.397   4.746  65.834  1.00  0.00    -0.256 OA 
BRANCH  24  26
HETATM   26  C   UNL     1      -8.780   3.195  66.814  1.00  0.00    -0.128 C  
HETATM   27  N   UNL     1      -9.405   2.025  66.139  1.00  0.00    -0.342 NA 
HETATM   28  H2  UNL     1      -9.737   2.256  65.202  1.00  0.00     0.000 HD 
HETATM   29  H1  UNL     1      -8.755   1.239  66.131  1.00  0.00     0.000 HD 
BRANCH  26  30
HETATM   30  C   UNL     1      -8.287   2.861  68.211  1.00  0.00    -0.091 A  
HETATM   31  C   UNL     1      -7.104   3.450  68.686  1.00  0.00    -0.050 A  
HETATM   32  C   UNL     1      -6.619   3.154  69.962  1.00  0.00    -0.033 A  
HETATM   33  C   UNL     1      -7.313   2.268  70.784  1.00  0.00    -0.033 A  
HETATM   34  C   UNL     1      -8.499   1.691  70.337  1.00  0.00    -0.074 A  
HETATM   35  C   UNL     1      -8.988   1.991  69.063  1.00  0.00    -0.160 A  
ENDBRANCH  26  30
ENDBRANCH  24  26
ENDBRANCH   7  22
TORSDOF 10
ENDMDL
MODEL      151
REMARK 921   NORMALIZED FREE ENERGY PREDICTED BY IDOCK:   -4.42 KCAL/MOL
REMARK 922        TOTAL FREE ENERGY PREDICTED BY IDOCK:   -8.26 KCAL/MOL
REMARK 923 INTER-LIGAND FREE ENERGY PREDICTED BY IDOCK:   -7.33 KCAL/MOL
REMARK 924 INTRA-LIGAND FREE ENERGY PREDICTED BY IDOCK:   -0.93 KCAL/MOL
REMARK 927      BINDING AFFINITY PREDICTED BY RF-SCORE:    0.00 PKD
ROOT
HETATM    1  C   UNL     1      -9.512   8.078  67.937  1.00  0.00    -0.145 C  
HETATM    2  S   UNL     1      -7.715   8.517  67.879  1.00  0.00    -0.103 SA 
HETATM    3  C   UNL     1      -7.556   8.698  69.715  1.00  0.00    -0.079 C  
HETATM    4  C   UNL     1      -8.748   7.923  70.313  1.00  0.00    -0.138 C  
HETATM    5  C   UNL     1      -6.181   8.211  70.174  1.00  0.00    -0.032 C  
HETATM    6  C   UNL     1      -7.640  10.208  70.027  1.00  0.00    -0.164 C  
HETATM    7  C   UNL     1     -10.542   9.231  67.767  1.00  0.00    -0.246 C  
HETATM    8  N   UNL     1      -9.858   8.053  69.370  1.00  0.00    -0.178 N  
HETATM    9  O   UNL     1     -10.960   9.950  70.192  1.00  0.00    -0.257 OA 
HETATM   10  C   UNL     1     -10.610   9.195  69.313  1.00  0.00    -0.216 C  
ENDROOT
BRANCH   4  11
HETATM   11  C   UNL     1      -8.534   6.417  70.569  1.00  0.00    -0.138 C  
HETATM   12  O   UNL     1      -8.074   5.607  69.773  1.00  0.00    -0.099 OA 
BRANCH  11  13
HETATM   13  O   UNL     1      -9.024   6.070  71.795  1.00  0.00    -0.139 OA 
BRANCH  13  14
HETATM   14  C   UNL     1     -10.044   5.060  71.735  1.00  0.00    -0.200 C  
HETATM   15  C   UNL     1      -9.698   3.892  72.645  1.00  0.00    -0.198 C  
BRANCH  14  16
HETATM   16  O   UNL     1     -11.274   5.609  72.228  1.00  0.00    -0.266 OA 
BRANCH  16  17
HETATM   17  C   UNL     1     -11.091   6.714  72.989  1.00  0.00    -0.205 C  
HETATM   18  O   UNL     1     -10.589   6.732  74.105  1.00  0.00    -0.312 OA 
BRANCH  17  19
HETATM   19  O   UNL     1     -11.669   7.765  72.360  1.00  0.00    -0.320 OA 
BRANCH  19  20
HETATM   20  C   UNL     1     -12.829   7.436  71.581  1.00  0.00    -0.367 C  
HETATM   21  C   UNL     1     -13.808   8.595  71.644  1.00  0.00    -0.440 C  
ENDBRANCH  19  20
ENDBRANCH  17  19
ENDBRANCH  16  17
ENDBRANCH  14  16
ENDBRANCH  13  14
ENDBRANCH  11  13
ENDBRANCH   4  11
BRANCH   7  22
HETATM   22  N   UNL     1     -10.059  10.493  67.159  1.00  0.00    -0.200 N  
HETATM   23  H   UNL     1      -9.110  10.531  66.787  1.00  0.00     0.000 HD 
HETATM   24  C   UNL     1     -10.856  11.615  67.081  1.00  0.00    -0.261 C  
HETATM   25  O   UNL     1     -11.970  11.669  67.597  1.00  0.00    -0.618 OA 
BRANCH  24  26
HETATM   26  C   UNL     1     -10.224  12.796  66.308  1.00  0.00    -0.253 C  
HETATM   27  N   UNL     1      -9.177  12.291  65.377  1.00  0.00    -0.420 NA 
HETATM   28  H2  UNL     1      -9.538  11.571  64.750  1.00  0.00     0.000 HD 
HETATM   29  H1  UNL     1      -8.760  13.069  64.867  1.00  0.00     0.000 HD 
BRANCH  26  30
HETATM   30  C   UNL     1      -9.694  13.863  67.248  1.00  0.00    -0.245 A  
HETATM   31  C   UNL     1      -8.438  14.441  67.001  1.00  0.00    -0.206 A  
HETATM   32  C   UNL     1      -7.918  15.416  67.854  1.00  0.00    -0.144 A  
HETATM   33  C   UNL     1      -8.649  15.834  68.965  1.00  0.00    -0.236 A  
HETATM   34  C   UNL     1      -9.905  15.287  69.213  1.00  0.00    -0.255 A  
HETATM   35  C   UNL     1     -10.429  14.315  68.357  1.00  0.00    -0.249 A  
ENDBRANCH  26  30
ENDBRANCH  24  26
ENDBRANCH   7  22
TORSDOF 10
ENDMDL
MODEL      152
REMARK 921   NORMALIZED FREE ENERGY PREDICTED BY IDOCK:   -4.40 KCAL/MOL
REMARK 922        TOTAL FREE ENERGY PREDICTED BY IDOCK:   -8.23 KCAL/MOL
REMARK 923 INTER-LIGAND FREE ENERGY PREDICTED BY IDOCK:   -7.85 KCAL/MOL
REMARK 924 INTRA-LIGAND FREE ENERGY PREDICTED BY IDOCK:   -0.38 KCAL/MOL
REMARK 927      BINDING AFFINITY PREDICTED BY RF-SCORE:    0.00 PKD
ROOT
HETATM    1  C   UNL     1      -8.581  11.995  66.737  1.00  0.00    -0.177 C  
HETATM    2  S   UNL     1      -7.626  11.715  68.298  1.00  0.00    -0.128 SA 
HETATM    3  C   UNL     1      -8.347  10.039  68.605  1.00  0.00    -0.116 C  
HETATM    4  C   UNL     1      -8.895   9.566  67.243  1.00  0.00    -0.128 C  
HETATM    5  C   UNL     1      -7.296   9.119  69.226  1.00  0.00    -0.070 C  
HETATM    6  C   UNL     1      -9.475  10.218  69.644  1.00  0.00    -0.180 C  
HETATM    7  C   UNL     1      -9.931  12.756  66.846  1.00  0.00    -0.232 C  
HETATM    8  N   UNL     1      -9.355  10.758  66.531  1.00  0.00    -0.165 N  
HETATM    9  O   UNL     1     -11.610  10.844  67.161  1.00  0.00    -0.431 OA 
HETATM   10  C   UNL     1     -10.557  11.341  66.829  1.00  0.00    -0.260 C  
ENDROOT
BRANCH   4  11
HETATM   11  C   UNL     1      -7.902   8.831  66.318  1.00  0.00    -0.102 C  
HETATM   12  O   UNL     1      -7.360   9.298  65.323  1.00  0.00    -0.091 OA 
BRANCH  11  13
HETATM   13  O   UNL     1      -7.774   7.527  66.701  1.00  0.00    -0.097 OA 
BRANCH  13  14
HETATM   14  C   UNL     1      -8.877   6.703  66.292  1.00  0.00    -0.147 C  
HETATM   15  C   UNL     1      -8.492   5.846  65.095  1.00  0.00    -0.130 C  
BRANCH  14  16
HETATM   16  O   UNL     1      -9.201   5.795  67.353  1.00  0.00    -0.111 OA 
BRANCH  16  17
HETATM   17  C   UNL     1      -8.164   4.995  67.698  1.00  0.00    -0.105 C  
HETATM   18  O   UNL     1      -7.126   5.368  68.226  1.00  0.00    -0.063 OA 
BRANCH  17  19
HETATM   19  O   UNL     1      -8.423   3.744  67.247  1.00  0.00    -0.097 OA 
BRANCH  19  20
HETATM   20  C   UNL     1      -8.139   2.695  68.184  1.00  0.00    -0.058 C  
HETATM   21  C   UNL     1      -9.208   2.698  69.263  1.00  0.00    -0.203 C  
ENDBRANCH  19  20
ENDBRANCH  17  19
ENDBRANCH  16  17
ENDBRANCH  14  16
ENDBRANCH  13  14
ENDBRANCH  11  13
ENDBRANCH   4  11
BRANCH   7  22
HETATM   22  N   UNL     1     -10.164  13.564  68.066  1.00  0.00    -0.236 N  
HETATM   23  H   UNL     1      -9.453  13.570  68.798  1.00  0.00     0.000 HD 
HETATM   24  C   UNL     1     -11.313  14.306  68.240  1.00  0.00    -0.289 C  
HETATM   25  O   UNL     1     -12.251  14.265  67.446  1.00  0.00    -0.378 OA 
BRANCH  24  26
HETATM   26  C   UNL     1     -11.324  15.176  69.518  1.00  0.00    -0.285 C  
HETATM   27  N   UNL     1      -9.947  15.281  70.073  1.00  0.00    -0.483 NA 
HETATM   28  H2  UNL     1      -9.281  15.626  69.381  1.00  0.00     0.000 HD 
HETATM   29  H1  UNL     1      -9.954  15.855  70.917  1.00  0.00     0.000 HD 
BRANCH  26  30
HETATM   30  C   UNL     1     -12.321  14.659  70.540  1.00  0.00    -0.400 A  
HETATM   31  C   UNL     1     -12.309  13.298  70.890  1.00  0.00    -0.413 A  
HETATM   32  C   UNL     1     -13.220  12.790  71.818  1.00  0.00    -0.471 A  
HETATM   33  C   UNL     1     -14.153  13.635  72.415  1.00  0.00    -0.586 A  
HETATM   34  C   UNL     1     -14.165  14.991  72.096  1.00  0.00    -0.636 A  
HETATM   35  C   UNL     1     -13.251  15.501  71.172  1.00  0.00    -0.576 A  
ENDBRANCH  26  30
ENDBRANCH  24  26
ENDBRANCH   7  22
TORSDOF 10
ENDMDL
MODEL      153
REMARK 921   NORMALIZED FREE ENERGY PREDICTED BY IDOCK:   -4.39 KCAL/MOL
REMARK 922        TOTAL FREE ENERGY PREDICTED BY IDOCK:   -8.22 KCAL/MOL
REMARK 923 INTER-LIGAND FREE ENERGY PREDICTED BY IDOCK:   -8.08 KCAL/MOL
REMARK 924 INTRA-LIGAND FREE ENERGY PREDICTED BY IDOCK:   -0.15 KCAL/MOL
REMARK 927      BINDING AFFINITY PREDICTED BY RF-SCORE:    0.00 PKD
ROOT
HETATM    1  C   UNL     1      -9.498  14.426  69.098  1.00  0.00     0.048 C  
HETATM    2  S   UNL     1     -10.819  15.274  68.118  1.00  0.00    -0.284 SA 
HETATM    3  C   UNL     1     -10.892  13.961  66.815  1.00  0.00    -0.286 C  
HETATM    4  C   UNL     1     -10.271  12.704  67.458  1.00  0.00    -0.215 C  
HETATM    5  C   UNL     1     -12.330  13.786  66.325  1.00  0.00    -0.479 C  
HETATM    6  C   UNL     1     -10.056  14.466  65.620  1.00  0.00    -0.377 C  
HETATM    7  C   UNL     1      -8.023  14.827  68.817  1.00  0.00    -0.152 C  
HETATM    8  N   UNL     1      -9.236  13.165  68.382  1.00  0.00    -0.179 N  
HETATM    9  O   UNL     1      -7.334  13.138  67.015  1.00  0.00    -0.014 OA 
HETATM   10  C   UNL     1      -8.006  13.559  67.930  1.00  0.00    -0.162 C  
ENDROOT
BRANCH   4  11
HETATM   11  C   UNL     1     -11.228  11.791  68.253  1.00  0.00    -0.255 C  
HETATM   12  O   UNL     1     -12.019  10.985  67.779  1.00  0.00    -0.609 OA 
BRANCH  11  13
HETATM   13  O   UNL     1     -11.150  12.070  69.587  1.00  0.00    -0.146 OA 
BRANCH  13  14
HETATM   14  C   UNL     1     -11.417  10.933  70.423  1.00  0.00    -0.275 C  
HETATM   15  C   UNL     1     -12.910  10.646  70.477  1.00  0.00    -0.356 C  
BRANCH  14  16
HETATM   16  O   UNL     1     -10.802   9.773  69.846  1.00  0.00    -0.239 OA 
BRANCH  16  17
HETATM   17  C   UNL     1      -9.570   9.524  70.350  1.00  0.00    -0.269 C  
HETATM   18  O   UNL     1      -9.327   9.218  71.509  1.00  0.00    -0.287 OA 
BRANCH  17  19
HETATM   19  O   UNL     1      -8.654   9.793  69.390  1.00  0.00    -0.138 OA 
BRANCH  19  20
HETATM   20  C   UNL     1      -7.414  10.331  69.874  1.00  0.00    -0.158 C  
HETATM   21  C   UNL     1      -6.370  10.221  68.777  1.00  0.00    -0.047 C  
ENDBRANCH  19  20
ENDBRANCH  17  19
ENDBRANCH  16  17
ENDBRANCH  14  16
ENDBRANCH  13  14
ENDBRANCH  11  13
ENDBRANCH   4  11
BRANCH   7  22
HETATM   22  N   UNL     1      -7.785  16.116  68.127  1.00  0.00    -0.139 N  
HETATM   23  H   UNL     1      -8.330  16.339  67.294  1.00  0.00     0.000 HD 
HETATM   24  C   UNL     1      -6.849  17.022  68.578  1.00  0.00    -0.179 C  
HETATM   25  O   UNL     1      -6.090  16.775  69.513  1.00  0.00    -0.193 OA 
BRANCH  24  26
HETATM   26  C   UNL     1      -6.827  18.359  67.801  1.00  0.00    -0.208 C  
HETATM   27  N   UNL     1      -5.972  19.347  68.516  1.00  0.00    -0.214 NA 
HETATM   28  H2  UNL     1      -5.033  18.987  68.686  1.00  0.00     0.000 HD 
HETATM   29  H1  UNL     1      -5.958  20.229  68.004  1.00  0.00     0.000 HD 
BRANCH  26  30
HETATM   30  C   UNL     1      -8.228  18.884  67.548  1.00  0.00    -0.289 A  
HETATM   31  C   UNL     1      -8.627  19.187  66.235  1.00  0.00    -0.303 A  
HETATM   32  C   UNL     1      -9.905  19.683  65.972  1.00  0.00    -0.462 A  
HETATM   33  C   UNL     1     -10.808  19.876  67.015  1.00  0.00    -0.370 A  
HETATM   34  C   UNL     1     -10.437  19.560  68.320  1.00  0.00    -0.442 A  
HETATM   35  C   UNL     1      -9.160  19.059  68.584  1.00  0.00    -0.401 A  
ENDBRANCH  26  30
ENDBRANCH  24  26
ENDBRANCH   7  22
TORSDOF 10
ENDMDL
MODEL      154
REMARK 921   NORMALIZED FREE ENERGY PREDICTED BY IDOCK:   -4.39 KCAL/MOL
REMARK 922        TOTAL FREE ENERGY PREDICTED BY IDOCK:   -8.22 KCAL/MOL
REMARK 923 INTER-LIGAND FREE ENERGY PREDICTED BY IDOCK:   -7.76 KCAL/MOL
REMARK 924 INTRA-LIGAND FREE ENERGY PREDICTED BY IDOCK:   -0.46 KCAL/MOL
REMARK 927      BINDING AFFINITY PREDICTED BY RF-SCORE:    0.00 PKD
ROOT
HETATM    1  C   UNL     1      -8.833   8.926  68.298  1.00  0.00    -0.134 C  
HETATM    2  S   UNL     1     -10.605   8.558  68.687  1.00  0.00    -0.055 SA 
HETATM    3  C   UNL     1     -10.394   6.723  68.578  1.00  0.00    -0.190 C  
HETATM    4  C   UNL     1      -8.883   6.467  68.750  1.00  0.00    -0.124 C  
HETATM    5  C   UNL     1     -11.282   6.029  69.612  1.00  0.00    -0.428 C  
HETATM    6  C   UNL     1     -10.892   6.295  67.181  1.00  0.00    -0.460 C  
HETATM    7  C   UNL     1      -8.464   9.202  66.813  1.00  0.00    -0.123 C  
HETATM    8  N   UNL     1      -8.187   7.609  68.157  1.00  0.00    -0.123 N  
HETATM    9  O   UNL     1      -7.841   6.866  65.963  1.00  0.00    -0.095 OA 
HETATM   10  C   UNL     1      -8.029   7.717  66.802  1.00  0.00    -0.111 C  
ENDROOT
BRANCH   4  11
HETATM   11  C   UNL     1      -8.369   6.314  70.197  1.00  0.00    -0.129 C  
HETATM   12  O   UNL     1      -7.541   5.499  70.587  1.00  0.00    -0.084 OA 
BRANCH  11  13
HETATM   13  O   UNL     1      -9.042   7.159  71.031  1.00  0.00    -0.150 OA 
BRANCH  13  14
HETATM   14  C   UNL     1      -9.019   6.740  72.406  1.00  0.00    -0.134 C  
HETATM   15  C   UNL     1      -8.633   7.897  73.313  1.00  0.00    -0.276 C  
BRANCH  14  16
HETATM   16  O   UNL     1     -10.340   6.341  72.795  1.00  0.00    -0.185 OA 
BRANCH  16  17
HETATM   17  C   UNL     1     -10.367   5.133  73.408  1.00  0.00    -0.205 C  
HETATM   18  O   UNL     1     -10.784   4.921  74.538  1.00  0.00    -0.360 OA 
BRANCH  17  19
HETATM   19  O   UNL     1      -9.743   4.236  72.609  1.00  0.00    -0.133 OA 
BRANCH  19  20
HETATM   20  C   UNL     1     -10.440   2.992  72.440  1.00  0.00    -0.010 C  
HETATM   21  C   UNL     1      -9.722   2.165  71.388  1.00  0.00    -0.212 C  
ENDBRANCH  19  20
ENDBRANCH  17  19
ENDBRANCH  16  17
ENDBRANCH  14  16
ENDBRANCH  13  14
ENDBRANCH  11  13
ENDBRANCH   4  11
BRANCH   7  22
HETATM   22  N   UNL     1      -9.565   9.572  65.893  1.00  0.00    -0.242 N  
HETATM   23  H   UNL     1     -10.499   9.199  66.064  1.00  0.00     0.000 HD 
HETATM   24  C   UNL     1      -9.363  10.406  64.814  1.00  0.00    -0.251 C  
HETATM   25  O   UNL     1      -8.247  10.810  64.492  1.00  0.00    -0.059 OA 
BRANCH  24  26
HETATM   26  C   UNL     1     -10.651  10.774  64.041  1.00  0.00    -0.105 C  
HETATM   27  N   UNL     1     -10.348  10.916  62.590  1.00  0.00    -0.766 NA 
HETATM   28  H2  UNL     1      -9.897  10.083  62.209  1.00  0.00     0.000 HD 
HETATM   29  H1  UNL     1     -11.197  11.159  62.079  1.00  0.00     0.000 HD 
BRANCH  26  30
HETATM   30  C   UNL     1     -11.316  12.011  64.616  1.00  0.00    -0.377 A  
HETATM   31  C   UNL     1     -11.773  13.017  63.748  1.00  0.00    -0.547 A  
HETATM   32  C   UNL     1     -12.378  14.172  64.247  1.00  0.00    -0.398 A  
HETATM   33  C   UNL     1     -12.543  14.336  65.621  1.00  0.00    -0.429 A  
HETATM   34  C   UNL     1     -12.116  13.339  66.494  1.00  0.00    -0.435 A  
HETATM   35  C   UNL     1     -11.515  12.181  65.996  1.00  0.00    -0.427 A  
ENDBRANCH  26  30
ENDBRANCH  24  26
ENDBRANCH   7  22
TORSDOF 10
ENDMDL
MODEL      155
REMARK 921   NORMALIZED FREE ENERGY PREDICTED BY IDOCK:   -4.37 KCAL/MOL
REMARK 922        TOTAL FREE ENERGY PREDICTED BY IDOCK:   -8.18 KCAL/MOL
REMARK 923 INTER-LIGAND FREE ENERGY PREDICTED BY IDOCK:   -6.86 KCAL/MOL
REMARK 924 INTRA-LIGAND FREE ENERGY PREDICTED BY IDOCK:   -1.32 KCAL/MOL
REMARK 927      BINDING AFFINITY PREDICTED BY RF-SCORE:    0.00 PKD
ROOT
HETATM    1  C   UNL     1     -11.067  10.165  68.066  1.00  0.00    -0.240 C  
HETATM    2  S   UNL     1     -10.036  11.345  67.081  1.00  0.00    -0.202 SA 
HETATM    3  C   UNL     1      -8.429  10.568  67.569  1.00  0.00    -0.118 C  
HETATM    4  C   UNL     1      -8.783   9.146  68.048  1.00  0.00    -0.129 C  
HETATM    5  C   UNL     1      -7.442  10.622  66.402  1.00  0.00    -0.138 C  
HETATM    6  C   UNL     1      -7.841  11.427  68.710  1.00  0.00    -0.128 C  
HETATM    7  C   UNL     1     -11.467  10.588  69.508  1.00  0.00    -0.272 C  
HETATM    8  N   UNL     1     -10.107   9.222  68.667  1.00  0.00    -0.182 N  
HETATM    9  O   UNL     1      -9.560   9.606  70.912  1.00  0.00    -0.207 OA 
HETATM   10  C   UNL     1     -10.269   9.706  69.936  1.00  0.00    -0.245 C  
ENDROOT
BRANCH   4  11
HETATM   11  C   UNL     1      -8.842   8.047  66.966  1.00  0.00    -0.133 C  
HETATM   12  O   UNL     1      -9.707   7.923  66.109  1.00  0.00    -0.139 OA 
BRANCH  11  13
HETATM   13  O   UNL     1      -7.831   7.148  67.149  1.00  0.00    -0.106 OA 
BRANCH  13  14
HETATM   14  C   UNL     1      -7.981   5.956  66.360  1.00  0.00    -0.102 C  
HETATM   15  C   UNL     1      -6.861   5.847  65.337  1.00  0.00    -0.055 C  
BRANCH  14  16
HETATM   16  O   UNL     1      -7.863   4.811  67.215  1.00  0.00    -0.093 OA 
BRANCH  16  17
HETATM   17  C   UNL     1      -9.029   4.484  67.821  1.00  0.00    -0.116 C  
HETATM   18  O   UNL     1     -10.103   4.327  67.256  1.00  0.00    -0.137 OA 
BRANCH  17  19
HETATM   19  O   UNL     1      -8.828   4.486  69.160  1.00  0.00    -0.085 OA 
BRANCH  19  20
HETATM   20  C   UNL     1      -9.372   5.621  69.850  1.00  0.00    -0.147 C  
HETATM   21  C   UNL     1     -10.110   5.138  71.086  1.00  0.00    -0.291 C  
ENDBRANCH  19  20
ENDBRANCH  17  19
ENDBRANCH  16  17
ENDBRANCH  14  16
ENDBRANCH  13  14
ENDBRANCH  11  13
ENDBRANCH   4  11
BRANCH   7  22
HETATM   22  N   UNL     1     -11.378  12.027  69.846  1.00  0.00    -0.510 N  
HETATM   23  H   UNL     1     -10.623  12.585  69.446  1.00  0.00     0.000 HD 
HETATM   24  C   UNL     1     -12.287  12.635  70.687  1.00  0.00    -0.290 C  
HETATM   25  O   UNL     1     -13.159  12.005  71.281  1.00  0.00    -0.284 OA 
BRANCH  24  26
HETATM   26  C   UNL     1     -12.105  14.165  70.827  1.00  0.00    -0.349 C  
HETATM   27  N   UNL     1     -13.422  14.812  71.079  1.00  0.00    -0.505 NA 
HETATM   28  H2  UNL     1     -13.899  14.407  71.885  1.00  0.00     0.000 HD 
HETATM   29  H1  UNL     1     -13.302  15.820  71.171  1.00  0.00     0.000 HD 
BRANCH  26  30
HETATM   30  C   UNL     1     -11.391  14.757  69.625  1.00  0.00    -0.316 A  
HETATM   31  C   UNL     1     -11.965  14.633  68.349  1.00  0.00    -0.289 A  
HETATM   32  C   UNL     1     -11.327  15.157  67.223  1.00  0.00    -0.305 A  
HETATM   33  C   UNL     1     -10.108  15.818  67.356  1.00  0.00    -0.246 A  
HETATM   34  C   UNL     1      -9.534  15.968  68.616  1.00  0.00    -0.224 A  
HETATM   35  C   UNL     1     -10.174  15.450  69.744  1.00  0.00    -0.278 A  
ENDBRANCH  26  30
ENDBRANCH  24  26
ENDBRANCH   7  22
TORSDOF 10
ENDMDL
MODEL      156
REMARK 921   NORMALIZED FREE ENERGY PREDICTED BY IDOCK:   -4.36 KCAL/MOL
REMARK 922        TOTAL FREE ENERGY PREDICTED BY IDOCK:   -8.17 KCAL/MOL
REMARK 923 INTER-LIGAND FREE ENERGY PREDICTED BY IDOCK:   -6.77 KCAL/MOL
REMARK 924 INTRA-LIGAND FREE ENERGY PREDICTED BY IDOCK:   -1.40 KCAL/MOL
REMARK 927      BINDING AFFINITY PREDICTED BY RF-SCORE:    0.00 PKD
ROOT
HETATM    1  C   UNL     1      -9.003   7.877  69.861  1.00  0.00    -0.146 C  
HETATM    2  S   UNL     1      -9.840   8.417  71.421  1.00  0.00    -0.218 SA 
HETATM    3  C   UNL     1     -10.771   6.832  71.635  1.00  0.00    -0.225 C  
HETATM    4  C   UNL     1     -10.015   5.787  70.789  1.00  0.00    -0.193 C  
HETATM    5  C   UNL     1     -10.890   6.487  73.120  1.00  0.00    -0.286 C  
HETATM    6  C   UNL     1     -12.200   7.074  71.102  1.00  0.00    -0.427 C  
HETATM    7  C   UNL     1      -9.676   8.260  68.513  1.00  0.00    -0.156 C  
HETATM    8  N   UNL     1      -9.460   6.495  69.635  1.00  0.00    -0.145 N  
HETATM    9  O   UNL     1     -11.163   6.224  68.050  1.00  0.00    -0.323 OA 
HETATM   10  C   UNL     1     -10.242   6.820  68.561  1.00  0.00    -0.175 C  
ENDROOT
BRANCH   4  11
HETATM   11  C   UNL     1      -8.850   5.050  71.483  1.00  0.00    -0.132 C  
HETATM   12  O   UNL     1      -7.887   5.574  72.030  1.00  0.00    -0.103 OA 
BRANCH  11  13
HETATM   13  O   UNL     1      -8.981   3.701  71.322  1.00  0.00    -0.091 OA 
BRANCH  13  14
HETATM   14  C   UNL     1      -8.022   3.141  70.410  1.00  0.00    -0.042 C  
HETATM   15  C   UNL     1      -7.817   1.660  70.690  1.00  0.00    -0.041 C  
BRANCH  14  16
HETATM   16  O   UNL     1      -8.537   3.234  69.075  1.00  0.00    -0.067 OA 
BRANCH  16  17
HETATM   17  C   UNL     1      -7.697   3.877  68.229  1.00  0.00    -0.065 C  
HETATM   18  O   UNL     1      -6.563   4.247  68.501  1.00  0.00    -0.043 OA 
BRANCH  17  19
HETATM   19  O   UNL     1      -8.370   4.149  67.086  1.00  0.00    -0.100 OA 
BRANCH  19  20
HETATM   20  C   UNL     1      -9.054   3.027  66.508  1.00  0.00    -0.150 C  
HETATM   21  C   UNL     1      -8.025   2.019  66.026  1.00  0.00    -0.078 C  
ENDBRANCH  19  20
ENDBRANCH  17  19
ENDBRANCH  16  17
ENDBRANCH  14  16
ENDBRANCH  13  14
ENDBRANCH  11  13
ENDBRANCH   4  11
BRANCH   7  22
HETATM   22  N   UNL     1     -10.669   9.359  68.534  1.00  0.00    -0.357 N  
HETATM   23  H   UNL     1     -11.661   9.128  68.600  1.00  0.00     0.000 HD 
HETATM   24  C   UNL     1     -10.292  10.683  68.466  1.00  0.00    -0.183 C  
HETATM   25  O   UNL     1      -9.126  11.029  68.285  1.00  0.00    -0.145 OA 
BRANCH  24  26
HETATM   26  C   UNL     1     -11.457  11.689  68.622  1.00  0.00    -0.290 C  
HETATM   27  N   UNL     1     -12.713  10.963  68.960  1.00  0.00    -0.492 NA 
HETATM   28  H2  UNL     1     -12.603  10.372  69.784  1.00  0.00     0.000 HD 
HETATM   29  H1  UNL     1     -13.481  11.625  69.062  1.00  0.00     0.000 HD 
BRANCH  26  30
HETATM   30  C   UNL     1     -11.610  12.566  67.393  1.00  0.00    -0.434 A  
HETATM   31  C   UNL     1     -11.311  13.936  67.480  1.00  0.00    -0.342 A  
HETATM   32  C   UNL     1     -11.453  14.771  66.370  1.00  0.00    -0.319 A  
HETATM   33  C   UNL     1     -11.888  14.248  65.154  1.00  0.00    -0.384 A  
HETATM   34  C   UNL     1     -12.168  12.888  65.044  1.00  0.00    -0.515 A  
HETATM   35  C   UNL     1     -12.022  12.051  66.152  1.00  0.00    -0.105 A  
ENDBRANCH  26  30
ENDBRANCH  24  26
ENDBRANCH   7  22
TORSDOF 10
ENDMDL
MODEL      157
REMARK 921   NORMALIZED FREE ENERGY PREDICTED BY IDOCK:   -4.35 KCAL/MOL
REMARK 922        TOTAL FREE ENERGY PREDICTED BY IDOCK:   -8.16 KCAL/MOL
REMARK 923 INTER-LIGAND FREE ENERGY PREDICTED BY IDOCK:   -7.20 KCAL/MOL
REMARK 924 INTRA-LIGAND FREE ENERGY PREDICTED BY IDOCK:   -0.96 KCAL/MOL
REMARK 927      BINDING AFFINITY PREDICTED BY RF-SCORE:    0.00 PKD
ROOT
HETATM    1  C   UNL     1     -11.198  11.384  67.370  1.00  0.00    -0.305 C  
HETATM    2  S   UNL     1     -10.566  12.264  68.872  1.00  0.00    -0.075 SA 
HETATM    3  C   UNL     1      -9.558  13.480  67.907  1.00  0.00    -0.218 C  
HETATM    4  C   UNL     1     -10.150  13.474  66.483  1.00  0.00    -0.282 C  
HETATM    5  C   UNL     1      -9.573  14.843  68.600  1.00  0.00    -0.222 C  
HETATM    6  C   UNL     1      -8.101  12.970  67.923  1.00  0.00    -0.158 C  
HETATM    7  C   UNL     1     -10.415  10.131  66.887  1.00  0.00    -0.222 C  
HETATM    8  N   UNL     1     -10.628  12.115  66.225  1.00  0.00    -0.243 N  
HETATM    9  O   UNL     1      -8.754  11.138  65.215  1.00  0.00    -0.142 OA 
HETATM   10  C   UNL     1      -9.761  11.113  65.885  1.00  0.00    -0.229 C  
ENDROOT
BRANCH   4  11
HETATM   11  C   UNL     1     -11.329  14.435  66.222  1.00  0.00    -0.350 C  
HETATM   12  O   UNL     1     -12.457  14.339  66.691  1.00  0.00    -0.407 OA 
BRANCH  11  13
HETATM   13  O   UNL     1     -10.977  15.378  65.300  1.00  0.00    -0.353 OA 
BRANCH  13  14
HETATM   14  C   UNL     1     -10.337  16.527  65.878  1.00  0.00    -0.350 C  
HETATM   15  C   UNL     1      -8.843  16.510  65.595  1.00  0.00     0.302 C  
BRANCH  14  16
HETATM   16  O   UNL     1     -10.854  17.712  65.257  1.00  0.00    -0.600 OA 
BRANCH  16  17
HETATM   17  C   UNL     1     -10.548  18.842  65.938  1.00  0.00    -0.352 C  
HETATM   18  O   UNL     1     -10.011  19.832  65.463  1.00  0.00    -0.346 OA 
BRANCH  17  19
HETATM   19  O   UNL     1     -10.822  18.636  67.248  1.00  0.00    -0.426 OA 
BRANCH  19  20
HETATM   20  C   UNL     1     -10.265  19.613  68.141  1.00  0.00    -0.461 C  
HETATM   21  C   UNL     1      -9.040  19.020  68.816  1.00  0.00    -0.374 C  
ENDBRANCH  19  20
ENDBRANCH  17  19
ENDBRANCH  16  17
ENDBRANCH  14  16
ENDBRANCH  13  14
ENDBRANCH  11  13
ENDBRANCH   4  11
BRANCH   7  22
HETATM   22  N   UNL     1      -9.505   9.478  67.858  1.00  0.00    -0.132 N  
HETATM   23  H   UNL     1      -8.519   9.741  67.865  1.00  0.00     0.000 HD 
HETATM   24  C   UNL     1      -9.952   8.528  68.750  1.00  0.00    -0.186 C  
HETATM   25  O   UNL     1     -11.102   8.093  68.730  1.00  0.00     0.103 OA 
BRANCH  24  26
HETATM   26  C   UNL     1      -8.885   8.049  69.762  1.00  0.00    -0.144 C  
HETATM   27  N   UNL     1      -7.540   8.535  69.350  1.00  0.00    -0.088 NA 
HETATM   28  H2  UNL     1      -7.521   9.548  69.224  1.00  0.00     0.000 HD 
HETATM   29  H1  UNL     1      -6.836   8.219  70.017  1.00  0.00     0.000 HD 
BRANCH  26  30
HETATM   30  C   UNL     1      -8.923   6.543  69.946  1.00  0.00    -0.143 A  
HETATM   31  C   UNL     1      -8.293   5.714  69.003  1.00  0.00    -0.100 A  
HETATM   32  C   UNL     1      -8.321   4.325  69.138  1.00  0.00    -0.084 A  
HETATM   33  C   UNL     1      -8.973   3.742  70.222  1.00  0.00    -0.170 A  
HETATM   34  C   UNL     1      -9.584   4.548  71.179  1.00  0.00    -0.245 A  
HETATM   35  C   UNL     1      -9.553   5.938  71.048  1.00  0.00    -0.197 A  
ENDBRANCH  26  30
ENDBRANCH  24  26
ENDBRANCH   7  22
TORSDOF 10
ENDMDL
MODEL      158
REMARK 921   NORMALIZED FREE ENERGY PREDICTED BY IDOCK:   -4.35 KCAL/MOL
REMARK 922        TOTAL FREE ENERGY PREDICTED BY IDOCK:   -8.15 KCAL/MOL
REMARK 923 INTER-LIGAND FREE ENERGY PREDICTED BY IDOCK:   -6.92 KCAL/MOL
REMARK 924 INTRA-LIGAND FREE ENERGY PREDICTED BY IDOCK:   -1.23 KCAL/MOL
REMARK 927      BINDING AFFINITY PREDICTED BY RF-SCORE:    0.00 PKD
ROOT
HETATM    1  C   UNL     1      -9.335   9.788  67.791  1.00  0.00    -0.134 C  
HETATM    2  S   UNL     1      -7.568   9.293  67.549  1.00  0.00    -0.088 SA 
HETATM    3  C   UNL     1      -7.227  10.608  66.292  1.00  0.00    -0.137 C  
HETATM    4  C   UNL     1      -8.325  11.671  66.493  1.00  0.00    -0.122 C  
HETATM    5  C   UNL     1      -5.797  11.127  66.449  1.00  0.00    -0.148 C  
HETATM    6  C   UNL     1      -7.324   9.939  64.903  1.00  0.00    -0.136 C  
HETATM    7  C   UNL     1     -10.412   9.053  66.944  1.00  0.00    -0.223 C  
HETATM    8  N   UNL     1      -9.531  10.962  66.923  1.00  0.00    -0.174 N  
HETATM    9  O   UNL     1     -10.600  10.560  64.878  1.00  0.00    -0.247 OA 
HETATM   10  C   UNL     1     -10.319  10.296  66.025  1.00  0.00    -0.178 C  
ENDROOT
BRANCH   4  11
HETATM   11  C   UNL     1      -8.039  12.771  67.536  1.00  0.00    -0.180 C  
HETATM   12  O   UNL     1      -8.104  12.647  68.753  1.00  0.00    -0.043 OA 
BRANCH  11  13
HETATM   13  O   UNL     1      -7.791  13.961  66.915  1.00  0.00     0.025 OA 
BRANCH  13  14
HETATM   14  C   UNL     1      -8.837  14.928  67.100  1.00  0.00    -0.217 C  
HETATM   15  C   UNL     1      -8.422  16.281  66.542  1.00  0.00    -0.338 C  
BRANCH  14  16
HETATM   16  O   UNL     1      -9.991  14.518  66.353  1.00  0.00    -0.270 OA 
BRANCH  16  17
HETATM   17  C   UNL     1     -11.089  14.350  67.128  1.00  0.00    -0.312 C  
HETATM   18  O   UNL     1     -12.196  14.020  66.726  1.00  0.00    -0.439 OA 
BRANCH  17  19
HETATM   19  O   UNL     1     -10.781  14.729  68.391  1.00  0.00    -0.233 OA 
BRANCH  19  20
HETATM   20  C   UNL     1     -11.597  15.787  68.918  1.00  0.00    -0.394 C  
HETATM   21  C   UNL     1     -10.731  16.697  69.770  1.00  0.00    -0.254 C  
ENDBRANCH  19  20
ENDBRANCH  17  19
ENDBRANCH  16  17
ENDBRANCH  14  16
ENDBRANCH  13  14
ENDBRANCH  11  13
ENDBRANCH   4  11
BRANCH   7  22
HETATM   22  N   UNL     1     -10.034   7.756  66.335  1.00  0.00    -0.458 N  
HETATM   23  H   UNL     1      -9.464   7.754  65.490  1.00  0.00     0.000 HD 
HETATM   24  C   UNL     1     -10.431   6.553  66.880  1.00  0.00    -0.277 C  
HETATM   25  O   UNL     1     -11.200   6.484  67.837  1.00  0.00    -0.292 OA 
BRANCH  24  26
HETATM   26  C   UNL     1      -9.842   5.308  66.177  1.00  0.00    -0.165 C  
HETATM   27  N   UNL     1     -10.936   4.507  65.562  1.00  0.00    -0.862 NA 
HETATM   28  H2  UNL     1     -11.511   5.066  64.932  1.00  0.00     0.000 HD 
HETATM   29  H1  UNL     1     -10.547   3.685  65.099  1.00  0.00     0.000 HD 
BRANCH  26  30
HETATM   30  C   UNL     1      -8.984   4.485  67.121  1.00  0.00    -0.122 A  
HETATM   31  C   UNL     1      -9.245   3.113  67.274  1.00  0.00    -0.219 A  
HETATM   32  C   UNL     1      -8.481   2.332  68.144  1.00  0.00    -0.093 A  
HETATM   33  C   UNL     1      -7.440   2.909  68.869  1.00  0.00    -0.048 A  
HETATM   34  C   UNL     1      -7.154   4.263  68.713  1.00  0.00    -0.052 A  
HETATM   35  C   UNL     1      -7.914   5.044  67.840  1.00  0.00    -0.094 A  
ENDBRANCH  26  30
ENDBRANCH  24  26
ENDBRANCH   7  22
TORSDOF 10
ENDMDL
MODEL      159
REMARK 921   NORMALIZED FREE ENERGY PREDICTED BY IDOCK:   -4.34 KCAL/MOL
REMARK 922        TOTAL FREE ENERGY PREDICTED BY IDOCK:   -8.13 KCAL/MOL
REMARK 923 INTER-LIGAND FREE ENERGY PREDICTED BY IDOCK:   -7.50 KCAL/MOL
REMARK 924 INTRA-LIGAND FREE ENERGY PREDICTED BY IDOCK:   -0.63 KCAL/MOL
REMARK 927      BINDING AFFINITY PREDICTED BY RF-SCORE:    0.00 PKD
ROOT
HETATM    1  C   UNL     1     -10.161   8.587  69.087  1.00  0.00    -0.211 C  
HETATM    2  S   UNL     1      -9.836   8.631  67.266  1.00  0.00    -0.218 SA 
HETATM    3  C   UNL     1      -8.045   8.199  67.433  1.00  0.00    -0.122 C  
HETATM    4  C   UNL     1      -7.902   7.549  68.825  1.00  0.00    -0.121 C  
HETATM    5  C   UNL     1      -7.605   7.314  66.266  1.00  0.00    -0.092 C  
HETATM    6  C   UNL     1      -7.252   9.520  67.334  1.00  0.00    -0.087 C  
HETATM    7  C   UNL     1     -10.062   9.927  69.869  1.00  0.00    -0.257 C  
HETATM    8  N   UNL     1      -8.879   8.197  69.700  1.00  0.00    -0.142 N  
HETATM    9  O   UNL     1      -7.611   9.936  70.623  1.00  0.00    -0.288 OA 
HETATM   10  C   UNL     1      -8.641   9.433  70.236  1.00  0.00    -0.221 C  
ENDROOT
BRANCH   4  11
HETATM   11  C   UNL     1      -8.146   6.028  68.905  1.00  0.00    -0.104 C  
HETATM   12  O   UNL     1      -7.299   5.152  68.776  1.00  0.00    -0.061 OA 
BRANCH  11  13
HETATM   13  O   UNL     1      -9.479   5.768  69.045  1.00  0.00    -0.120 OA 
BRANCH  13  14
HETATM   14  C   UNL     1      -9.809   5.142  70.295  1.00  0.00    -0.225 C  
HETATM   15  C   UNL     1     -11.175   5.600  70.781  1.00  0.00    -0.098 C  
BRANCH  14  16
HETATM   16  O   UNL     1      -9.901   3.725  70.099  1.00  0.00    -0.188 OA 
BRANCH  16  17
HETATM   17  C   UNL     1      -9.431   3.014  71.152  1.00  0.00    -0.152 C  
HETATM   18  O   UNL     1     -10.077   2.706  72.144  1.00  0.00    -0.164 OA 
BRANCH  17  19
HETATM   19  O   UNL     1      -8.104   2.817  70.973  1.00  0.00    -0.052 OA 
BRANCH  19  20
HETATM   20  C   UNL     1      -7.316   2.897  72.171  1.00  0.00    -0.047 C  
HETATM   21  C   UNL     1      -6.133   1.954  72.046  1.00  0.00    -0.013 C  
ENDBRANCH  19  20
ENDBRANCH  17  19
ENDBRANCH  16  17
ENDBRANCH  14  16
ENDBRANCH  13  14
ENDBRANCH  11  13
ENDBRANCH   4  11
BRANCH   7  22
HETATM   22  N   UNL     1     -10.139  11.182  69.085  1.00  0.00    -0.383 N  
HETATM   23  H   UNL     1      -9.288  11.725  68.934  1.00  0.00     0.000 HD 
HETATM   24  C   UNL     1     -11.327  11.638  68.554  1.00  0.00    -0.274 C  
HETATM   25  O   UNL     1     -12.403  11.089  68.781  1.00  0.00    -0.533 OA 
BRANCH  24  26
HETATM   26  C   UNL     1     -11.190  12.898  67.668  1.00  0.00    -0.278 C  
HETATM   27  N   UNL     1     -12.080  13.976  68.178  1.00  0.00    -0.511 NA 
HETATM   28  H2  UNL     1     -11.909  14.180  69.163  1.00  0.00     0.000 HD 
HETATM   29  H1  UNL     1     -11.991  14.807  67.594  1.00  0.00     0.000 HD 
BRANCH  26  30
HETATM   30  C   UNL     1     -11.442  12.584  66.204  1.00  0.00    -0.426 A  
HETATM   31  C   UNL     1     -10.610  11.668  65.540  1.00  0.00    -0.329 A  
HETATM   32  C   UNL     1     -10.809  11.367  64.191  1.00  0.00    -0.431 A  
HETATM   33  C   UNL     1     -11.848  11.973  63.487  1.00  0.00    -0.587 A  
HETATM   34  C   UNL     1     -12.696  12.867  64.135  1.00  0.00    -0.256 A  
HETATM   35  C   UNL     1     -12.501  13.165  65.486  1.00  0.00    -0.516 A  
ENDBRANCH  26  30
ENDBRANCH  24  26
ENDBRANCH   7  22
TORSDOF 10
ENDMDL
MODEL      160
REMARK 921   NORMALIZED FREE ENERGY PREDICTED BY IDOCK:   -4.32 KCAL/MOL
REMARK 922        TOTAL FREE ENERGY PREDICTED BY IDOCK:   -8.11 KCAL/MOL
REMARK 923 INTER-LIGAND FREE ENERGY PREDICTED BY IDOCK:   -7.29 KCAL/MOL
REMARK 924 INTRA-LIGAND FREE ENERGY PREDICTED BY IDOCK:   -0.82 KCAL/MOL
REMARK 927      BINDING AFFINITY PREDICTED BY RF-SCORE:    0.00 PKD
ROOT
HETATM    1  C   UNL     1      -9.462  12.012  65.880  1.00  0.00    -0.197 C  
HETATM    2  S   UNL     1      -7.937  11.852  66.916  1.00  0.00    -0.091 SA 
HETATM    3  C   UNL     1      -8.534  10.346  67.811  1.00  0.00    -0.114 C  
HETATM    4  C   UNL     1      -9.643   9.747  66.922  1.00  0.00    -0.180 C  
HETATM    5  C   UNL     1      -7.363   9.404  68.094  1.00  0.00    -0.078 C  
HETATM    6  C   UNL     1      -9.085  10.820  69.173  1.00  0.00    -0.109 C  
HETATM    7  C   UNL     1     -10.591  12.946  66.399  1.00  0.00    -0.271 C  
HETATM    8  N   UNL     1     -10.309  10.867  66.258  1.00  0.00    -0.246 N  
HETATM    9  O   UNL     1     -12.056  11.332  67.748  1.00  0.00    -0.631 OA 
HETATM   10  C   UNL     1     -11.231  11.635  66.917  1.00  0.00    -0.313 C  
ENDROOT
BRANCH   4  11
HETATM   11  C   UNL     1      -9.191   8.761  65.824  1.00  0.00    -0.206 C  
HETATM   12  O   UNL     1      -8.450   9.018  64.883  1.00  0.00    -0.160 OA 
BRANCH  11  13
HETATM   13  O   UNL     1      -9.815   7.557  65.982  1.00  0.00     0.044 OA 
BRANCH  13  14
HETATM   14  C   UNL     1      -9.810   7.088  67.340  1.00  0.00    -0.154 C  
HETATM   15  C   UNL     1     -11.152   6.466  67.697  1.00  0.00    -0.388 C  
BRANCH  14  16
HETATM   16  O   UNL     1      -8.832   6.047  67.472  1.00  0.00    -0.112 OA 
BRANCH  16  17
HETATM   17  C   UNL     1      -8.622   5.372  66.318  1.00  0.00    -0.122 C  
HETATM   18  O   UNL     1      -9.347   4.497  65.866  1.00  0.00    -0.139 OA 
BRANCH  17  19
HETATM   19  O   UNL     1      -7.416   5.740  65.823  1.00  0.00    -0.075 OA 
BRANCH  19  20
HETATM   20  C   UNL     1      -6.371   5.850  66.801  1.00  0.00    -0.045 C  
HETATM   21  C   UNL     1      -5.721   4.489  66.980  1.00  0.00    -0.022 C  
ENDBRANCH  19  20
ENDBRANCH  17  19
ENDBRANCH  16  17
ENDBRANCH  14  16
ENDBRANCH  13  14
ENDBRANCH  11  13
ENDBRANCH   4  11
BRANCH   7  22
HETATM   22  N   UNL     1     -10.228  13.951  67.425  1.00  0.00    -0.250 N  
HETATM   23  H   UNL     1     -10.421  13.748  68.406  1.00  0.00     0.000 HD 
HETATM   24  C   UNL     1      -9.637  15.151  67.093  1.00  0.00    -0.218 C  
HETATM   25  O   UNL     1      -9.468  15.502  65.926  1.00  0.00    -0.331 OA 
BRANCH  24  26
HETATM   26  C   UNL     1      -9.222  16.018  68.305  1.00  0.00    -0.191 C  
HETATM   27  N   UNL     1     -10.052  15.663  69.489  1.00  0.00    -0.261 NA 
HETATM   28  H2  UNL     1     -10.012  14.666  69.700  1.00  0.00     0.000 HD 
HETATM   29  H1  UNL     1      -9.778  16.235  70.289  1.00  0.00     0.000 HD 
BRANCH  26  30
HETATM   30  C   UNL     1      -9.280  17.499  67.981  1.00  0.00    -0.275 A  
HETATM   31  C   UNL     1     -10.528  18.121  67.807  1.00  0.00    -0.421 A  
HETATM   32  C   UNL     1     -10.614  19.479  67.497  1.00  0.00    -0.599 A  
HETATM   33  C   UNL     1      -9.454  20.240  67.363  1.00  0.00    -0.547 A  
HETATM   34  C   UNL     1      -8.210  19.645  67.553  1.00  0.00    -0.332 A  
HETATM   35  C   UNL     1      -8.122  18.287  67.868  1.00  0.00    -0.260 A  
ENDBRANCH  26  30
ENDBRANCH  24  26
ENDBRANCH   7  22
TORSDOF 10
ENDMDL
MODEL      161
REMARK 921   NORMALIZED FREE ENERGY PREDICTED BY IDOCK:   -4.32 KCAL/MOL
REMARK 922        TOTAL FREE ENERGY PREDICTED BY IDOCK:   -8.11 KCAL/MOL
REMARK 923 INTER-LIGAND FREE ENERGY PREDICTED BY IDOCK:   -6.71 KCAL/MOL
REMARK 924 INTRA-LIGAND FREE ENERGY PREDICTED BY IDOCK:   -1.40 KCAL/MOL
REMARK 927      BINDING AFFINITY PREDICTED BY RF-SCORE:    0.00 PKD
ROOT
HETATM    1  C   UNL     1      -9.441   8.286  66.491  1.00  0.00    -0.220 C  
HETATM    2  S   UNL     1      -7.693   8.862  66.686  1.00  0.00    -0.100 SA 
HETATM    3  C   UNL     1      -7.368   7.820  68.181  1.00  0.00    -0.106 C  
HETATM    4  C   UNL     1      -8.439   6.711  68.155  1.00  0.00    -0.116 C  
HETATM    5  C   UNL     1      -5.925   7.316  68.168  1.00  0.00    -0.030 C  
HETATM    6  C   UNL     1      -7.525   8.738  69.412  1.00  0.00    -0.080 C  
HETATM    7  C   UNL     1     -10.559   9.141  67.150  1.00  0.00    -0.216 C  
HETATM    8  N   UNL     1      -9.643   7.294  67.561  1.00  0.00    -0.138 N  
HETATM    9  O   UNL     1     -10.788   8.052  69.459  1.00  0.00    -0.218 OA 
HETATM   10  C   UNL     1     -10.474   8.099  68.291  1.00  0.00    -0.160 C  
ENDROOT
BRANCH   4  11
HETATM   11  C   UNL     1      -8.097   5.439  67.350  1.00  0.00    -0.101 C  
HETATM   12  O   UNL     1      -8.200   5.303  66.137  1.00  0.00    -0.108 OA 
BRANCH  11  13
HETATM   13  O   UNL     1      -7.746   4.425  68.193  1.00  0.00    -0.078 OA 
BRANCH  13  14
HETATM   14  C   UNL     1      -8.864   3.849  68.887  1.00  0.00    -0.107 C  
HETATM   15  C   UNL     1      -9.442   2.684  68.100  1.00  0.00    -0.217 C  
BRANCH  14  16
HETATM   16  O   UNL     1      -8.412   3.311  70.137  1.00  0.00    -0.054 OA 
BRANCH  16  17
HETATM   17  C   UNL     1      -8.955   3.937  71.209  1.00  0.00    -0.107 C  
HETATM   18  O   UNL     1     -10.033   3.665  71.718  1.00  0.00    -0.174 OA 
BRANCH  17  19
HETATM   19  O   UNL     1      -8.163   4.987  71.534  1.00  0.00    -0.109 OA 
BRANCH  19  20
HETATM   20  C   UNL     1      -8.868   6.177  71.918  1.00  0.00    -0.137 C  
HETATM   21  C   UNL     1      -8.336   6.653  73.258  1.00  0.00    -0.126 C  
ENDBRANCH  19  20
ENDBRANCH  17  19
ENDBRANCH  16  17
ENDBRANCH  14  16
ENDBRANCH  13  14
ENDBRANCH  11  13
ENDBRANCH   4  11
BRANCH   7  22
HETATM   22  N   UNL     1     -10.227  10.539  67.509  1.00  0.00    -0.195 N  
HETATM   23  H   UNL     1      -9.298  10.900  67.289  1.00  0.00     0.000 HD 
HETATM   24  C   UNL     1     -11.136  11.367  68.132  1.00  0.00    -0.248 C  
HETATM   25  O   UNL     1     -12.235  10.970  68.515  1.00  0.00    -0.582 OA 
BRANCH  24  26
HETATM   26  C   UNL     1     -10.652  12.824  68.319  1.00  0.00    -0.238 C  
HETATM   27  N   UNL     1     -11.285  13.418  69.529  1.00  0.00    -0.449 NA 
HETATM   28  H2  UNL     1     -11.126  12.851  70.362  1.00  0.00     0.000 HD 
HETATM   29  H1  UNL     1     -10.967  14.379  69.653  1.00  0.00     0.000 HD 
BRANCH  26  30
HETATM   30  C   UNL     1     -10.889  13.658  67.074  1.00  0.00    -0.291 A  
HETATM   31  C   UNL     1     -12.041  13.435  66.301  1.00  0.00    -0.475 A  
HETATM   32  C   UNL     1     -12.282  14.178  65.144  1.00  0.00    -0.439 A  
HETATM   33  C   UNL     1     -11.378  15.160  64.744  1.00  0.00    -0.399 A  
HETATM   34  C   UNL     1     -10.242  15.410  65.510  1.00  0.00    -0.411 A  
HETATM   35  C   UNL     1     -10.003  14.671  66.671  1.00  0.00    -0.281 A  
ENDBRANCH  26  30
ENDBRANCH  24  26
ENDBRANCH   7  22
TORSDOF 10
ENDMDL
MODEL      162
REMARK 921   NORMALIZED FREE ENERGY PREDICTED BY IDOCK:   -4.31 KCAL/MOL
REMARK 922        TOTAL FREE ENERGY PREDICTED BY IDOCK:   -8.09 KCAL/MOL
REMARK 923 INTER-LIGAND FREE ENERGY PREDICTED BY IDOCK:   -7.06 KCAL/MOL
REMARK 924 INTRA-LIGAND FREE ENERGY PREDICTED BY IDOCK:   -1.03 KCAL/MOL
REMARK 927      BINDING AFFINITY PREDICTED BY RF-SCORE:    0.00 PKD
ROOT
HETATM    1  C   UNL     1      -8.543  12.004  68.056  1.00  0.00    -0.170 C  
HETATM    2  S   UNL     1      -8.414  11.270  66.361  1.00  0.00    -0.150 SA 
HETATM    3  C   UNL     1     -10.202  11.530  65.960  1.00  0.00    -0.242 C  
HETATM    4  C   UNL     1     -10.694  12.617  66.937  1.00  0.00    -0.242 C  
HETATM    5  C   UNL     1     -10.364  11.879  64.480  1.00  0.00    -0.334 C  
HETATM    6  C   UNL     1     -10.917  10.182  66.197  1.00  0.00     0.244 C  
HETATM    7  C   UNL     1      -8.800  11.034  69.243  1.00  0.00     0.109 C  
HETATM    8  N   UNL     1      -9.944  12.443  68.181  1.00  0.00    -0.211 N  
HETATM    9  O   UNL     1     -11.360  11.023  69.393  1.00  0.00    -0.235 OA 
HETATM   10  C   UNL     1     -10.278  11.465  69.079  1.00  0.00    -0.117 C  
ENDROOT
BRANCH   4  11
HETATM   11  C   UNL     1     -10.510  14.082  66.489  1.00  0.00    -0.281 C  
HETATM   12  O   UNL     1      -9.565  14.529  65.851  1.00  0.00    -0.301 OA 
BRANCH  11  13
HETATM   13  O   UNL     1     -11.514  14.860  66.988  1.00  0.00    -0.353 OA 
BRANCH  13  14
HETATM   14  C   UNL     1     -11.130  15.604  68.156  1.00  0.00    -0.330 C  
HETATM   15  C   UNL     1     -10.761  17.032  67.785  1.00  0.00    -0.318 C  
BRANCH  14  16
HETATM   16  O   UNL     1     -12.253  15.693  69.044  1.00  0.00    -0.277 OA 
BRANCH  16  17
HETATM   17  C   UNL     1     -11.943  15.361  70.320  1.00  0.00    -0.355 C  
HETATM   18  O   UNL     1     -11.335  16.070  71.110  1.00  0.00    -0.387 OA 
BRANCH  17  19
HETATM   19  O   UNL     1     -12.309  14.073  70.525  1.00  0.00    -0.324 OA 
BRANCH  19  20
HETATM   20  C   UNL     1     -13.112  13.854  71.695  1.00  0.00    -0.367 C  
HETATM   21  C   UNL     1     -14.371  14.696  71.592  1.00  0.00    -0.601 C  
ENDBRANCH  19  20
ENDBRANCH  17  19
ENDBRANCH  16  17
ENDBRANCH  14  16
ENDBRANCH  13  14
ENDBRANCH  11  13
ENDBRANCH   4  11
BRANCH   7  22
HETATM   22  N   UNL     1      -8.507   9.598  69.027  1.00  0.00    -0.125 N  
HETATM   23  H   UNL     1      -8.519   9.227  68.077  1.00  0.00     0.000 HD 
HETATM   24  C   UNL     1      -8.217   8.748  70.074  1.00  0.00    -0.120 C  
HETATM   25  O   UNL     1      -8.283   9.104  71.249  1.00  0.00    -0.290 OA 
BRANCH  24  26
HETATM   26  C   UNL     1      -7.821   7.316  69.645  1.00  0.00    -0.118 C  
HETATM   27  N   UNL     1      -8.086   7.130  68.192  1.00  0.00    -0.122 NA 
HETATM   28  H2  UNL     1      -7.625   7.842  67.624  1.00  0.00     0.000 HD 
HETATM   29  H1  UNL     1      -7.825   6.186  67.908  1.00  0.00     0.000 HD 
BRANCH  26  30
HETATM   30  C   UNL     1      -8.508   6.265  70.497  1.00  0.00    -0.138 A  
HETATM   31  C   UNL     1      -7.738   5.448  71.342  1.00  0.00    -0.108 A  
HETATM   32  C   UNL     1      -8.339   4.464  72.129  1.00  0.00    -0.108 A  
HETATM   33  C   UNL     1      -9.721   4.285  72.089  1.00  0.00    -0.221 A  
HETATM   34  C   UNL     1     -10.502   5.100  71.273  1.00  0.00    -0.245 A  
HETATM   35  C   UNL     1      -9.902   6.088  70.489  1.00  0.00    -0.222 A  
ENDBRANCH  26  30
ENDBRANCH  24  26
ENDBRANCH   7  22
TORSDOF 10
ENDMDL
MODEL      163
REMARK 921   NORMALIZED FREE ENERGY PREDICTED BY IDOCK:   -4.31 KCAL/MOL
REMARK 922        TOTAL FREE ENERGY PREDICTED BY IDOCK:   -8.08 KCAL/MOL
REMARK 923 INTER-LIGAND FREE ENERGY PREDICTED BY IDOCK:   -7.17 KCAL/MOL
REMARK 924 INTRA-LIGAND FREE ENERGY PREDICTED BY IDOCK:   -0.91 KCAL/MOL
REMARK 927      BINDING AFFINITY PREDICTED BY RF-SCORE:    0.00 PKD
ROOT
HETATM    1  C   UNL     1     -10.134   9.273  66.530  1.00  0.00    -0.273 C  
HETATM    2  S   UNL     1      -8.868   9.274  65.180  1.00  0.00    -0.195 SA 
HETATM    3  C   UNL     1      -7.427   9.246  66.341  1.00  0.00    -0.093 C  
HETATM    4  C   UNL     1      -7.983   8.728  67.683  1.00  0.00    -0.106 C  
HETATM    5  C   UNL     1      -6.292   8.407  65.752  1.00  0.00    -0.052 C  
HETATM    6  C   UNL     1      -6.914  10.698  66.456  1.00  0.00    -0.125 C  
HETATM    7  C   UNL     1     -10.679  10.648  67.007  1.00  0.00    -0.259 C  
HETATM    8  N   UNL     1      -9.363   9.203  67.783  1.00  0.00    -0.136 N  
HETATM    9  O   UNL     1      -9.086  11.227  68.930  1.00  0.00    -0.149 OA 
HETATM   10  C   UNL     1      -9.644  10.492  68.147  1.00  0.00    -0.154 C  
ENDROOT
BRANCH   4  11
HETATM   11  C   UNL     1      -8.007   7.197  67.875  1.00  0.00    -0.115 C  
HETATM   12  O   UNL     1      -7.264   6.550  68.603  1.00  0.00    -0.080 OA 
BRANCH  11  13
HETATM   13  O   UNL     1      -8.920   6.628  67.036  1.00  0.00    -0.114 OA 
BRANCH  13  14
HETATM   14  C   UNL     1      -9.679   5.574  67.652  1.00  0.00    -0.129 C  
HETATM   15  C   UNL     1     -10.873   6.142  68.404  1.00  0.00    -0.382 C  
BRANCH  14  16
HETATM   16  O   UNL     1     -10.211   4.722  66.629  1.00  0.00    -0.231 OA 
BRANCH  16  17
HETATM   17  C   UNL     1      -9.507   3.575  66.479  1.00  0.00    -0.153 C  
HETATM   18  O   UNL     1      -9.122   2.855  67.390  1.00  0.00    -0.149 OA 
BRANCH  17  19
HETATM   19  O   UNL     1      -9.198   3.434  65.168  1.00  0.00    -0.138 OA 
BRANCH  19  20
HETATM   20  C   UNL     1     -10.084   4.110  64.264  1.00  0.00    -0.122 C  
HETATM   21  C   UNL     1     -10.606   3.111  63.247  1.00  0.00    -0.238 C  
ENDBRANCH  19  20
ENDBRANCH  17  19
ENDBRANCH  16  17
ENDBRANCH  14  16
ENDBRANCH  13  14
ENDBRANCH  11  13
ENDBRANCH   4  11
BRANCH   7  22
HETATM   22  N   UNL     1     -10.492  11.808  66.104  1.00  0.00    -0.237 N  
HETATM   23  H   UNL     1      -9.860  11.718  65.308  1.00  0.00     0.000 HD 
HETATM   24  C   UNL     1     -11.149  13.003  66.307  1.00  0.00    -0.289 C  
HETATM   25  O   UNL     1     -11.846  13.211  67.298  1.00  0.00    -0.358 OA 
BRANCH  24  26
HETATM   26  C   UNL     1     -10.922  14.054  65.197  1.00  0.00    -0.353 C  
HETATM   27  N   UNL     1     -10.232  13.426  64.036  1.00  0.00    -0.752 NA 
HETATM   28  H2  UNL     1     -10.733  12.607  63.691  1.00  0.00     0.000 HD 
HETATM   29  H1  UNL     1     -10.082  14.120  63.303  1.00  0.00     0.000 HD 
BRANCH  26  30
HETATM   30  C   UNL     1     -10.180  15.271  65.720  1.00  0.00    -0.372 A  
HETATM   31  C   UNL     1     -10.778  16.539  65.624  1.00  0.00    -0.257 A  
HETATM   32  C   UNL     1     -10.116  17.679  66.085  1.00  0.00    -0.307 A  
HETATM   33  C   UNL     1      -8.850  17.568  66.655  1.00  0.00    -0.284 A  
HETATM   34  C   UNL     1      -8.252  16.317  66.778  1.00  0.00    -0.294 A  
HETATM   35  C   UNL     1      -8.915  15.175  66.322  1.00  0.00    -0.274 A  
ENDBRANCH  26  30
ENDBRANCH  24  26
ENDBRANCH   7  22
TORSDOF 10
ENDMDL
MODEL      164
REMARK 921   NORMALIZED FREE ENERGY PREDICTED BY IDOCK:   -4.29 KCAL/MOL
REMARK 922        TOTAL FREE ENERGY PREDICTED BY IDOCK:   -8.06 KCAL/MOL
REMARK 923 INTER-LIGAND FREE ENERGY PREDICTED BY IDOCK:   -6.52 KCAL/MOL
REMARK 924 INTRA-LIGAND FREE ENERGY PREDICTED BY IDOCK:   -1.54 KCAL/MOL
REMARK 927      BINDING AFFINITY PREDICTED BY RF-SCORE:    0.00 PKD
ROOT
HETATM    1  C   UNL     1      -9.774  10.789  66.361  1.00  0.00    -0.199 C  
HETATM    2  S   UNL     1     -10.654   9.372  67.162  1.00  0.00    -0.170 SA 
HETATM    3  C   UNL     1     -10.531  10.078  68.868  1.00  0.00    -0.210 C  
HETATM    4  C   UNL     1     -10.276  11.587  68.677  1.00  0.00    -0.208 C  
HETATM    5  C   UNL     1     -11.787   9.738  69.671  1.00  0.00     0.137 C  
HETATM    6  C   UNL     1      -9.340   9.379  69.559  1.00  0.00    -0.187 C  
HETATM    7  C   UNL     1      -8.240  10.657  66.147  1.00  0.00    -0.156 C  
HETATM    8  N   UNL     1      -9.486  11.734  67.454  1.00  0.00    -0.171 N  
HETATM    9  O   UNL     1      -7.300  11.694  68.295  1.00  0.00    -0.081 OA 
HETATM   10  C   UNL     1      -8.140  11.490  67.447  1.00  0.00    -0.146 C  
ENDROOT
BRANCH   4  11
HETATM   11  C   UNL     1     -11.523  12.484  68.532  1.00  0.00    -0.305 C  
HETATM   12  O   UNL     1     -12.216  12.601  67.529  1.00  0.00    -0.389 OA 
BRANCH  11  13
HETATM   13  O   UNL     1     -11.706  13.226  69.663  1.00  0.00    -0.293 OA 
BRANCH  13  14
HETATM   14  C   UNL     1     -11.981  14.611  69.396  1.00  0.00    -0.313 C  
HETATM   15  C   UNL     1     -12.784  15.227  70.531  1.00  0.00    -0.440 C  
BRANCH  14  16
HETATM   16  O   UNL     1     -10.742  15.331  69.338  1.00  0.00    -0.239 OA 
BRANCH  16  17
HETATM   17  C   UNL     1     -10.607  16.058  68.203  1.00  0.00    -0.286 C  
HETATM   18  O   UNL     1     -10.994  17.208  68.048  1.00  0.00    -0.362 OA 
BRANCH  17  19
HETATM   19  O   UNL     1     -10.091  15.256  67.242  1.00  0.00    -0.233 OA 
BRANCH  19  20
HETATM   20  C   UNL     1     -10.135  15.801  65.915  1.00  0.00    -0.356 C  
HETATM   21  C   UNL     1     -11.137  15.011  65.092  1.00  0.00    -0.408 C  
ENDBRANCH  19  20
ENDBRANCH  17  19
ENDBRANCH  16  17
ENDBRANCH  14  16
ENDBRANCH  13  14
ENDBRANCH  11  13
ENDBRANCH   4  11
BRANCH   7  22
HETATM   22  N   UNL     1      -7.660   9.294  66.193  1.00  0.00    -0.095 N  
HETATM   23  H   UNL     1      -7.244   8.963  67.063  1.00  0.00     0.000 HD 
HETATM   24  C   UNL     1      -7.666   8.463  65.093  1.00  0.00    -0.097 C  
HETATM   25  O   UNL     1      -8.059   8.833  63.988  1.00  0.00    -0.149 OA 
BRANCH  24  26
HETATM   26  C   UNL     1      -7.125   7.040  65.365  1.00  0.00    -0.068 C  
HETATM   27  N   UNL     1      -5.963   6.760  64.477  1.00  0.00    -0.035 NA 
HETATM   28  H2  UNL     1      -5.235   7.470  64.564  1.00  0.00     0.000 HD 
HETATM   29  H1  UNL     1      -5.606   5.821  64.655  1.00  0.00     0.000 HD 
BRANCH  26  30
HETATM   30  C   UNL     1      -8.216   5.992  65.236  1.00  0.00    -0.138 A  
HETATM   31  C   UNL     1      -9.241   5.940  66.195  1.00  0.00    -0.164 A  
HETATM   32  C   UNL     1     -10.252   4.980  66.111  1.00  0.00    -0.288 A  
HETATM   33  C   UNL     1     -10.257   4.061  65.063  1.00  0.00    -0.192 A  
HETATM   34  C   UNL     1      -9.260   4.112  64.092  1.00  0.00    -0.149 A  
HETATM   35  C   UNL     1      -8.251   5.075  64.172  1.00  0.00    -0.129 A  
ENDBRANCH  26  30
ENDBRANCH  24  26
ENDBRANCH   7  22
TORSDOF 10
ENDMDL
MODEL      165
REMARK 921   NORMALIZED FREE ENERGY PREDICTED BY IDOCK:   -4.29 KCAL/MOL
REMARK 922        TOTAL FREE ENERGY PREDICTED BY IDOCK:   -8.06 KCAL/MOL
REMARK 923 INTER-LIGAND FREE ENERGY PREDICTED BY IDOCK:   -8.20 KCAL/MOL
REMARK 924 INTRA-LIGAND FREE ENERGY PREDICTED BY IDOCK:    0.14 KCAL/MOL
REMARK 927      BINDING AFFINITY PREDICTED BY RF-SCORE:    0.00 PKD
ROOT
HETATM    1  C   UNL     1      -8.856  11.188  67.275  1.00  0.00    -0.144 C  
HETATM    2  S   UNL     1      -8.629  10.496  68.977  1.00  0.00    -0.145 SA 
HETATM    3  C   UNL     1     -10.069   9.340  68.850  1.00  0.00    -0.195 C  
HETATM    4  C   UNL     1     -10.339   9.176  67.340  1.00  0.00    -0.264 C  
HETATM    5  C   UNL     1      -9.765   8.037  69.590  1.00  0.00    -0.169 C  
HETATM    6  C   UNL     1     -11.254  10.015  69.573  1.00  0.00    -0.254 C  
HETATM    7  C   UNL     1      -9.699  12.486  67.132  1.00  0.00    -0.205 C  
HETATM    8  N   UNL     1      -9.996  10.449  66.705  1.00  0.00    -0.198 N  
HETATM    9  O   UNL     1     -12.056  11.562  66.731  1.00  0.00    -0.345 OA 
HETATM   10  C   UNL     1     -10.847  11.518  66.757  1.00  0.00    -0.282 C  
ENDROOT
BRANCH   4  11
HETATM   11  C   UNL     1      -9.547   8.069  66.613  1.00  0.00    -0.230 C  
HETATM   12  O   UNL     1      -9.478   6.892  66.947  1.00  0.00    -0.146 OA 
BRANCH  11  13
HETATM   13  O   UNL     1      -8.834   8.598  65.577  1.00  0.00    -0.183 OA 
BRANCH  13  14
HETATM   14  C   UNL     1      -7.424   8.336  65.663  1.00  0.00    -0.081 C  
HETATM   15  C   UNL     1      -7.124   6.890  65.299  1.00  0.00    -0.067 C  
BRANCH  14  16
HETATM   16  O   UNL     1      -6.737   9.148  64.701  1.00  0.00    -0.080 OA 
BRANCH  16  17
HETATM   17  C   UNL     1      -7.467   9.370  63.582  1.00  0.00    -0.111 C  
HETATM   18  O   UNL     1      -7.291   8.826  62.501  1.00  0.00    -0.100 OA 
BRANCH  17  19
HETATM   19  O   UNL     1      -8.332  10.382  63.832  1.00  0.00    -0.168 OA 
BRANCH  19  20
HETATM   20  C   UNL     1      -9.082  10.829  62.693  1.00  0.00    -0.318 C  
HETATM   21  C   UNL     1     -10.400  11.412  63.170  1.00  0.00    -0.357 C  
ENDBRANCH  19  20
ENDBRANCH  17  19
ENDBRANCH  16  17
ENDBRANCH  14  16
ENDBRANCH  13  14
ENDBRANCH  11  13
ENDBRANCH   4  11
BRANCH   7  22
HETATM   22  N   UNL     1      -9.901  13.307  68.349  1.00  0.00    -0.276 N  
HETATM   23  H   UNL     1      -9.381  13.074  69.195  1.00  0.00     0.000 HD 
HETATM   24  C   UNL     1     -10.773  14.374  68.371  1.00  0.00    -0.245 C  
HETATM   25  O   UNL     1     -11.505  14.648  67.421  1.00  0.00    -0.341 OA 
BRANCH  24  26
HETATM   26  C   UNL     1     -10.762  15.183  69.689  1.00  0.00    -0.278 C  
HETATM   27  N   UNL     1      -9.419  15.095  70.327  1.00  0.00    -0.293 NA 
HETATM   28  H2  UNL     1      -8.675  15.386  69.692  1.00  0.00     0.000 HD 
HETATM   29  H1  UNL     1      -9.411  15.628  71.196  1.00  0.00     0.000 HD 
BRANCH  26  30
HETATM   30  C   UNL     1     -11.875  14.746  70.624  1.00  0.00    -0.364 A  
HETATM   31  C   UNL     1     -12.027  13.383  70.929  1.00  0.00    -0.129 A  
HETATM   32  C   UNL     1     -13.049  12.949  71.776  1.00  0.00    -0.458 A  
HETATM   33  C   UNL     1     -13.930  13.871  72.337  1.00  0.00    -0.633 A  
HETATM   34  C   UNL     1     -13.780  15.228  72.063  1.00  0.00    -0.596 A  
HETATM   35  C   UNL     1     -12.756  15.664  71.219  1.00  0.00    -0.537 A  
ENDBRANCH  26  30
ENDBRANCH  24  26
ENDBRANCH   7  22
TORSDOF 10
ENDMDL
MODEL      166
REMARK 921   NORMALIZED FREE ENERGY PREDICTED BY IDOCK:   -4.26 KCAL/MOL
REMARK 922        TOTAL FREE ENERGY PREDICTED BY IDOCK:   -8.02 KCAL/MOL
REMARK 923 INTER-LIGAND FREE ENERGY PREDICTED BY IDOCK:   -7.40 KCAL/MOL
REMARK 924 INTRA-LIGAND FREE ENERGY PREDICTED BY IDOCK:   -0.62 KCAL/MOL
REMARK 927      BINDING AFFINITY PREDICTED BY RF-SCORE:    0.00 PKD
ROOT
HETATM    1  C   UNL     1     -10.534   8.426  67.418  1.00  0.00    -0.283 C  
HETATM    2  S   UNL     1     -10.570   7.688  69.115  1.00  0.00    -0.143 SA 
HETATM    3  C   UNL     1     -10.038   9.248  69.957  1.00  0.00    -0.212 C  
HETATM    4  C   UNL     1     -10.348  10.384  68.962  1.00  0.00    -0.214 C  
HETATM    5  C   UNL     1     -10.733   9.377  71.313  1.00  0.00    -0.421 C  
HETATM    6  C   UNL     1      -8.523   9.119  70.226  1.00  0.00    -0.208 C  
HETATM    7  C   UNL     1      -9.231   8.258  66.587  1.00  0.00    -0.179 C  
HETATM    8  N   UNL     1     -10.160   9.837  67.618  1.00  0.00    -0.178 N  
HETATM    9  O   UNL     1      -7.920  10.375  67.196  1.00  0.00    -0.112 OA 
HETATM   10  C   UNL     1      -8.910   9.689  67.082  1.00  0.00    -0.132 C  
ENDROOT
BRANCH   4  11
HETATM   11  C   UNL     1     -11.768  10.986  69.021  1.00  0.00    -0.333 C  
HETATM   12  O   UNL     1     -12.511  10.989  69.996  1.00  0.00    -0.305 OA 
BRANCH  11  13
HETATM   13  O   UNL     1     -12.142  11.441  67.790  1.00  0.00    -0.637 OA 
BRANCH  13  14
HETATM   14  C   UNL     1     -11.634  12.751  67.490  1.00  0.00    -0.356 C  
HETATM   15  C   UNL     1     -11.827  13.076  66.017  1.00  0.00    -0.471 C  
BRANCH  14  16
HETATM   16  O   UNL     1     -12.390  13.725  68.223  1.00  0.00    -0.242 OA 
BRANCH  16  17
HETATM   17  C   UNL     1     -11.611  14.665  68.809  1.00  0.00    -0.317 C  
HETATM   18  O   UNL     1     -11.114  15.628  68.242  1.00  0.00    -0.304 OA 
BRANCH  17  19
HETATM   19  O   UNL     1     -11.377  14.287  70.088  1.00  0.00    -0.225 OA 
BRANCH  19  20
HETATM   20  C   UNL     1     -11.342  15.363  71.038  1.00  0.00    -0.367 C  
HETATM   21  C   UNL     1     -12.756  15.639  71.518  1.00  0.00    -0.522 C  
ENDBRANCH  19  20
ENDBRANCH  17  19
ENDBRANCH  16  17
ENDBRANCH  14  16
ENDBRANCH  13  14
ENDBRANCH  11  13
ENDBRANCH   4  11
BRANCH   7  22
HETATM   22  N   UNL     1      -8.289   7.192  67.002  1.00  0.00    -0.117 N  
HETATM   23  H   UNL     1      -7.964   7.167  67.969  1.00  0.00     0.000 HD 
HETATM   24  C   UNL     1      -7.839   6.233  66.120  1.00  0.00    -0.105 C  
HETATM   25  O   UNL     1      -8.110   6.261  64.921  1.00  0.00    -0.126 OA 
BRANCH  24  26
HETATM   26  C   UNL     1      -6.959   5.135  66.762  1.00  0.00    -0.064 C  
HETATM   27  N   UNL     1      -5.869   4.746  65.825  1.00  0.00    -0.021 NA 
HETATM   28  H2  UNL     1      -5.319   5.550  65.523  1.00  0.00     0.000 HD 
HETATM   29  H1  UNL     1      -5.289   4.022  66.248  1.00  0.00     0.000 HD 
BRANCH  26  30
HETATM   30  C   UNL     1      -7.787   3.945  67.212  1.00  0.00    -0.087 A  
HETATM   31  C   UNL     1      -8.073   2.917  66.299  1.00  0.00    -0.083 A  
HETATM   32  C   UNL     1      -8.842   1.815  66.679  1.00  0.00    -0.128 A  
HETATM   33  C   UNL     1      -9.330   1.720  67.981  1.00  0.00    -0.222 A  
HETATM   34  C   UNL     1      -9.037   2.719  68.905  1.00  0.00    -0.207 A  
HETATM   35  C   UNL     1      -8.264   3.820  68.527  1.00  0.00    -0.083 A  
ENDBRANCH  26  30
ENDBRANCH  24  26
ENDBRANCH   7  22
TORSDOF 10
ENDMDL
MODEL      167
REMARK 921   NORMALIZED FREE ENERGY PREDICTED BY IDOCK:   -4.23 KCAL/MOL
REMARK 922        TOTAL FREE ENERGY PREDICTED BY IDOCK:   -7.97 KCAL/MOL
REMARK 923 INTER-LIGAND FREE ENERGY PREDICTED BY IDOCK:   -7.07 KCAL/MOL
REMARK 924 INTRA-LIGAND FREE ENERGY PREDICTED BY IDOCK:   -0.90 KCAL/MOL
REMARK 927      BINDING AFFINITY PREDICTED BY RF-SCORE:    0.00 PKD
ROOT
HETATM    1  C   UNL     1      -9.822   9.071  67.003  1.00  0.00    -0.209 C  
HETATM    2  S   UNL     1      -8.043   9.495  66.716  1.00  0.00    -0.109 SA 
HETATM    3  C   UNL     1      -7.755  10.066  68.453  1.00  0.00    -0.084 C  
HETATM    4  C   UNL     1      -8.883   9.433  69.292  1.00  0.00    -0.150 C  
HETATM    5  C   UNL     1      -6.340   9.696  68.900  1.00  0.00    -0.042 C  
HETATM    6  C   UNL     1      -7.845  11.607  68.441  1.00  0.00    -0.137 C  
HETATM    7  C   UNL     1     -10.884  10.156  66.668  1.00  0.00    -0.014 C  
HETATM    8  N   UNL     1     -10.062   9.353  68.429  1.00  0.00    -0.178 N  
HETATM    9  O   UNL     1     -11.139  11.377  68.907  1.00  0.00    -0.200 OA 
HETATM   10  C   UNL     1     -10.839  10.453  68.186  1.00  0.00    -0.264 C  
ENDROOT
BRANCH   4  11
HETATM   11  C   UNL     1      -8.620   8.018  69.847  1.00  0.00    -0.135 C  
HETATM   12  O   UNL     1      -7.710   7.696  70.602  1.00  0.00    -0.085 OA 
BRANCH  11  13
HETATM   13  O   UNL     1      -9.495   7.124  69.301  1.00  0.00    -0.153 OA 
BRANCH  13  14
HETATM   14  C   UNL     1     -10.107   6.261  70.274  1.00  0.00    -0.184 C  
HETATM   15  C   UNL     1     -11.419   6.854  70.766  1.00  0.00    -0.381 C  
BRANCH  14  16
HETATM   16  O   UNL     1     -10.435   5.012  69.650  1.00  0.00    -0.255 OA 
BRANCH  16  17
HETATM   17  C   UNL     1      -9.345   4.343  69.203  1.00  0.00    -0.155 C  
HETATM   18  O   UNL     1      -8.359   4.067  69.872  1.00  0.00    -0.060 OA 
BRANCH  17  19
HETATM   19  O   UNL     1      -9.482   4.149  67.870  1.00  0.00    -0.155 OA 
BRANCH  19  20
HETATM   20  C   UNL     1      -8.409   3.421  67.254  1.00  0.00    -0.092 C  
HETATM   21  C   UNL     1      -8.988   2.242  66.492  1.00  0.00    -0.123 C  
ENDBRANCH  19  20
ENDBRANCH  17  19
ENDBRANCH  16  17
ENDBRANCH  14  16
ENDBRANCH  13  14
ENDBRANCH  11  13
ENDBRANCH   4  11
BRANCH   7  22
HETATM   22  N   UNL     1     -10.473  11.259  65.769  1.00  0.00    -0.252 N  
HETATM   23  H   UNL     1      -9.529  11.257  65.382  1.00  0.00     0.000 HD 
HETATM   24  C   UNL     1     -11.330  12.289  65.441  1.00  0.00    -0.343 C  
HETATM   25  O   UNL     1     -12.443  12.407  65.948  1.00  0.00    -0.583 OA 
BRANCH  24  26
HETATM   26  C   UNL     1     -10.766  13.282  64.398  1.00  0.00    -0.415 C  
HETATM   27  N   UNL     1      -9.556  12.705  63.750  1.00  0.00    -0.572 NA 
HETATM   28  H2  UNL     1      -9.740  11.787  63.344  1.00  0.00     0.000 HD 
HETATM   29  H1  UNL     1      -9.183  13.360  63.062  1.00  0.00     0.000 HD 
BRANCH  26  30
HETATM   30  C   UNL     1     -10.499  14.645  65.010  1.00  0.00    -0.447 A  
HETATM   31  C   UNL     1     -11.237  15.757  64.570  1.00  0.00    -0.334 A  
HETATM   32  C   UNL     1     -11.007  17.026  65.105  1.00  0.00    -0.016 A  
HETATM   33  C   UNL     1     -10.039  17.203  66.092  1.00  0.00    -0.317 A  
HETATM   34  C   UNL     1      -9.313  16.108  66.554  1.00  0.00    -0.296 A  
HETATM   35  C   UNL     1      -9.546  14.837  66.024  1.00  0.00    -0.334 A  
ENDBRANCH  26  30
ENDBRANCH  24  26
ENDBRANCH   7  22
TORSDOF 10
ENDMDL
MODEL      168
REMARK 921   NORMALIZED FREE ENERGY PREDICTED BY IDOCK:   -4.22 KCAL/MOL
REMARK 922        TOTAL FREE ENERGY PREDICTED BY IDOCK:   -7.95 KCAL/MOL
REMARK 923 INTER-LIGAND FREE ENERGY PREDICTED BY IDOCK:   -7.39 KCAL/MOL
REMARK 924 INTRA-LIGAND FREE ENERGY PREDICTED BY IDOCK:   -0.57 KCAL/MOL
REMARK 927      BINDING AFFINITY PREDICTED BY RF-SCORE:    0.00 PKD
ROOT
HETATM    1  C   UNL     1     -10.677   9.776  67.853  1.00  0.00    -0.258 C  
HETATM    2  S   UNL     1      -9.492  10.268  69.186  1.00  0.00    -0.218 SA 
HETATM    3  C   UNL     1      -8.247  10.974  68.013  1.00  0.00    -0.123 C  
HETATM    4  C   UNL     1      -9.019  11.256  66.708  1.00  0.00    -0.171 C  
HETATM    5  C   UNL     1      -7.573  12.198  68.635  1.00  0.00    -0.097 C  
HETATM    6  C   UNL     1      -7.157   9.899  67.813  1.00  0.00    -0.087 C  
HETATM    7  C   UNL     1     -10.584   8.324  67.307  1.00  0.00    -0.265 C  
HETATM    8  N   UNL     1     -10.056  10.231  66.596  1.00  0.00    -0.215 N  
HETATM    9  O   UNL     1      -8.964   8.586  65.337  1.00  0.00    -0.178 OA 
HETATM   10  C   UNL     1      -9.760   8.967  66.165  1.00  0.00    -0.268 C  
ENDROOT
BRANCH   4  11
HETATM   11  C   UNL     1      -9.713  12.630  66.600  1.00  0.00    -0.249 C  
HETATM   12  O   UNL     1     -10.034  13.198  65.563  1.00  0.00    -0.272 OA 
BRANCH  11  13
HETATM   13  O   UNL     1      -9.842  13.195  67.836  1.00  0.00    -0.217 OA 
BRANCH  13  14
HETATM   14  C   UNL     1     -11.092  13.878  68.021  1.00  0.00    -0.259 C  
HETATM   15  C   UNL     1     -12.036  13.048  68.878  1.00  0.00    -0.303 C  
BRANCH  14  16
HETATM   16  O   UNL     1     -10.857  15.096  68.741  1.00  0.00    -0.231 OA 
BRANCH  16  17
HETATM   17  C   UNL     1     -10.722  16.172  67.928  1.00  0.00    -0.321 C  
HETATM   18  O   UNL     1     -10.698  16.137  66.706  1.00  0.00    -0.310 OA 
BRANCH  17  19
HETATM   19  O   UNL     1     -10.494  17.262  68.698  1.00  0.00    -0.335 OA 
BRANCH  19  20
HETATM   20  C   UNL     1     -10.283  18.480  67.970  1.00  0.00    -0.383 C  
HETATM   21  C   UNL     1      -8.828  18.893  68.114  1.00  0.00    -0.341 C  
ENDBRANCH  19  20
ENDBRANCH  17  19
ENDBRANCH  16  17
ENDBRANCH  14  16
ENDBRANCH  13  14
ENDBRANCH  11  13
ENDBRANCH   4  11
BRANCH   7  22
HETATM   22  N   UNL     1      -9.881   7.323  68.143  1.00  0.00    -0.145 N  
HETATM   23  H   UNL     1      -8.881   7.176  68.002  1.00  0.00     0.000 HD 
HETATM   24  C   UNL     1     -10.538   6.587  69.105  1.00  0.00    -0.243 C  
HETATM   25  O   UNL     1     -11.757   6.641  69.259  1.00  0.00    -0.189 OA 
BRANCH  24  26
HETATM   26  C   UNL     1      -9.618   5.682  69.957  1.00  0.00    -0.166 C  
HETATM   27  N   UNL     1     -10.012   4.256  69.790  1.00  0.00    -0.186 NA 
HETATM   28  H2  UNL     1     -10.024   3.975  68.809  1.00  0.00     0.000 HD 
HETATM   29  H1  UNL     1      -9.405   3.659  70.352  1.00  0.00     0.000 HD 
BRANCH  26  30
HETATM   30  C   UNL     1      -9.603   6.110  71.413  1.00  0.00    -0.177 A  
HETATM   31  C   UNL     1     -10.211   5.292  72.381  1.00  0.00    -0.243 A  
HETATM   32  C   UNL     1     -10.224   5.665  73.726  1.00  0.00    -0.245 A  
HETATM   33  C   UNL     1      -9.624   6.857  74.127  1.00  0.00    -0.308 A  
HETATM   34  C   UNL     1      -8.998   7.669  73.185  1.00  0.00    -0.244 A  
HETATM   35  C   UNL     1      -8.979   7.295  71.839  1.00  0.00    -0.138 A  
ENDBRANCH  26  30
ENDBRANCH  24  26
ENDBRANCH   7  22
TORSDOF 10
ENDMDL
MODEL      169
REMARK 921   NORMALIZED FREE ENERGY PREDICTED BY IDOCK:   -4.22 KCAL/MOL
REMARK 922        TOTAL FREE ENERGY PREDICTED BY IDOCK:   -7.95 KCAL/MOL
REMARK 923 INTER-LIGAND FREE ENERGY PREDICTED BY IDOCK:   -6.79 KCAL/MOL
REMARK 924 INTRA-LIGAND FREE ENERGY PREDICTED BY IDOCK:   -1.17 KCAL/MOL
REMARK 927      BINDING AFFINITY PREDICTED BY RF-SCORE:    0.00 PKD
ROOT
HETATM    1  C   UNL     1     -11.396   6.257  69.219  1.00  0.00    -0.341 C  
HETATM    2  S   UNL     1     -10.478   5.386  70.570  1.00  0.00    -0.239 SA 
HETATM    3  C   UNL     1      -9.782   6.942  71.291  1.00  0.00    -0.172 C  
HETATM    4  C   UNL     1     -10.687   8.080  70.777  1.00  0.00    -0.223 C  
HETATM    5  C   UNL     1      -9.702   6.826  72.814  1.00  0.00    -0.170 C  
HETATM    6  C   UNL     1      -8.337   7.076  70.763  1.00  0.00    -0.129 C  
HETATM    7  C   UNL     1     -10.686   6.404  67.844  1.00  0.00    -0.299 C  
HETATM    8  N   UNL     1     -11.143   7.691  69.443  1.00  0.00    -0.057 N  
HETATM    9  O   UNL     1      -9.509   8.669  68.079  1.00  0.00    -0.139 OA 
HETATM   10  C   UNL     1     -10.331   7.823  68.350  1.00  0.00    -0.196 C  
ENDROOT
BRANCH   4  11
HETATM   11  C   UNL     1     -11.940   8.400  71.619  1.00  0.00    -0.307 C  
HETATM   12  O   UNL     1     -12.879   7.643  71.833  1.00  0.00    -0.313 OA 
BRANCH  11  13
HETATM   13  O   UNL     1     -11.916   9.702  72.028  1.00  0.00    -0.332 OA 
BRANCH  13  14
HETATM   14  C   UNL     1     -12.452  10.613  71.056  1.00  0.00    -0.413 C  
HETATM   15  C   UNL     1     -13.268  11.703  71.734  1.00  0.00    -0.438 C  
BRANCH  14  16
HETATM   16  O   UNL     1     -11.369  11.274  70.387  1.00  0.00    -0.219 OA 
BRANCH  16  17
HETATM   17  C   UNL     1     -11.738  11.832  69.209  1.00  0.00    -0.335 C  
HETATM   18  O   UNL     1     -12.211  11.228  68.257  1.00  0.00    -0.611 OA 
BRANCH  17  19
HETATM   19  O   UNL     1     -11.376  13.137  69.224  1.00  0.00    -0.266 OA 
BRANCH  19  20
HETATM   20  C   UNL     1     -10.699  13.588  68.042  1.00  0.00    -0.251 C  
HETATM   21  C   UNL     1     -11.427  14.802  67.491  1.00  0.00    -0.369 C  
ENDBRANCH  19  20
ENDBRANCH  17  19
ENDBRANCH  16  17
ENDBRANCH  14  16
ENDBRANCH  13  14
ENDBRANCH  11  13
ENDBRANCH   4  11
BRANCH   7  22
HETATM   22  N   UNL     1      -9.545   5.501  67.566  1.00  0.00    -0.117 N  
HETATM   23  H   UNL     1      -8.695   5.590  68.123  1.00  0.00     0.000 HD 
HETATM   24  C   UNL     1      -9.599   4.544  66.575  1.00  0.00    -0.190 C  
HETATM   25  O   UNL     1     -10.550   4.448  65.802  1.00  0.00    -0.243 OA 
BRANCH  24  26
HETATM   26  C   UNL     1      -8.361   3.618  66.511  1.00  0.00    -0.104 C  
HETATM   27  N   UNL     1      -7.693   3.572  67.841  1.00  0.00    -0.068 NA 
HETATM   28  H2  UNL     1      -8.337   3.301  68.584  1.00  0.00     0.000 HD 
HETATM   29  H1  UNL     1      -6.876   2.962  67.800  1.00  0.00     0.000 HD 
BRANCH  26  30
HETATM   30  C   UNL     1      -7.411   4.027  65.401  1.00  0.00    -0.076 A  
HETATM   31  C   UNL     1      -6.992   3.070  64.462  1.00  0.00    -0.049 A  
HETATM   32  C   UNL     1      -6.109   3.413  63.436  1.00  0.00    -0.014 A  
HETATM   33  C   UNL     1      -5.636   4.720  63.329  1.00  0.00    -0.016 A  
HETATM   34  C   UNL     1      -6.059   5.686  64.238  1.00  0.00    -0.025 A  
HETATM   35  C   UNL     1      -6.946   5.346  65.262  1.00  0.00    -0.064 A  
ENDBRANCH  26  30
ENDBRANCH  24  26
ENDBRANCH   7  22
TORSDOF 10
ENDMDL
MODEL      170
REMARK 921   NORMALIZED FREE ENERGY PREDICTED BY IDOCK:   -4.22 KCAL/MOL
REMARK 922        TOTAL FREE ENERGY PREDICTED BY IDOCK:   -7.95 KCAL/MOL
REMARK 923 INTER-LIGAND FREE ENERGY PREDICTED BY IDOCK:   -7.30 KCAL/MOL
REMARK 924 INTRA-LIGAND FREE ENERGY PREDICTED BY IDOCK:   -0.65 KCAL/MOL
REMARK 927      BINDING AFFINITY PREDICTED BY RF-SCORE:    0.00 PKD
ROOT
HETATM    1  C   UNL     1     -10.007   8.467  66.547  1.00  0.00    -0.280 C  
HETATM    2  S   UNL     1      -8.355   8.556  65.717  1.00  0.00    -0.148 SA 
HETATM    3  C   UNL     1      -7.427   8.876  67.286  1.00  0.00    -0.084 C  
HETATM    4  C   UNL     1      -8.354   8.398  68.422  1.00  0.00    -0.131 C  
HETATM    5  C   UNL     1      -6.063   8.187  67.241  1.00  0.00    -0.054 C  
HETATM    6  C   UNL     1      -7.173  10.397  67.356  1.00  0.00    -0.091 C  
HETATM    7  C   UNL     1     -10.852   9.771  66.610  1.00  0.00     0.059 C  
HETATM    8  N   UNL     1      -9.728   8.643  67.983  1.00  0.00    -0.153 N  
HETATM    9  O   UNL     1     -10.128  10.782  68.852  1.00  0.00    -0.189 OA 
HETATM   10  C   UNL     1     -10.277   9.895  68.042  1.00  0.00    -0.182 C  
ENDROOT
BRANCH   4  11
HETATM   11  C   UNL     1      -8.253   6.909  68.815  1.00  0.00    -0.121 C  
HETATM   12  O   UNL     1      -7.906   5.991  68.083  1.00  0.00    -0.103 OA 
BRANCH  11  13
HETATM   13  O   UNL     1      -8.704   6.723  70.090  1.00  0.00    -0.139 OA 
BRANCH  13  14
HETATM   14  C   UNL     1     -10.110   6.433  70.159  1.00  0.00    -0.173 C  
HETATM   15  C   UNL     1     -10.375   4.978  69.807  1.00  0.00    -0.286 C  
BRANCH  14  16
HETATM   16  O   UNL     1     -10.559   6.612  71.509  1.00  0.00    -0.218 OA 
BRANCH  16  17
HETATM   17  C   UNL     1     -10.139   7.779  72.054  1.00  0.00    -0.191 C  
HETATM   18  O   UNL     1     -10.426   8.895  71.646  1.00  0.00    -0.284 OA 
BRANCH  17  19
HETATM   19  O   UNL     1      -9.255   7.495  73.040  1.00  0.00    -0.151 OA 
BRANCH  19  20
HETATM   20  C   UNL     1      -9.730   6.566  74.026  1.00  0.00    -0.248 C  
HETATM   21  C   UNL     1      -8.933   5.279  73.913  1.00  0.00    -0.120 C  
ENDBRANCH  19  20
ENDBRANCH  17  19
ENDBRANCH  16  17
ENDBRANCH  14  16
ENDBRANCH  13  14
ENDBRANCH  11  13
ENDBRANCH   4  11
BRANCH   7  22
HETATM   22  N   UNL     1     -10.503  10.857  65.664  1.00  0.00    -0.235 N  
HETATM   23  H   UNL     1      -9.666  10.762  65.088  1.00  0.00     0.000 HD 
HETATM   24  C   UNL     1     -11.276  11.991  65.541  1.00  0.00    -0.321 C  
HETATM   25  O   UNL     1     -12.238  12.216  66.273  1.00  0.00    -0.604 OA 
BRANCH  24  26
HETATM   26  C   UNL     1     -10.822  12.956  64.421  1.00  0.00    -0.380 C  
HETATM   27  N   UNL     1      -9.608  12.418  63.749  1.00  0.00    -0.655 NA 
HETATM   28  H2  UNL     1      -9.751  11.469  63.402  1.00  0.00     0.000 HD 
HETATM   29  H1  UNL     1      -9.307  13.054  63.010  1.00  0.00     0.000 HD 
BRANCH  26  30
HETATM   30  C   UNL     1     -10.615  14.366  64.945  1.00  0.00    -0.456 A  
HETATM   31  C   UNL     1      -9.640  14.602  65.928  1.00  0.00    -0.303 A  
HETATM   32  C   UNL     1      -9.434  15.885  66.438  1.00  0.00    -0.324 A  
HETATM   33  C   UNL     1     -10.195  16.954  65.969  1.00  0.00    -0.350 A  
HETATM   34  C   UNL     1     -11.152  16.742  64.979  1.00  0.00    -0.063 A  
HETATM   35  C   UNL     1     -11.355  15.459  64.464  1.00  0.00    -0.321 A  
ENDBRANCH  26  30
ENDBRANCH  24  26
ENDBRANCH   7  22
TORSDOF 10
ENDMDL
MODEL      171
REMARK 921   NORMALIZED FREE ENERGY PREDICTED BY IDOCK:   -4.19 KCAL/MOL
REMARK 922        TOTAL FREE ENERGY PREDICTED BY IDOCK:   -7.89 KCAL/MOL
REMARK 923 INTER-LIGAND FREE ENERGY PREDICTED BY IDOCK:   -6.61 KCAL/MOL
REMARK 924 INTRA-LIGAND FREE ENERGY PREDICTED BY IDOCK:   -1.28 KCAL/MOL
REMARK 927      BINDING AFFINITY PREDICTED BY RF-SCORE:    0.00 PKD
ROOT
HETATM    1  C   UNL     1     -10.495  10.514  66.745  1.00  0.00    -0.242 C  
HETATM    2  S   UNL     1      -8.688  10.156  66.926  1.00  0.00    -0.129 SA 
HETATM    3  C   UNL     1      -8.900   9.141  68.459  1.00  0.00    -0.129 C  
HETATM    4  C   UNL     1     -10.379   8.706  68.469  1.00  0.00    -0.196 C  
HETATM    5  C   UNL     1      -7.894   7.989  68.470  1.00  0.00    -0.115 C  
HETATM    6  C   UNL     1      -8.564  10.058  69.656  1.00  0.00    -0.198 C  
HETATM    7  C   UNL     1     -11.035  11.832  67.368  1.00  0.00    -0.262 C  
HETATM    8  N   UNL     1     -11.146   9.788  67.850  1.00  0.00    -0.186 N  
HETATM    9  O   UNL     1     -11.739  11.076  69.714  1.00  0.00    -0.273 OA 
HETATM   10  C   UNL     1     -11.459  10.923  68.547  1.00  0.00    -0.310 C  
ENDROOT
BRANCH   4  11
HETATM   11  C   UNL     1     -10.721   7.406  67.712  1.00  0.00    -0.179 C  
HETATM   12  O   UNL     1     -10.660   7.238  66.501  1.00  0.00    -0.162 OA 
BRANCH  11  13
HETATM   13  O   UNL     1     -11.208   6.468  68.577  1.00  0.00    -0.285 OA 
BRANCH  13  14
HETATM   14  C   UNL     1     -10.192   5.596  69.100  1.00  0.00    -0.236 C  
HETATM   15  C   UNL     1     -10.298   5.497  70.614  1.00  0.00    -0.332 C  
BRANCH  14  16
HETATM   16  O   UNL     1     -10.406   4.272  68.591  1.00  0.00     0.190 OA 
BRANCH  16  17
HETATM   17  C   UNL     1      -9.514   3.925  67.633  1.00  0.00    -0.185 C  
HETATM   18  O   UNL     1      -9.730   3.925  66.429  1.00  0.00    -0.203 OA 
BRANCH  17  19
HETATM   19  O   UNL     1      -8.396   3.461  68.241  1.00  0.00    -0.079 OA 
BRANCH  19  20
HETATM   20  C   UNL     1      -8.579   2.259  69.003  1.00  0.00    -0.072 C  
HETATM   21  C   UNL     1      -7.865   2.408  70.335  1.00  0.00    -0.047 C  
ENDBRANCH  19  20
ENDBRANCH  17  19
ENDBRANCH  16  17
ENDBRANCH  14  16
ENDBRANCH  13  14
ENDBRANCH  11  13
ENDBRANCH   4  11
BRANCH   7  22
HETATM   22  N   UNL     1     -10.050  12.894  67.678  1.00  0.00    -0.217 N  
HETATM   23  H   UNL     1      -9.662  12.950  68.620  1.00  0.00     0.000 HD 
HETATM   24  C   UNL     1      -9.642  13.808  66.730  1.00  0.00    -0.279 C  
HETATM   25  O   UNL     1     -10.141  13.861  65.607  1.00  0.00    -0.310 OA 
BRANCH  24  26
HETATM   26  C   UNL     1      -8.522  14.764  67.203  1.00  0.00    -0.223 C  
HETATM   27  N   UNL     1      -8.118  14.423  68.595  1.00  0.00    -0.145 NA 
HETATM   28  H2  UNL     1      -7.850  13.442  68.686  1.00  0.00     0.000 HD 
HETATM   29  H1  UNL     1      -7.380  15.053  68.908  1.00  0.00     0.000 HD 
BRANCH  26  30
HETATM   30  C   UNL     1      -8.929  16.219  67.060  1.00  0.00    -0.227 A  
HETATM   31  C   UNL     1      -8.088  17.107  66.369  1.00  0.00    -0.337 A  
HETATM   32  C   UNL     1      -8.428  18.454  66.231  1.00  0.00    -0.218 A  
HETATM   33  C   UNL     1      -9.618  18.933  66.775  1.00  0.00    -0.354 A  
HETATM   34  C   UNL     1     -10.474  18.062  67.444  1.00  0.00    -0.399 A  
HETATM   35  C   UNL     1     -10.137  16.713  67.579  1.00  0.00    -0.273 A  
ENDBRANCH  26  30
ENDBRANCH  24  26
ENDBRANCH   7  22
TORSDOF 10
ENDMDL
MODEL      172
REMARK 921   NORMALIZED FREE ENERGY PREDICTED BY IDOCK:   -4.15 KCAL/MOL
REMARK 922        TOTAL FREE ENERGY PREDICTED BY IDOCK:   -7.84 KCAL/MOL
REMARK 923 INTER-LIGAND FREE ENERGY PREDICTED BY IDOCK:   -7.14 KCAL/MOL
REMARK 924 INTRA-LIGAND FREE ENERGY PREDICTED BY IDOCK:   -0.70 KCAL/MOL
REMARK 927      BINDING AFFINITY PREDICTED BY RF-SCORE:    0.00 PKD
ROOT
HETATM    1  C   UNL     1     -10.046  11.304  66.486  1.00  0.00    -0.217 C  
HETATM    2  S   UNL     1     -11.659  11.807  67.241  1.00  0.00    -0.213 SA 
HETATM    3  C   UNL     1     -11.075  13.501  67.702  1.00  0.00    -0.269 C  
HETATM    4  C   UNL     1      -9.848  13.775  66.808  1.00  0.00    -0.275 C  
HETATM    5  C   UNL     1     -12.214  14.510  67.550  1.00  0.00    -0.156 C  
HETATM    6  C   UNL     1     -10.695  13.456  69.198  1.00  0.00    -0.097 C  
HETATM    7  C   UNL     1      -9.031  10.549  67.390  1.00  0.00    -0.135 C  
HETATM    8  N   UNL     1      -9.180  12.491  66.595  1.00  0.00    -0.227 N  
HETATM    9  O   UNL     1      -7.626  12.468  68.348  1.00  0.00    -0.118 OA 
HETATM   10  C   UNL     1      -8.376  11.942  67.557  1.00  0.00    -0.158 C  
ENDROOT
BRANCH   4  11
HETATM   11  C   UNL     1     -10.128  14.386  65.419  1.00  0.00    -0.359 C  
HETATM   12  O   UNL     1     -10.610  13.801  64.457  1.00  0.00    -0.423 OA 
BRANCH  11  13
HETATM   13  O   UNL     1      -9.668  15.670  65.365  1.00  0.00    -0.303 OA 
BRANCH  13  14
HETATM   14  C   UNL     1      -8.890  16.045  66.513  1.00  0.00    -0.305 C  
HETATM   15  C   UNL     1      -7.458  16.361  66.109  1.00  0.00     0.209 C  
BRANCH  14  16
HETATM   16  O   UNL     1      -9.430  17.250  67.071  1.00  0.00    -0.248 OA 
BRANCH  16  17
HETATM   17  C   UNL     1      -9.102  17.422  68.374  1.00  0.00    -0.274 C  
HETATM   18  O   UNL     1      -9.400  16.664  69.286  1.00  0.00    -0.212 OA 
BRANCH  17  19
HETATM   19  O   UNL     1      -8.502  18.629  68.507  1.00  0.00    -0.327 OA 
BRANCH  19  20
HETATM   20  C   UNL     1      -9.385  19.704  68.862  1.00  0.00    -0.281 C  
HETATM   21  C   UNL     1     -10.141  20.149  67.623  1.00  0.00    -0.542 C  
ENDBRANCH  19  20
ENDBRANCH  17  19
ENDBRANCH  16  17
ENDBRANCH  14  16
ENDBRANCH  13  14
ENDBRANCH  11  13
ENDBRANCH   4  11
BRANCH   7  22
HETATM   22  N   UNL     1      -9.554   9.916  68.623  1.00  0.00    -0.152 N  
HETATM   23  H   UNL     1      -9.248  10.271  69.529  1.00  0.00     0.000 HD 
HETATM   24  C   UNL     1     -10.441   8.862  68.580  1.00  0.00    -0.182 C  
HETATM   25  O   UNL     1     -10.772   8.321  67.526  1.00  0.00    -0.242 OA 
BRANCH  24  26
HETATM   26  C   UNL     1     -10.967   8.412  69.963  1.00  0.00    -0.194 C  
HETATM   27  N   UNL     1     -10.634   9.436  70.990  1.00  0.00    -0.308 NA 
HETATM   28  H2  UNL     1     -10.976  10.362  70.732  1.00  0.00     0.000 HD 
HETATM   29  H1  UNL     1     -10.980   9.140  71.903  1.00  0.00     0.000 HD 
BRANCH  26  30
HETATM   30  C   UNL     1     -10.456   7.032  70.335  1.00  0.00    -0.225 A  
HETATM   31  C   UNL     1      -9.196   6.614  69.878  1.00  0.00    -0.146 A  
HETATM   32  C   UNL     1      -8.703   5.347  70.194  1.00  0.00    -0.134 A  
HETATM   33  C   UNL     1      -9.461   4.479  70.978  1.00  0.00    -0.229 A  
HETATM   34  C   UNL     1     -10.703   4.885  71.458  1.00  0.00    -0.047 A  
HETATM   35  C   UNL     1     -11.195   6.155  71.147  1.00  0.00    -0.355 A  
ENDBRANCH  26  30
ENDBRANCH  24  26
ENDBRANCH   7  22
TORSDOF 10
ENDMDL
MODEL      173
REMARK 921   NORMALIZED FREE ENERGY PREDICTED BY IDOCK:   -4.15 KCAL/MOL
REMARK 922        TOTAL FREE ENERGY PREDICTED BY IDOCK:   -7.83 KCAL/MOL
REMARK 923 INTER-LIGAND FREE ENERGY PREDICTED BY IDOCK:   -7.20 KCAL/MOL
REMARK 924 INTRA-LIGAND FREE ENERGY PREDICTED BY IDOCK:   -0.64 KCAL/MOL
REMARK 927      BINDING AFFINITY PREDICTED BY RF-SCORE:    0.00 PKD
ROOT
HETATM    1  C   UNL     1     -10.414  10.201  68.032  1.00  0.00    -0.209 C  
HETATM    2  S   UNL     1      -8.837  10.653  68.888  1.00  0.00    -0.143 SA 
HETATM    3  C   UNL     1      -8.303  11.845  67.576  1.00  0.00    -0.158 C  
HETATM    4  C   UNL     1      -9.585  12.215  66.803  1.00  0.00    -0.211 C  
HETATM    5  C   UNL     1      -7.572  13.030  68.207  1.00  0.00    -0.135 C  
HETATM    6  C   UNL     1      -7.289  11.102  66.679  1.00  0.00    -0.145 C  
HETATM    7  C   UNL     1     -10.399   8.950  67.108  1.00  0.00    -0.281 C  
HETATM    8  N   UNL     1     -10.447  11.032  66.816  1.00  0.00    -0.241 N  
HETATM    9  O   UNL     1      -9.818   9.966  64.827  1.00  0.00    -0.307 OA 
HETATM   10  C   UNL     1     -10.221   9.982  65.968  1.00  0.00    -0.207 C  
ENDROOT
BRANCH   4  11
HETATM   11  C   UNL     1     -10.411  13.393  67.360  1.00  0.00    -0.240 C  
HETATM   12  O   UNL     1     -10.436  13.771  68.525  1.00  0.00    -0.235 OA 
BRANCH  11  13
HETATM   13  O   UNL     1     -11.206  13.918  66.383  1.00  0.00    -0.306 OA 
BRANCH  13  14
HETATM   14  C   UNL     1     -10.617  15.045  65.714  1.00  0.00    -0.339 C  
HETATM   15  C   UNL     1     -11.511  15.522  64.580  1.00  0.00    -0.311 C  
BRANCH  14  16
HETATM   16  O   UNL     1     -10.516  16.137  66.638  1.00  0.00    -0.301 OA 
BRANCH  16  17
HETATM   17  C   UNL     1      -9.825  17.189  66.138  1.00  0.00    -0.262 C  
HETATM   18  O   UNL     1      -8.658  17.161  65.773  1.00  0.00    -0.525 OA 
BRANCH  17  19
HETATM   19  O   UNL     1     -10.604  18.293  66.230  1.00  0.00    -0.384 OA 
BRANCH  19  20
HETATM   20  C   UNL     1      -9.924  19.532  65.980  1.00  0.00    -0.398 C  
HETATM   21  C   UNL     1      -9.710  20.250  67.301  1.00  0.00    -0.590 C  
ENDBRANCH  19  20
ENDBRANCH  17  19
ENDBRANCH  16  17
ENDBRANCH  14  16
ENDBRANCH  13  14
ENDBRANCH  11  13
ENDBRANCH   4  11
BRANCH   7  22
HETATM   22  N   UNL     1      -9.296   7.978  67.293  1.00  0.00    -0.140 N  
HETATM   23  H   UNL     1      -8.334   8.288  67.153  1.00  0.00     0.000 HD 
HETATM   24  C   UNL     1      -9.533   6.667  67.648  1.00  0.00    -0.124 C  
HETATM   25  O   UNL     1     -10.668   6.202  67.735  1.00  0.00    -0.244 OA 
BRANCH  24  26
HETATM   26  C   UNL     1      -8.256   5.836  67.912  1.00  0.00    -0.101 C  
HETATM   27  N   UNL     1      -7.047   6.657  67.626  1.00  0.00    -0.082 NA 
HETATM   28  H2  UNL     1      -7.048   7.534  68.147  1.00  0.00     0.000 HD 
HETATM   29  H1  UNL     1      -6.205   6.108  67.799  1.00  0.00     0.000 HD 
BRANCH  26  30
HETATM   30  C   UNL     1      -8.266   4.532  67.135  1.00  0.00    -0.101 A  
HETATM   31  C   UNL     1      -8.368   3.314  67.829  1.00  0.00    -0.095 A  
HETATM   32  C   UNL     1      -8.368   2.098  67.143  1.00  0.00    -0.088 A  
HETATM   33  C   UNL     1      -8.272   2.079  65.753  1.00  0.00    -0.089 A  
HETATM   34  C   UNL     1      -8.191   3.278  65.048  1.00  0.00    -0.094 A  
HETATM   35  C   UNL     1      -8.197   4.495  65.732  1.00  0.00    -0.110 A  
ENDBRANCH  26  30
ENDBRANCH  24  26
ENDBRANCH   7  22
TORSDOF 10
ENDMDL
MODEL      174
REMARK 921   NORMALIZED FREE ENERGY PREDICTED BY IDOCK:   -4.14 KCAL/MOL
REMARK 922        TOTAL FREE ENERGY PREDICTED BY IDOCK:   -7.82 KCAL/MOL
REMARK 923 INTER-LIGAND FREE ENERGY PREDICTED BY IDOCK:   -6.56 KCAL/MOL
REMARK 924 INTRA-LIGAND FREE ENERGY PREDICTED BY IDOCK:   -1.26 KCAL/MOL
REMARK 927      BINDING AFFINITY PREDICTED BY RF-SCORE:    0.00 PKD
ROOT
HETATM    1  C   UNL     1      -8.757   9.030  67.554  1.00  0.00    -0.119 C  
HETATM    2  S   UNL     1     -10.566   9.277  67.251  1.00  0.00    -0.173 SA 
HETATM    3  C   UNL     1     -10.610  10.955  68.032  1.00  0.00    -0.202 C  
HETATM    4  C   UNL     1      -9.150  11.453  68.029  1.00  0.00    -0.171 C  
HETATM    5  C   UNL     1     -11.595  11.856  67.287  1.00  0.00    -0.364 C  
HETATM    6  C   UNL     1     -11.149  10.769  69.467  1.00  0.00    -0.334 C  
HETATM    7  C   UNL     1      -8.339   8.278  68.848  1.00  0.00    -0.127 C  
HETATM    8  N   UNL     1      -8.298  10.275  68.193  1.00  0.00    -0.117 N  
HETATM    9  O   UNL     1      -8.037  10.198  70.520  1.00  0.00    -0.117 OA 
HETATM   10  C   UNL     1      -8.114   9.699  69.420  1.00  0.00    -0.118 C  
ENDROOT
BRANCH   4  11
HETATM   11  C   UNL     1      -8.676  12.194  66.762  1.00  0.00    -0.183 C  
HETATM   12  O   UNL     1      -7.963  11.733  65.879  1.00  0.00     0.239 OA 
BRANCH  11  13
HETATM   13  O   UNL     1      -9.083  13.497  66.794  1.00  0.00    -0.243 OA 
BRANCH  13  14
HETATM   14  C   UNL     1      -8.687  14.187  67.990  1.00  0.00    -0.177 C  
HETATM   15  C   UNL     1      -7.176  14.357  68.036  1.00  0.00    -0.146 C  
BRANCH  14  16
HETATM   16  O   UNL     1      -9.244  15.508  67.974  1.00  0.00    -0.186 OA 
BRANCH  16  17
HETATM   17  C   UNL     1     -10.464  15.574  68.559  1.00  0.00    -0.238 C  
HETATM   18  O   UNL     1     -11.371  16.323  68.225  1.00  0.00    -0.352 OA 
BRANCH  17  19
HETATM   19  O   UNL     1     -10.458  14.767  69.647  1.00  0.00    -0.201 OA 
BRANCH  19  20
HETATM   20  C   UNL     1     -11.365  15.155  70.690  1.00  0.00    -0.293 C  
HETATM   21  C   UNL     1     -12.497  14.146  70.757  1.00  0.00    -0.436 C  
ENDBRANCH  19  20
ENDBRANCH  17  19
ENDBRANCH  16  17
ENDBRANCH  14  16
ENDBRANCH  13  14
ENDBRANCH  11  13
ENDBRANCH   4  11
BRANCH   7  22
HETATM   22  N   UNL     1      -9.370   7.453  69.522  1.00  0.00    -0.156 N  
HETATM   23  H   UNL     1      -9.933   7.873  70.262  1.00  0.00     0.000 HD 
HETATM   24  C   UNL     1      -9.589   6.137  69.177  1.00  0.00    -0.135 C  
HETATM   25  O   UNL     1      -8.882   5.541  68.366  1.00  0.00    -0.108 OA 
BRANCH  24  26
HETATM   26  C   UNL     1     -10.783   5.476  69.903  1.00  0.00    -0.288 C  
HETATM   27  N   UNL     1     -11.956   6.392  69.890  1.00  0.00    -0.444 NA 
HETATM   28  H2  UNL     1     -12.199   6.689  68.944  1.00  0.00     0.000 HD 
HETATM   29  H1  UNL     1     -12.744   5.957  70.369  1.00  0.00     0.000 HD 
BRANCH  26  30
HETATM   30  C   UNL     1     -10.411   5.034  71.307  1.00  0.00    -0.255 A  
HETATM   31  C   UNL     1      -9.669   3.855  71.487  1.00  0.00    -0.247 A  
HETATM   32  C   UNL     1      -9.322   3.416  72.766  1.00  0.00    -0.140 A  
HETATM   33  C   UNL     1      -9.704   4.153  73.885  1.00  0.00    -0.144 A  
HETATM   34  C   UNL     1     -10.421   5.336  73.724  1.00  0.00    -0.304 A  
HETATM   35  C   UNL     1     -10.765   5.779  72.445  1.00  0.00    -0.280 A  
ENDBRANCH  26  30
ENDBRANCH  24  26
ENDBRANCH   7  22
TORSDOF 10
ENDMDL
MODEL      175
REMARK 921   NORMALIZED FREE ENERGY PREDICTED BY IDOCK:   -4.13 KCAL/MOL
REMARK 922        TOTAL FREE ENERGY PREDICTED BY IDOCK:   -7.81 KCAL/MOL
REMARK 923 INTER-LIGAND FREE ENERGY PREDICTED BY IDOCK:   -7.21 KCAL/MOL
REMARK 924 INTRA-LIGAND FREE ENERGY PREDICTED BY IDOCK:   -0.60 KCAL/MOL
REMARK 927      BINDING AFFINITY PREDICTED BY RF-SCORE:    0.00 PKD
ROOT
HETATM    1  C   UNL     1      -9.780  10.052  67.642  1.00  0.00    -0.158 C  
HETATM    2  S   UNL     1      -7.964   9.938  67.981  1.00  0.00    -0.101 SA 
HETATM    3  C   UNL     1      -7.507  11.213  66.719  1.00  0.00    -0.146 C  
HETATM    4  C   UNL     1      -8.793  12.023  66.462  1.00  0.00    -0.172 C  
HETATM    5  C   UNL     1      -6.318  12.039  67.213  1.00  0.00    -0.151 C  
HETATM    6  C   UNL     1      -7.047  10.452  65.457  1.00  0.00    -0.133 C  
HETATM    7  C   UNL     1     -10.387   9.049  66.621  1.00  0.00    -0.219 C  
HETATM    8  N   UNL     1      -9.917  11.099  66.614  1.00  0.00    -0.202 N  
HETATM    9  O   UNL     1     -10.213  10.345  64.416  1.00  0.00    -0.333 OA 
HETATM   10  C   UNL     1     -10.253  10.221  65.619  1.00  0.00    -0.231 C  
ENDROOT
BRANCH   4  11
HETATM   11  C   UNL     1      -9.052  13.223  67.397  1.00  0.00    -0.216 C  
HETATM   12  O   UNL     1      -9.299  13.165  68.595  1.00  0.00    -0.123 OA 
BRANCH  11  13
HETATM   13  O   UNL     1      -9.067  14.386  66.683  1.00  0.00    -0.260 OA 
BRANCH  13  14
HETATM   14  C   UNL     1     -10.308  15.102  66.787  1.00  0.00    -0.273 C  
HETATM   15  C   UNL     1     -11.451  14.280  66.210  1.00  0.00    -0.360 C  
BRANCH  14  16
HETATM   16  O   UNL     1     -10.615  15.306  68.173  1.00  0.00    -0.244 OA 
BRANCH  16  17
HETATM   17  C   UNL     1     -10.666  16.616  68.514  1.00  0.00    -0.351 C  
HETATM   18  O   UNL     1     -10.248  17.543  67.834  1.00  0.00    -0.315 OA 
BRANCH  17  19
HETATM   19  O   UNL     1     -11.137  16.708  69.780  1.00  0.00    -0.295 OA 
BRANCH  19  20
HETATM   20  C   UNL     1     -11.561  15.464  70.357  1.00  0.00    -0.324 C  
HETATM   21  C   UNL     1     -12.123  15.731  71.743  1.00  0.00    -0.541 C  
ENDBRANCH  19  20
ENDBRANCH  17  19
ENDBRANCH  16  17
ENDBRANCH  14  16
ENDBRANCH  13  14
ENDBRANCH  11  13
ENDBRANCH   4  11
BRANCH   7  22
HETATM   22  N   UNL     1      -9.605   7.829  66.315  1.00  0.00    -0.396 N  
HETATM   23  H   UNL     1      -8.716   7.922  65.822  1.00  0.00     0.000 HD 
HETATM   24  C   UNL     1     -10.043   6.573  66.677  1.00  0.00    -0.137 C  
HETATM   25  O   UNL     1     -11.147   6.380  67.182  1.00  0.00    -0.377 OA 
BRANCH  24  26
HETATM   26  C   UNL     1      -9.038   5.435  66.380  1.00  0.00    -0.141 C  
HETATM   27  N   UNL     1      -7.648   5.910  66.621  1.00  0.00    -0.094 NA 
HETATM   28  H2  UNL     1      -7.530   6.290  67.560  1.00  0.00     0.000 HD 
HETATM   29  H1  UNL     1      -6.985   5.160  66.425  1.00  0.00     0.000 HD 
BRANCH  26  30
HETATM   30  C   UNL     1      -9.223   4.874  64.982  1.00  0.00    -0.107 A  
HETATM   31  C   UNL     1      -8.296   5.199  63.978  1.00  0.00    -0.132 A  
HETATM   32  C   UNL     1      -8.445   4.708  62.680  1.00  0.00    -0.102 A  
HETATM   33  C   UNL     1      -9.520   3.879  62.366  1.00  0.00    -0.111 A  
HETATM   34  C   UNL     1     -10.437   3.529  63.354  1.00  0.00    -0.244 A  
HETATM   35  C   UNL     1     -10.286   4.015  64.655  1.00  0.00    -0.220 A  
ENDBRANCH  26  30
ENDBRANCH  24  26
ENDBRANCH   7  22
TORSDOF 10
ENDMDL
MODEL      176
REMARK 921   NORMALIZED FREE ENERGY PREDICTED BY IDOCK:   -4.13 KCAL/MOL
REMARK 922        TOTAL FREE ENERGY PREDICTED BY IDOCK:   -7.81 KCAL/MOL
REMARK 923 INTER-LIGAND FREE ENERGY PREDICTED BY IDOCK:   -6.57 KCAL/MOL
REMARK 924 INTRA-LIGAND FREE ENERGY PREDICTED BY IDOCK:   -1.24 KCAL/MOL
REMARK 927      BINDING AFFINITY PREDICTED BY RF-SCORE:    0.00 PKD
ROOT
HETATM    1  C   UNL     1     -10.410   8.597  68.076  1.00  0.00    -0.223 C  
HETATM    2  S   UNL     1      -9.528   8.500  66.452  1.00  0.00    -0.239 SA 
HETATM    3  C   UNL     1      -7.946   7.886  67.189  1.00  0.00    -0.117 C  
HETATM    4  C   UNL     1      -8.326   7.305  68.566  1.00  0.00    -0.125 C  
HETATM    5  C   UNL     1      -7.274   6.893  66.240  1.00  0.00    -0.071 C  
HETATM    6  C   UNL     1      -7.007   9.105  67.321  1.00  0.00    -0.078 C  
HETATM    7  C   UNL     1     -10.398   9.961  68.822  1.00  0.00    -0.203 C  
HETATM    8  N   UNL     1      -9.442   8.104  69.072  1.00  0.00    -0.154 N  
HETATM    9  O   UNL     1      -8.326   9.745  70.315  1.00  0.00    -0.189 OA 
HETATM   10  C   UNL     1      -9.236   9.336  69.631  1.00  0.00    -0.175 C  
ENDROOT
BRANCH   4  11
HETATM   11  C   UNL     1      -8.766   5.827  68.594  1.00  0.00    -0.108 C  
HETATM   12  O   UNL     1      -9.844   5.386  68.213  1.00  0.00    -0.135 OA 
BRANCH  11  13
HETATM   13  O   UNL     1      -7.816   5.060  69.204  1.00  0.00    -0.078 OA 
BRANCH  13  14
HETATM   14  C   UNL     1      -8.311   4.340  70.344  1.00  0.00    -0.065 C  
HETATM   15  C   UNL     1      -7.182   3.593  71.038  1.00  0.00    -0.033 C  
BRANCH  14  16
HETATM   16  O   UNL     1      -8.828   5.275  71.300  1.00  0.00    -0.133 OA 
BRANCH  16  17
HETATM   17  C   UNL     1      -9.781   4.740  72.100  1.00  0.00    -0.166 C  
HETATM   18  O   UNL     1     -10.242   3.612  71.995  1.00  0.00    -0.161 OA 
BRANCH  17  19
HETATM   19  O   UNL     1     -10.218   5.704  72.944  1.00  0.00    -0.176 OA 
BRANCH  19  20
HETATM   20  C   UNL     1     -11.119   6.655  72.358  1.00  0.00    -0.259 C  
HETATM   21  C   UNL     1     -10.618   8.057  72.659  1.00  0.00    -0.419 C  
ENDBRANCH  19  20
ENDBRANCH  17  19
ENDBRANCH  16  17
ENDBRANCH  14  16
ENDBRANCH  13  14
ENDBRANCH  11  13
ENDBRANCH   4  11
BRANCH   7  22
HETATM   22  N   UNL     1     -10.073  11.170  68.030  1.00  0.00    -0.170 N  
HETATM   23  H   UNL     1      -9.094  11.391  67.844  1.00  0.00     0.000 HD 
HETATM   24  C   UNL     1     -11.054  12.003  67.537  1.00  0.00    -0.275 C  
HETATM   25  O   UNL     1     -12.244  11.852  67.806  1.00  0.00    -0.508 OA 
BRANCH  24  26
HETATM   26  C   UNL     1     -10.529  13.144  66.634  1.00  0.00    -0.277 C  
HETATM   27  N   UNL     1      -9.298  12.704  65.923  1.00  0.00    -0.446 NA 
HETATM   28  H2  UNL     1      -9.446  11.840  65.401  1.00  0.00     0.000 HD 
HETATM   29  H1  UNL     1      -8.951  13.456  65.328  1.00  0.00     0.000 HD 
BRANCH  26  30
HETATM   30  C   UNL     1     -10.316  14.426  67.419  1.00  0.00    -0.252 A  
HETATM   31  C   UNL     1      -9.018  14.781  67.825  1.00  0.00    -0.182 A  
HETATM   32  C   UNL     1      -8.792  15.947  68.558  1.00  0.00    -0.195 A  
HETATM   33  C   UNL     1      -9.857  16.782  68.890  1.00  0.00    -0.264 A  
HETATM   34  C   UNL     1     -11.146  16.457  68.476  1.00  0.00    -0.357 A  
HETATM   35  C   UNL     1     -11.374  15.293  67.739  1.00  0.00    -0.331 A  
ENDBRANCH  26  30
ENDBRANCH  24  26
ENDBRANCH   7  22
TORSDOF 10
ENDMDL
MODEL      177
REMARK 921   NORMALIZED FREE ENERGY PREDICTED BY IDOCK:   -4.13 KCAL/MOL
REMARK 922        TOTAL FREE ENERGY PREDICTED BY IDOCK:   -7.80 KCAL/MOL
REMARK 923 INTER-LIGAND FREE ENERGY PREDICTED BY IDOCK:   -8.02 KCAL/MOL
REMARK 924 INTRA-LIGAND FREE ENERGY PREDICTED BY IDOCK:    0.21 KCAL/MOL
REMARK 927      BINDING AFFINITY PREDICTED BY RF-SCORE:    0.00 PKD
ROOT
HETATM    1  C   UNL     1      -9.355  13.643  67.257  1.00  0.00    -0.233 C  
HETATM    2  S   UNL     1     -10.172  13.154  65.670  1.00  0.00    -0.274 SA 
HETATM    3  C   UNL     1     -11.447  14.494  65.750  1.00  0.00    -0.342 C  
HETATM    4  C   UNL     1     -10.877  15.552  66.717  1.00  0.00    -0.291 C  
HETATM    5  C   UNL     1     -11.756  15.011  64.345  1.00  0.00    -0.320 C  
HETATM    6  C   UNL     1     -12.739  13.853  66.301  1.00  0.00    -0.260 C  
HETATM    7  C   UNL     1      -9.817  12.925  68.556  1.00  0.00    -0.144 C  
HETATM    8  N   UNL     1     -10.089  14.834  67.719  1.00  0.00    -0.223 N  
HETATM    9  O   UNL     1     -11.678  14.472  69.401  1.00  0.00    -0.281 OA 
HETATM   10  C   UNL     1     -10.691  14.185  68.762  1.00  0.00    -0.256 C  
ENDROOT
BRANCH   4  11
HETATM   11  C   UNL     1      -9.964  16.632  66.098  1.00  0.00    -0.337 C  
HETATM   12  O   UNL     1     -10.315  17.740  65.712  1.00  0.00    -0.570 OA 
BRANCH  11  13
HETATM   13  O   UNL     1      -8.698  16.148  65.939  1.00  0.00    -0.328 OA 
BRANCH  13  14
HETATM   14  C   UNL     1      -7.696  16.958  66.575  1.00  0.00    -0.291 C  
HETATM   15  C   UNL     1      -6.694  17.472  65.553  1.00  0.00     0.303 C  
BRANCH  14  16
HETATM   16  O   UNL     1      -8.323  18.115  67.146  1.00  0.00    -0.230 OA 
BRANCH  16  17
HETATM   17  C   UNL     1      -7.879  18.393  68.395  1.00  0.00    -0.306 C  
HETATM   18  O   UNL     1      -7.234  17.633  69.104  1.00  0.00    -0.236 OA 
BRANCH  17  19
HETATM   19  O   UNL     1      -8.377  19.597  68.765  1.00  0.00    -0.333 OA 
BRANCH  19  20
HETATM   20  C   UNL     1      -9.805  19.710  68.678  1.00  0.00    -0.427 C  
HETATM   21  C   UNL     1     -10.155  20.663  67.549  1.00  0.00    -0.346 C  
ENDBRANCH  19  20
ENDBRANCH  17  19
ENDBRANCH  16  17
ENDBRANCH  14  16
ENDBRANCH  13  14
ENDBRANCH  11  13
ENDBRANCH   4  11
BRANCH   7  22
HETATM   22  N   UNL     1     -10.539  11.640  68.406  1.00  0.00    -0.202 N  
HETATM   23  H   UNL     1     -11.449  11.635  67.945  1.00  0.00     0.000 HD 
HETATM   24  C   UNL     1     -10.017  10.452  68.871  1.00  0.00    -0.199 C  
HETATM   25  O   UNL     1      -8.976  10.400  69.522  1.00  0.00    -0.182 OA 
BRANCH  24  26
HETATM   26  C   UNL     1     -10.857   9.203  68.517  1.00  0.00    -0.043 C  
HETATM   27  N   UNL     1     -11.253   8.488  69.762  1.00  0.00    -0.445 NA 
HETATM   28  H2  UNL     1     -11.737   9.102  70.418  1.00  0.00     0.000 HD 
HETATM   29  H1  UNL     1     -11.807   7.664  69.530  1.00  0.00     0.000 HD 
BRANCH  26  30
HETATM   30  C   UNL     1     -10.132   8.298  67.538  1.00  0.00    -0.287 A  
HETATM   31  C   UNL     1     -10.667   7.034  67.237  1.00  0.00    -0.412 A  
HETATM   32  C   UNL     1     -10.017   6.175  66.349  1.00  0.00    -0.130 A  
HETATM   33  C   UNL     1      -8.826   6.567  65.743  1.00  0.00    -0.097 A  
HETATM   34  C   UNL     1      -8.292   7.825  66.013  1.00  0.00    -0.134 A  
HETATM   35  C   UNL     1      -8.944   8.688  66.897  1.00  0.00    -0.161 A  
ENDBRANCH  26  30
ENDBRANCH  24  26
ENDBRANCH   7  22
TORSDOF 10
ENDMDL
MODEL      178
REMARK 921   NORMALIZED FREE ENERGY PREDICTED BY IDOCK:   -4.11 KCAL/MOL
REMARK 922        TOTAL FREE ENERGY PREDICTED BY IDOCK:   -7.78 KCAL/MOL
REMARK 923 INTER-LIGAND FREE ENERGY PREDICTED BY IDOCK:   -6.67 KCAL/MOL
REMARK 924 INTRA-LIGAND FREE ENERGY PREDICTED BY IDOCK:   -1.11 KCAL/MOL
REMARK 927      BINDING AFFINITY PREDICTED BY RF-SCORE:    0.00 PKD
ROOT
HETATM    1  C   UNL     1      -8.670   9.166  67.544  1.00  0.00    -0.119 C  
HETATM    2  S   UNL     1      -8.943  10.122  69.106  1.00  0.00    -0.184 SA 
HETATM    3  C   UNL     1      -9.691   8.693  70.015  1.00  0.00    -0.171 C  
HETATM    4  C   UNL     1      -9.233   7.432  69.255  1.00  0.00    -0.147 C  
HETATM    5  C   UNL     1      -9.284   8.736  71.488  1.00  0.00    -0.332 C  
HETATM    6  C   UNL     1     -11.223   8.874  69.953  1.00  0.00    -0.076 C  
HETATM    7  C   UNL     1      -9.774   9.239  66.453  1.00  0.00    -0.258 C  
HETATM    8  N   UNL     1      -9.129   7.799  67.843  1.00  0.00    -0.132 N  
HETATM    9  O   UNL     1     -11.261   7.237  67.049  1.00  0.00    -0.221 OA 
HETATM   10  C   UNL     1     -10.242   7.890  67.051  1.00  0.00    -0.312 C  
ENDROOT
BRANCH   4  11
HETATM   11  C   UNL     1      -7.878   6.826  69.676  1.00  0.00    -0.115 C  
HETATM   12  O   UNL     1      -6.784   7.101  69.197  1.00  0.00    -0.046 OA 
BRANCH  11  13
HETATM   13  O   UNL     1      -8.064   5.848  70.609  1.00  0.00    -0.113 OA 
BRANCH  13  14
HETATM   14  C   UNL     1      -7.115   4.775  70.506  1.00  0.00    -0.048 C  
HETATM   15  C   UNL     1      -6.540   4.434  71.872  1.00  0.00    -0.023 C  
BRANCH  14  16
HETATM   16  O   UNL     1      -7.790   3.596  70.044  1.00  0.00    -0.047 OA 
BRANCH  16  17
HETATM   17  C   UNL     1      -7.095   2.929  69.092  1.00  0.00    -0.044 C  
HETATM   18  O   UNL     1      -5.877   2.834  69.039  1.00  0.00    -0.022 OA 
BRANCH  17  19
HETATM   19  O   UNL     1      -7.968   2.498  68.151  1.00  0.00    -0.058 OA 
BRANCH  19  20
HETATM   20  C   UNL     1      -9.234   3.175  68.149  1.00  0.00    -0.195 C  
HETATM   21  C   UNL     1      -9.380   3.940  66.845  1.00  0.00    -0.208 C  
ENDBRANCH  19  20
ENDBRANCH  17  19
ENDBRANCH  16  17
ENDBRANCH  14  16
ENDBRANCH  13  14
ENDBRANCH  11  13
ENDBRANCH   4  11
BRANCH   7  22
HETATM   22  N   UNL     1     -10.738  10.362  66.531  1.00  0.00    -0.144 N  
HETATM   23  H   UNL     1     -11.198  10.558  67.420  1.00  0.00     0.000 HD 
HETATM   24  C   UNL     1     -11.031  11.148  65.437  1.00  0.00    -0.081 C  
HETATM   25  O   UNL     1     -10.590  10.906  64.314  1.00  0.00    -0.368 OA 
BRANCH  24  26
HETATM   26  C   UNL     1     -11.965  12.342  65.739  1.00  0.00    -0.372 C  
HETATM   27  N   UNL     1     -13.103  12.352  64.778  1.00  0.00    -0.735 NA 
HETATM   28  H2  UNL     1     -13.606  11.464  64.771  1.00  0.00     0.000 HD 
HETATM   29  H1  UNL     1     -13.720  13.140  64.977  1.00  0.00     0.000 HD 
BRANCH  26  30
HETATM   30  C   UNL     1     -11.208  13.658  65.751  1.00  0.00    -0.302 A  
HETATM   31  C   UNL     1     -10.072  13.794  66.566  1.00  0.00    -0.286 A  
HETATM   32  C   UNL     1      -9.362  14.995  66.608  1.00  0.00    -0.290 A  
HETATM   33  C   UNL     1      -9.772  16.077  65.831  1.00  0.00    -0.378 A  
HETATM   34  C   UNL     1     -10.883  15.952  65.000  1.00  0.00    -0.444 A  
HETATM   35  C   UNL     1     -11.591  14.749  64.953  1.00  0.00    -0.401 A  
ENDBRANCH  26  30
ENDBRANCH  24  26
ENDBRANCH   7  22
TORSDOF 10
ENDMDL
MODEL      179
REMARK 921   NORMALIZED FREE ENERGY PREDICTED BY IDOCK:   -4.09 KCAL/MOL
REMARK 922        TOTAL FREE ENERGY PREDICTED BY IDOCK:   -7.74 KCAL/MOL
REMARK 923 INTER-LIGAND FREE ENERGY PREDICTED BY IDOCK:   -7.80 KCAL/MOL
REMARK 924 INTRA-LIGAND FREE ENERGY PREDICTED BY IDOCK:    0.05 KCAL/MOL
REMARK 927      BINDING AFFINITY PREDICTED BY RF-SCORE:    0.00 PKD
ROOT
HETATM    1  C   UNL     1      -9.054   9.548  67.614  1.00  0.00    -0.120 C  
HETATM    2  S   UNL     1      -7.351   8.876  67.343  1.00  0.00    -0.081 SA 
HETATM    3  C   UNL     1      -6.922  10.107  66.030  1.00  0.00    -0.117 C  
HETATM    4  C   UNL     1      -7.907  11.279  66.220  1.00  0.00    -0.069 C  
HETATM    5  C   UNL     1      -5.445  10.491  66.130  1.00  0.00    -0.080 C  
HETATM    6  C   UNL     1      -7.125   9.404  64.670  1.00  0.00    -0.100 C  
HETATM    7  C   UNL     1     -10.221   8.893  66.824  1.00  0.00    -0.278 C  
HETATM    8  N   UNL     1      -9.162  10.705  66.709  1.00  0.00    -0.155 N  
HETATM    9  O   UNL     1     -10.326  10.339  64.710  1.00  0.00    -0.277 OA 
HETATM   10  C   UNL     1     -10.037  10.088  65.858  1.00  0.00    -0.249 C  
ENDROOT
BRANCH   4  11
HETATM   11  C   UNL     1      -7.485  12.381  67.214  1.00  0.00    -0.135 C  
HETATM   12  O   UNL     1      -6.409  12.966  67.230  1.00  0.00    -0.217 OA 
BRANCH  11  13
HETATM   13  O   UNL     1      -8.451  12.561  68.162  1.00  0.00    -0.168 OA 
BRANCH  13  14
HETATM   14  C   UNL     1      -9.096  13.842  68.080  1.00  0.00    -0.191 C  
HETATM   15  C   UNL     1      -8.171  14.941  68.578  1.00  0.00    -0.153 C  
BRANCH  14  16
HETATM   16  O   UNL     1      -9.375  14.138  66.704  1.00  0.00    -0.272 OA 
BRANCH  16  17
HETATM   17  C   UNL     1     -10.680  14.425  66.480  1.00  0.00    -0.306 C  
HETATM   18  O   UNL     1     -11.322  15.296  67.051  1.00  0.00    -0.317 OA 
BRANCH  17  19
HETATM   19  O   UNL     1     -11.175  13.507  65.617  1.00  0.00    -0.293 OA 
BRANCH  19  20
HETATM   20  C   UNL     1     -11.801  14.057  64.447  1.00  0.00    -0.431 C  
HETATM   21  C   UNL     1     -12.101  12.929  63.475  1.00  0.00    -0.633 C  
ENDBRANCH  19  20
ENDBRANCH  17  19
ENDBRANCH  16  17
ENDBRANCH  14  16
ENDBRANCH  13  14
ENDBRANCH  11  13
ENDBRANCH   4  11
BRANCH   7  22
HETATM   22  N   UNL     1      -9.988   7.545  66.254  1.00  0.00    -0.459 N  
HETATM   23  H   UNL     1      -9.379   7.450  65.442  1.00  0.00     0.000 HD 
HETATM   24  C   UNL     1     -10.571   6.417  66.791  1.00  0.00    -0.258 C  
HETATM   25  O   UNL     1     -11.392   6.470  67.706  1.00  0.00    -0.258 OA 
BRANCH  24  26
HETATM   26  C   UNL     1     -10.117   5.090  66.139  1.00  0.00    -0.236 C  
HETATM   27  N   UNL     1     -11.227   4.517  65.329  1.00  0.00    -1.016 NA 
HETATM   28  H2  UNL     1     -11.580   5.182  64.640  1.00  0.00     0.000 HD 
HETATM   29  H1  UNL     1     -10.928   3.642  64.898  1.00  0.00     0.000 HD 
BRANCH  26  30
HETATM   30  C   UNL     1      -9.589   4.110  67.170  1.00  0.00    -0.229 A  
HETATM   31  C   UNL     1      -9.351   4.549  68.484  1.00  0.00    -0.198 A  
HETATM   32  C   UNL     1      -8.854   3.675  69.452  1.00  0.00    -0.150 A  
HETATM   33  C   UNL     1      -8.594   2.345  69.124  1.00  0.00    -0.115 A  
HETATM   34  C   UNL     1      -8.844   1.888  67.833  1.00  0.00    -0.152 A  
HETATM   35  C   UNL     1      -9.346   2.760  66.865  1.00  0.00    -0.086 A  
ENDBRANCH  26  30
ENDBRANCH  24  26
ENDBRANCH   7  22
TORSDOF 10
ENDMDL
MODEL      180
REMARK 921   NORMALIZED FREE ENERGY PREDICTED BY IDOCK:   -4.08 KCAL/MOL
REMARK 922        TOTAL FREE ENERGY PREDICTED BY IDOCK:   -7.73 KCAL/MOL
REMARK 923 INTER-LIGAND FREE ENERGY PREDICTED BY IDOCK:   -7.62 KCAL/MOL
REMARK 924 INTRA-LIGAND FREE ENERGY PREDICTED BY IDOCK:   -0.11 KCAL/MOL
REMARK 927      BINDING AFFINITY PREDICTED BY RF-SCORE:    0.00 PKD
ROOT
HETATM    1  C   UNL     1      -8.513  15.766  67.966  1.00  0.00    -0.161 C  
HETATM    2  S   UNL     1      -9.052  15.217  66.283  1.00  0.00    -0.267 SA 
HETATM    3  C   UNL     1     -10.765  15.897  66.456  1.00  0.00    -0.258 C  
HETATM    4  C   UNL     1     -10.683  16.947  67.583  1.00  0.00    -0.290 C  
HETATM    5  C   UNL     1     -11.255  16.437  65.113  1.00  0.00    -0.070 C  
HETATM    6  C   UNL     1     -11.681  14.715  66.841  1.00  0.00    -0.366 C  
HETATM    7  C   UNL     1      -8.642  14.746  69.132  1.00  0.00    -0.089 C  
HETATM    8  N   UNL     1      -9.673  16.477  68.531  1.00  0.00    -0.231 N  
HETATM    9  O   UNL     1     -10.977  15.265  70.053  1.00  0.00    -0.254 OA 
HETATM   10  C   UNL     1      -9.958  15.499  69.444  1.00  0.00    -0.277 C  
ENDROOT
BRANCH   4  11
HETATM   11  C   UNL     1     -10.293  18.380  67.164  1.00  0.00    -0.394 C  
HETATM   12  O   UNL     1     -11.059  19.326  67.025  1.00  0.00    -0.391 OA 
BRANCH  11  13
HETATM   13  O   UNL     1      -8.963  18.441  66.865  1.00  0.00    -0.264 OA 
BRANCH  13  14
HETATM   14  C   UNL     1      -8.427  19.773  66.924  1.00  0.00    -0.320 C  
HETATM   15  C   UNL     1      -7.330  19.865  67.972  1.00  0.00    -0.332 C  
BRANCH  14  16
HETATM   16  O   UNL     1      -7.814  20.086  65.665  1.00  0.00    -0.305 OA 
BRANCH  16  17
HETATM   17  C   UNL     1      -6.499  19.765  65.625  1.00  0.00    -0.241 C  
HETATM   18  O   UNL     1      -5.574  20.537  65.833  1.00  0.00    -0.176 OA 
BRANCH  17  19
HETATM   19  O   UNL     1      -6.386  18.485  65.195  1.00  0.00    -0.371 OA 
BRANCH  19  20
HETATM   20  C   UNL     1      -5.186  17.815  65.607  1.00  0.00    -0.125 C  
HETATM   21  C   UNL     1      -5.362  17.324  67.033  1.00  0.00    -0.183 C  
ENDBRANCH  19  20
ENDBRANCH  17  19
ENDBRANCH  16  17
ENDBRANCH  14  16
ENDBRANCH  13  14
ENDBRANCH  11  13
ENDBRANCH   4  11
BRANCH   7  22
HETATM   22  N   UNL     1      -8.772  13.314  68.775  1.00  0.00    -0.374 N  
HETATM   23  H   UNL     1      -9.687  12.868  68.843  1.00  0.00     0.000 HD 
HETATM   24  C   UNL     1      -7.693  12.567  68.353  1.00  0.00    -0.136 C  
HETATM   25  O   UNL     1      -6.547  13.013  68.342  1.00  0.00    -0.075 OA 
BRANCH  24  26
HETATM   26  C   UNL     1      -8.044  11.128  67.911  1.00  0.00    -0.119 C  
HETATM   27  N   UNL     1      -6.804  10.310  67.812  1.00  0.00    -0.074 NA 
HETATM   28  H2  UNL     1      -6.266  10.324  68.679  1.00  0.00     0.000 HD 
HETATM   29  H1  UNL     1      -7.035   9.360  67.520  1.00  0.00     0.000 HD 
BRANCH  26  30
HETATM   30  C   UNL     1      -8.848  11.117  66.623  1.00  0.00    -0.168 A  
HETATM   31  C   UNL     1     -10.189  11.535  66.641  1.00  0.00    -0.254 A  
HETATM   32  C   UNL     1     -10.957  11.525  65.475  1.00  0.00    -0.290 A  
HETATM   33  C   UNL     1     -10.395  11.104  64.272  1.00  0.00    -0.413 A  
HETATM   34  C   UNL     1      -9.061  10.707  64.231  1.00  0.00    -0.244 A  
HETATM   35  C   UNL     1      -8.290  10.721  65.396  1.00  0.00    -0.104 A  
ENDBRANCH  26  30
ENDBRANCH  24  26
ENDBRANCH   7  22
TORSDOF 10
ENDMDL
MODEL      181
REMARK 921   NORMALIZED FREE ENERGY PREDICTED BY IDOCK:   -4.05 KCAL/MOL
REMARK 922        TOTAL FREE ENERGY PREDICTED BY IDOCK:   -7.68 KCAL/MOL
REMARK 923 INTER-LIGAND FREE ENERGY PREDICTED BY IDOCK:   -7.30 KCAL/MOL
REMARK 924 INTRA-LIGAND FREE ENERGY PREDICTED BY IDOCK:   -0.38 KCAL/MOL
REMARK 927      BINDING AFFINITY PREDICTED BY RF-SCORE:    0.00 PKD
ROOT
HETATM    1  C   UNL     1     -11.153  12.844  68.741  1.00  0.00    -0.263 C  
HETATM    2  S   UNL     1      -9.326  12.918  68.454  1.00  0.00    -0.092 SA 
HETATM    3  C   UNL     1      -9.463  14.004  66.961  1.00  0.00    -0.250 C  
HETATM    4  C   UNL     1     -10.853  14.667  67.055  1.00  0.00    -0.304 C  
HETATM    5  C   UNL     1      -8.290  14.983  66.913  1.00  0.00    -0.247 C  
HETATM    6  C   UNL     1      -9.350  13.086  65.725  1.00  0.00     0.120 C  
HETATM    7  C   UNL     1     -11.932  11.649  68.123  1.00  0.00    -0.144 C  
HETATM    8  N   UNL     1     -11.744  13.700  67.696  1.00  0.00    -0.342 N  
HETATM    9  O   UNL     1     -12.644  12.583  65.844  1.00  0.00    -0.514 OA 
HETATM   10  C   UNL     1     -12.275  12.652  66.995  1.00  0.00     0.062 C  
ENDROOT
BRANCH   4  11
HETATM   11  C   UNL     1     -10.938  15.979  67.862  1.00  0.00    -0.327 C  
HETATM   12  O   UNL     1     -11.308  16.090  69.025  1.00  0.00    -0.327 OA 
BRANCH  11  13
HETATM   13  O   UNL     1     -10.634  17.046  67.066  1.00  0.00    -0.303 OA 
BRANCH  13  14
HETATM   14  C   UNL     1      -9.881  18.064  67.744  1.00  0.00    -0.305 C  
HETATM   15  C   UNL     1      -8.999  17.453  68.821  1.00  0.00    -0.219 C  
BRANCH  14  16
HETATM   16  O   UNL     1      -8.998  18.695  66.806  1.00  0.00    -0.279 OA 
BRANCH  16  17
HETATM   17  C   UNL     1      -9.339  19.978  66.541  1.00  0.00    -0.385 C  
HETATM   18  O   UNL     1     -10.211  20.333  65.760  1.00  0.00    -0.399 OA 
BRANCH  17  19
HETATM   19  O   UNL     1      -8.469  20.792  67.186  1.00  0.00    -0.278 OA 
BRANCH  19  20
HETATM   20  C   UNL     1      -7.083  20.494  66.959  1.00  0.00    -0.299 C  
HETATM   21  C   UNL     1      -6.311  20.740  68.243  1.00  0.00    -0.343 C  
ENDBRANCH  19  20
ENDBRANCH  17  19
ENDBRANCH  16  17
ENDBRANCH  14  16
ENDBRANCH  13  14
ENDBRANCH  11  13
ENDBRANCH   4  11
BRANCH   7  22
HETATM   22  N   UNL     1     -11.149  10.456  67.727  1.00  0.00    -0.330 N  
HETATM   23  H   UNL     1     -10.858  10.355  66.754  1.00  0.00     0.000 HD 
HETATM   24  C   UNL     1     -10.802   9.478  68.634  1.00  0.00    -0.139 C  
HETATM   25  O   UNL     1     -11.203   9.485  69.797  1.00  0.00    -0.223 OA 
BRANCH  24  26
HETATM   26  C   UNL     1      -9.884   8.372  68.064  1.00  0.00    -0.169 C  
HETATM   27  N   UNL     1      -9.200   7.655  69.176  1.00  0.00    -0.142 NA 
HETATM   28  H2  UNL     1      -9.863   7.288  69.859  1.00  0.00     0.000 HD 
HETATM   29  H1  UNL     1      -8.594   6.926  68.800  1.00  0.00     0.000 HD 
BRANCH  26  30
HETATM   30  C   UNL     1      -8.905   8.926  67.045  1.00  0.00    -0.138 A  
HETATM   31  C   UNL     1      -9.179   8.786  65.674  1.00  0.00    -0.244 A  
HETATM   32  C   UNL     1      -8.292   9.275  64.713  1.00  0.00    -0.167 A  
HETATM   33  C   UNL     1      -7.120   9.918  65.107  1.00  0.00    -0.129 A  
HETATM   34  C   UNL     1      -6.843  10.085  66.462  1.00  0.00    -0.087 A  
HETATM   35  C   UNL     1      -7.732   9.601  67.424  1.00  0.00    -0.095 A  
ENDBRANCH  26  30
ENDBRANCH  24  26
ENDBRANCH   7  22
TORSDOF 10
ENDMDL
MODEL      182
REMARK 921   NORMALIZED FREE ENERGY PREDICTED BY IDOCK:   -4.03 KCAL/MOL
REMARK 922        TOTAL FREE ENERGY PREDICTED BY IDOCK:   -7.65 KCAL/MOL
REMARK 923 INTER-LIGAND FREE ENERGY PREDICTED BY IDOCK:   -6.83 KCAL/MOL
REMARK 924 INTRA-LIGAND FREE ENERGY PREDICTED BY IDOCK:   -0.82 KCAL/MOL
REMARK 927      BINDING AFFINITY PREDICTED BY RF-SCORE:    0.00 PKD
ROOT
HETATM    1  C   UNL     1      -8.578  10.303  68.949  1.00  0.00    -0.150 C  
HETATM    2  S   UNL     1      -8.102   9.332  67.447  1.00  0.00    -0.110 SA 
HETATM    3  C   UNL     1      -9.458  10.027  66.396  1.00  0.00    -0.186 C  
HETATM    4  C   UNL     1      -9.892  11.335  67.088  1.00  0.00    -0.190 C  
HETATM    5  C   UNL     1      -8.974  10.195  64.955  1.00  0.00    -0.227 C  
HETATM    6  C   UNL     1     -10.596   8.983  66.381  1.00  0.00     0.043 C  
HETATM    7  C   UNL     1      -9.525   9.623  69.977  1.00  0.00    -0.240 C  
HETATM    8  N   UNL     1      -9.720  11.133  68.527  1.00  0.00    -0.190 N  
HETATM    9  O   UNL     1     -11.839  10.356  69.154  1.00  0.00    -0.186 OA 
HETATM   10  C   UNL     1     -10.635  10.426  69.258  1.00  0.00    -0.232 C  
ENDROOT
BRANCH   4  11
HETATM   11  C   UNL     1      -9.113  12.610  66.704  1.00  0.00    -0.193 C  
HETATM   12  O   UNL     1      -8.103  13.033  67.254  1.00  0.00    -0.181 OA 
BRANCH  11  13
HETATM   13  O   UNL     1      -9.762  13.281  65.708  1.00  0.00    -0.234 OA 
BRANCH  13  14
HETATM   14  C   UNL     1     -10.212  14.587  66.101  1.00  0.00    -0.305 C  
HETATM   15  C   UNL     1     -11.215  15.134  65.097  1.00  0.00    -0.392 C  
BRANCH  14  16
HETATM   16  O   UNL     1     -10.904  14.486  67.353  1.00  0.00    -0.281 OA 
BRANCH  16  17
HETATM   17  C   UNL     1     -11.032  15.679  67.983  1.00  0.00    -0.318 C  
HETATM   18  O   UNL     1     -12.034  16.070  68.564  1.00  0.00    -0.273 OA 
BRANCH  17  19
HETATM   19  O   UNL     1      -9.913  16.405  67.750  1.00  0.00    -0.240 OA 
BRANCH  19  20
HETATM   20  C   UNL     1      -8.901  16.295  68.762  1.00  0.00    -0.243 C  
HETATM   21  C   UNL     1      -7.600  16.860  68.219  1.00  0.00    -0.202 C  
ENDBRANCH  19  20
ENDBRANCH  17  19
ENDBRANCH  16  17
ENDBRANCH  14  16
ENDBRANCH  13  14
ENDBRANCH  11  13
ENDBRANCH   4  11
BRANCH   7  22
HETATM   22  N   UNL     1      -9.642   8.147  69.924  1.00  0.00    -0.174 N  
HETATM   23  H   UNL     1     -10.417   7.730  69.409  1.00  0.00     0.000 HD 
HETATM   24  C   UNL     1      -8.732   7.321  70.550  1.00  0.00    -0.148 C  
HETATM   25  O   UNL     1      -7.833   7.755  71.269  1.00  0.00    -0.082 OA 
BRANCH  24  26
HETATM   26  C   UNL     1      -8.948   5.813  70.285  1.00  0.00    -0.141 C  
HETATM   27  N   UNL     1      -9.668   5.623  68.995  1.00  0.00    -0.133 NA 
HETATM   28  H2  UNL     1      -9.192   6.084  68.220  1.00  0.00     0.000 HD 
HETATM   29  H1  UNL     1      -9.812   4.628  68.820  1.00  0.00     0.000 HD 
BRANCH  26  30
HETATM   30  C   UNL     1      -9.653   5.134  71.445  1.00  0.00    -0.215 A  
HETATM   31  C   UNL     1      -9.565   3.740  71.588  1.00  0.00    -0.227 A  
HETATM   32  C   UNL     1     -10.212   3.085  72.638  1.00  0.00    -0.231 A  
HETATM   33  C   UNL     1     -10.951   3.815  73.566  1.00  0.00    -0.339 A  
HETATM   34  C   UNL     1     -11.031   5.201  73.453  1.00  0.00    -0.381 A  
HETATM   35  C   UNL     1     -10.380   5.857  72.406  1.00  0.00    -0.230 A  
ENDBRANCH  26  30
ENDBRANCH  24  26
ENDBRANCH   7  22
TORSDOF 10
ENDMDL
MODEL      183
REMARK 921   NORMALIZED FREE ENERGY PREDICTED BY IDOCK:   -4.01 KCAL/MOL
REMARK 922        TOTAL FREE ENERGY PREDICTED BY IDOCK:   -7.61 KCAL/MOL
REMARK 923 INTER-LIGAND FREE ENERGY PREDICTED BY IDOCK:   -6.47 KCAL/MOL
REMARK 924 INTRA-LIGAND FREE ENERGY PREDICTED BY IDOCK:   -1.14 KCAL/MOL
REMARK 927      BINDING AFFINITY PREDICTED BY RF-SCORE:    0.00 PKD
ROOT
HETATM    1  C   UNL     1     -10.160   8.858  66.895  1.00  0.00    -0.273 C  
HETATM    2  S   UNL     1     -10.328   7.966  68.508  1.00  0.00    -0.176 SA 
HETATM    3  C   UNL     1      -9.548   9.321  69.499  1.00  0.00    -0.173 C  
HETATM    4  C   UNL     1      -9.660  10.590  68.628  1.00  0.00    -0.171 C  
HETATM    5  C   UNL     1     -10.220   9.425  70.869  1.00  0.00    -0.373 C  
HETATM    6  C   UNL     1      -8.077   8.917  69.735  1.00  0.00    -0.109 C  
HETATM    7  C   UNL     1      -8.899   8.562  66.036  1.00  0.00    -0.173 C  
HETATM    8  N   UNL     1      -9.558  10.160  67.233  1.00  0.00    -0.157 N  
HETATM    9  O   UNL     1      -7.258  10.358  66.842  1.00  0.00    -0.092 OA 
HETATM   10  C   UNL     1      -8.348   9.862  66.670  1.00  0.00    -0.125 C  
ENDROOT
BRANCH   4  11
HETATM   11  C   UNL     1     -10.960  11.409  68.765  1.00  0.00    -0.223 C  
HETATM   12  O   UNL     1     -12.088  11.029  68.474  1.00  0.00    -0.573 OA 
BRANCH  11  13
HETATM   13  O   UNL     1     -10.679  12.681  69.173  1.00  0.00    -0.149 OA 
BRANCH  13  14
HETATM   14  C   UNL     1     -11.666  13.641  68.764  1.00  0.00    -0.348 C  
HETATM   15  C   UNL     1     -12.172  14.433  69.960  1.00  0.00    -0.408 C  
BRANCH  14  16
HETATM   16  O   UNL     1     -11.057  14.589  67.878  1.00  0.00    -0.262 OA 
BRANCH  16  17
HETATM   17  C   UNL     1     -11.497  14.477  66.602  1.00  0.00    -0.366 C  
HETATM   18  O   UNL     1     -12.614  14.109  66.267  1.00  0.00    -0.449 OA 
BRANCH  17  19
HETATM   19  O   UNL     1     -10.456  14.718  65.769  1.00  0.00    -0.298 OA 
BRANCH  19  20
HETATM   20  C   UNL     1      -9.703  15.901  66.075  1.00  0.00    -0.343 C  
HETATM   21  C   UNL     1     -10.499  17.117  65.637  1.00  0.00    -0.208 C  
ENDBRANCH  19  20
ENDBRANCH  17  19
ENDBRANCH  16  17
ENDBRANCH  14  16
ENDBRANCH  13  14
ENDBRANCH  11  13
ENDBRANCH   4  11
BRANCH   7  22
HETATM   22  N   UNL     1      -8.150   7.318  66.329  1.00  0.00    -0.116 N  
HETATM   23  H   UNL     1      -8.422   6.754  67.135  1.00  0.00     0.000 HD 
HETATM   24  C   UNL     1      -7.096   6.900  65.545  1.00  0.00    -0.068 C  
HETATM   25  O   UNL     1      -6.652   7.579  64.621  1.00  0.00    -0.040 OA 
BRANCH  24  26
HETATM   26  C   UNL     1      -6.516   5.521  65.934  1.00  0.00    -0.040 C  
HETATM   27  N   UNL     1      -5.996   4.828  64.723  1.00  0.00    -0.017 NA 
HETATM   28  H2  UNL     1      -5.318   5.400  64.217  1.00  0.00     0.000 HD 
HETATM   29  H1  UNL     1      -5.613   3.918  64.980  1.00  0.00     0.000 HD 
BRANCH  26  30
HETATM   30  C   UNL     1      -7.528   4.680  66.690  1.00  0.00    -0.086 A  
HETATM   31  C   UNL     1      -7.590   4.765  68.091  1.00  0.00    -0.081 A  
HETATM   32  C   UNL     1      -8.503   3.996  68.816  1.00  0.00    -0.100 A  
HETATM   33  C   UNL     1      -9.372   3.134  68.151  1.00  0.00    -0.247 A  
HETATM   34  C   UNL     1      -9.339   3.052  66.761  1.00  0.00    -0.120 A  
HETATM   35  C   UNL     1      -8.431   3.825  66.035  1.00  0.00    -0.110 A  
ENDBRANCH  26  30
ENDBRANCH  24  26
ENDBRANCH   7  22
TORSDOF 10
ENDMDL
MODEL      184
REMARK 921   NORMALIZED FREE ENERGY PREDICTED BY IDOCK:   -4.00 KCAL/MOL
REMARK 922        TOTAL FREE ENERGY PREDICTED BY IDOCK:   -7.60 KCAL/MOL
REMARK 923 INTER-LIGAND FREE ENERGY PREDICTED BY IDOCK:   -6.43 KCAL/MOL
REMARK 924 INTRA-LIGAND FREE ENERGY PREDICTED BY IDOCK:   -1.17 KCAL/MOL
REMARK 927      BINDING AFFINITY PREDICTED BY RF-SCORE:    0.00 PKD
ROOT
HETATM    1  C   UNL     1      -9.907  10.201  69.340  1.00  0.00    -0.229 C  
HETATM    2  S   UNL     1      -8.124  10.682  69.205  1.00  0.00    -0.086 SA 
HETATM    3  C   UNL     1      -8.291  11.353  67.488  1.00  0.00    -0.137 C  
HETATM    4  C   UNL     1      -9.794  11.639  67.297  1.00  0.00    -0.187 C  
HETATM    5  C   UNL     1      -7.381  12.569  67.308  1.00  0.00    -0.113 C  
HETATM    6  C   UNL     1      -7.789  10.255  66.525  1.00  0.00    -0.116 C  
HETATM    7  C   UNL     1     -10.290   8.742  68.963  1.00  0.00    -0.213 C  
HETATM    8  N   UNL     1     -10.521  10.633  68.072  1.00  0.00    -0.183 N  
HETATM    9  O   UNL     1     -10.859   8.955  66.473  1.00  0.00     0.003 OA 
HETATM   10  C   UNL     1     -10.688   9.359  67.601  1.00  0.00    -0.230 C  
ENDROOT
BRANCH   4  11
HETATM   11  C   UNL     1     -10.297  13.025  67.753  1.00  0.00    -0.226 C  
HETATM   12  O   UNL     1     -10.110  13.536  68.850  1.00  0.00    -0.151 OA 
BRANCH  11  13
HETATM   13  O   UNL     1     -11.081  13.585  66.786  1.00  0.00    -0.292 OA 
BRANCH  13  14
HETATM   14  C   UNL     1     -10.352  14.432  65.883  1.00  0.00    -0.314 C  
HETATM   15  C   UNL     1     -10.415  13.884  64.466  1.00  0.00    -0.334 C  
BRANCH  14  16
HETATM   16  O   UNL     1     -10.975  15.724  65.847  1.00  0.00    -0.287 OA 
BRANCH  16  17
HETATM   17  C   UNL     1     -10.315  16.648  66.584  1.00  0.00    -0.296 C  
HETATM   18  O   UNL     1     -10.221  16.648  67.804  1.00  0.00    -0.273 OA 
BRANCH  17  19
HETATM   19  O   UNL     1      -9.891  17.631  65.754  1.00  0.00    -0.539 OA 
BRANCH  19  20
HETATM   20  C   UNL     1     -10.439  18.929  66.028  1.00  0.00    -0.446 C  
HETATM   21  C   UNL     1      -9.300  19.923  66.170  1.00  0.00    -0.442 C  
ENDBRANCH  19  20
ENDBRANCH  17  19
ENDBRANCH  16  17
ENDBRANCH  14  16
ENDBRANCH  13  14
ENDBRANCH  11  13
ENDBRANCH   4  11
BRANCH   7  22
HETATM   22  N   UNL     1      -9.203   7.736  68.937  1.00  0.00    -0.140 N  
HETATM   23  H   UNL     1      -8.540   7.744  68.162  1.00  0.00     0.000 HD 
HETATM   24  C   UNL     1      -9.062   6.790  69.930  1.00  0.00    -0.144 C  
HETATM   25  O   UNL     1      -9.881   6.660  70.838  1.00  0.00    -0.182 OA 
BRANCH  24  26
HETATM   26  C   UNL     1      -7.802   5.904  69.795  1.00  0.00    -0.100 C  
HETATM   27  N   UNL     1      -7.012   6.322  68.604  1.00  0.00    -0.077 NA 
HETATM   28  H2  UNL     1      -6.781   7.315  68.628  1.00  0.00     0.000 HD 
HETATM   29  H1  UNL     1      -6.181   5.737  68.515  1.00  0.00     0.000 HD 
BRANCH  26  30
HETATM   30  C   UNL     1      -8.155   4.428  69.766  1.00  0.00    -0.061 A  
HETATM   31  C   UNL     1      -9.053   3.951  68.796  1.00  0.00    -0.195 A  
HETATM   32  C   UNL     1      -9.407   2.601  68.751  1.00  0.00    -0.230 A  
HETATM   33  C   UNL     1      -8.862   1.705  69.669  1.00  0.00    -0.119 A  
HETATM   34  C   UNL     1      -7.954   2.157  70.623  1.00  0.00    -0.049 A  
HETATM   35  C   UNL     1      -7.595   3.506  70.666  1.00  0.00    -0.040 A  
ENDBRANCH  26  30
ENDBRANCH  24  26
ENDBRANCH   7  22
TORSDOF 10
ENDMDL
MODEL      185
REMARK 921   NORMALIZED FREE ENERGY PREDICTED BY IDOCK:   -3.98 KCAL/MOL
REMARK 922        TOTAL FREE ENERGY PREDICTED BY IDOCK:   -7.57 KCAL/MOL
REMARK 923 INTER-LIGAND FREE ENERGY PREDICTED BY IDOCK:   -6.11 KCAL/MOL
REMARK 924 INTRA-LIGAND FREE ENERGY PREDICTED BY IDOCK:   -1.47 KCAL/MOL
REMARK 927      BINDING AFFINITY PREDICTED BY RF-SCORE:    0.00 PKD
ROOT
HETATM    1  C   UNL     1      -8.490   9.100  69.104  1.00  0.00    -0.132 C  
HETATM    2  S   UNL     1     -10.277   8.764  69.445  1.00  0.00    -0.213 SA 
HETATM    3  C   UNL     1     -10.286   7.142  68.554  1.00  0.00    -0.183 C  
HETATM    4  C   UNL     1      -8.810   6.701  68.477  1.00  0.00    -0.122 C  
HETATM    5  C   UNL     1     -11.212   6.155  69.267  1.00  0.00    -0.438 C  
HETATM    6  C   UNL     1     -10.880   7.401  67.153  1.00  0.00    -0.340 C  
HETATM    7  C   UNL     1      -8.144   9.953  67.851  1.00  0.00    -0.109 C  
HETATM    8  N   UNL     1      -8.007   7.919  68.367  1.00  0.00    -0.120 N  
HETATM    9  O   UNL     1      -7.829   8.161  66.044  1.00  0.00    -0.087 OA 
HETATM   10  C   UNL     1      -7.887   8.583  67.177  1.00  0.00    -0.097 C  
ENDROOT
BRANCH   4  11
HETATM   11  C   UNL     1      -8.267   5.896  69.676  1.00  0.00    -0.110 C  
HETATM   12  O   UNL     1      -8.061   6.329  70.804  1.00  0.00    -0.116 OA 
BRANCH  11  13
HETATM   13  O   UNL     1      -7.943   4.628  69.289  1.00  0.00    -0.069 OA 
BRANCH  13  14
HETATM   14  C   UNL     1      -6.775   4.569  68.454  1.00  0.00    -0.047 C  
HETATM   15  C   UNL     1      -5.559   4.144  69.263  1.00  0.00    -0.017 C  
BRANCH  14  16
HETATM   16  O   UNL     1      -6.967   3.563  67.451  1.00  0.00    -0.052 OA 
BRANCH  16  17
HETATM   17  C   UNL     1      -6.998   4.070  66.195  1.00  0.00    -0.062 C  
HETATM   18  O   UNL     1      -6.174   4.839  65.721  1.00  0.00    -0.029 OA 
BRANCH  17  19
HETATM   19  O   UNL     1      -8.154   3.680  65.607  1.00  0.00    -0.092 OA 
BRANCH  19  20
HETATM   20  C   UNL     1      -8.937   4.748  65.053  1.00  0.00    -0.153 C  
HETATM   21  C   UNL     1     -10.351   4.248  64.814  1.00  0.00    -0.164 C  
ENDBRANCH  19  20
ENDBRANCH  17  19
ENDBRANCH  16  17
ENDBRANCH  14  16
ENDBRANCH  13  14
ENDBRANCH  11  13
ENDBRANCH   4  11
BRANCH   7  22
HETATM   22  N   UNL     1      -9.226  10.779  67.267  1.00  0.00    -0.147 N  
HETATM   23  H   UNL     1     -10.116  10.338  67.036  1.00  0.00     0.000 HD 
HETATM   24  C   UNL     1      -9.064  12.128  67.028  1.00  0.00    -0.198 C  
HETATM   25  O   UNL     1      -7.988  12.701  67.189  1.00  0.00    -0.170 OA 
BRANCH  24  26
HETATM   26  C   UNL     1     -10.339  12.846  66.530  1.00  0.00    -0.264 C  
HETATM   27  N   UNL     1     -10.023  13.667  65.328  1.00  0.00    -0.535 NA 
HETATM   28  H2  UNL     1      -9.582  13.114  64.592  1.00  0.00     0.000 HD 
HETATM   29  H1  UNL     1     -10.864  14.141  64.999  1.00  0.00     0.000 HD 
BRANCH  26  30
HETATM   30  C   UNL     1     -10.990  13.663  67.632  1.00  0.00    -0.283 A  
HETATM   31  C   UNL     1     -10.899  15.064  67.599  1.00  0.00    -0.291 A  
HETATM   32  C   UNL     1     -11.477  15.842  68.605  1.00  0.00    -0.391 A  
HETATM   33  C   UNL     1     -12.160  15.232  69.654  1.00  0.00    -0.342 A  
HETATM   34  C   UNL     1     -12.278  13.845  69.691  1.00  0.00    -0.374 A  
HETATM   35  C   UNL     1     -11.706  13.066  68.683  1.00  0.00    -0.359 A  
ENDBRANCH  26  30
ENDBRANCH  24  26
ENDBRANCH   7  22
TORSDOF 10
ENDMDL
MODEL      186
REMARK 921   NORMALIZED FREE ENERGY PREDICTED BY IDOCK:   -3.98 KCAL/MOL
REMARK 922        TOTAL FREE ENERGY PREDICTED BY IDOCK:   -7.57 KCAL/MOL
REMARK 923 INTER-LIGAND FREE ENERGY PREDICTED BY IDOCK:   -7.51 KCAL/MOL
REMARK 924 INTRA-LIGAND FREE ENERGY PREDICTED BY IDOCK:   -0.06 KCAL/MOL
REMARK 927      BINDING AFFINITY PREDICTED BY RF-SCORE:    0.00 PKD
ROOT
HETATM    1  C   UNL     1      -8.521  15.637  68.133  1.00  0.00    -0.147 C  
HETATM    2  S   UNL     1      -8.863  15.240  66.357  1.00  0.00    -0.217 SA 
HETATM    3  C   UNL     1     -10.567  15.964  66.379  1.00  0.00    -0.297 C  
HETATM    4  C   UNL     1     -10.597  16.920  67.589  1.00  0.00    -0.325 C  
HETATM    5  C   UNL     1     -10.875  16.624  65.034  1.00  0.00    -0.190 C  
HETATM    6  C   UNL     1     -11.553  14.788  66.552  1.00  0.00    -0.306 C  
HETATM    7  C   UNL     1      -8.818  14.534  69.187  1.00  0.00     0.038 C  
HETATM    8  N   UNL     1      -9.723  16.343  68.610  1.00  0.00    -0.230 N  
HETATM    9  O   UNL     1     -11.235  15.063  69.860  1.00  0.00    -0.253 OA 
HETATM   10  C   UNL     1     -10.143  15.307  69.399  1.00  0.00    -0.264 C  
ENDROOT
BRANCH   4  11
HETATM   11  C   UNL     1     -10.122  18.366  67.338  1.00  0.00    -0.353 C  
HETATM   12  O   UNL     1     -10.841  19.335  67.123  1.00  0.00    -0.475 OA 
BRANCH  11  13
HETATM   13  O   UNL     1      -8.759  18.416  67.288  1.00  0.00    -0.254 OA 
BRANCH  13  14
HETATM   14  C   UNL     1      -8.181  19.218  68.330  1.00  0.00    -0.347 C  
HETATM   15  C   UNL     1      -6.757  18.771  68.623  1.00  0.00    -0.287 C  
BRANCH  14  16
HETATM   16  O   UNL     1      -8.095  20.577  67.881  1.00  0.00    -0.185 OA 
BRANCH  16  17
HETATM   17  C   UNL     1      -6.914  20.861  67.281  1.00  0.00    -0.376 C  
HETATM   18  O   UNL     1      -5.902  21.240  67.853  1.00  0.00    -0.333 OA 
BRANCH  17  19
HETATM   19  O   UNL     1      -7.087  20.777  65.941  1.00  0.00    -0.125 OA 
BRANCH  19  20
HETATM   20  C   UNL     1      -5.876  20.614  65.187  1.00  0.00    -0.227 C  
HETATM   21  C   UNL     1      -5.665  19.136  64.910  1.00  0.00    -0.285 C  
ENDBRANCH  19  20
ENDBRANCH  17  19
ENDBRANCH  16  17
ENDBRANCH  14  16
ENDBRANCH  13  14
ENDBRANCH  11  13
ENDBRANCH   4  11
BRANCH   7  22
HETATM   22  N   UNL     1      -8.940  13.140  68.702  1.00  0.00    -0.379 N  
HETATM   23  H   UNL     1      -9.861  12.785  68.443  1.00  0.00     0.000 HD 
HETATM   24  C   UNL     1      -7.845  12.309  68.590  1.00  0.00    -0.063 C  
HETATM   25  O   UNL     1      -6.726  12.638  68.977  1.00  0.00    -0.095 OA 
BRANCH  24  26
HETATM   26  C   UNL     1      -8.149  10.933  67.953  1.00  0.00    -0.113 C  
HETATM   27  N   UNL     1      -8.966  11.113  66.721  1.00  0.00    -0.160 NA 
HETATM   28  H2  UNL     1      -8.525  11.753  66.060  1.00  0.00     0.000 HD 
HETATM   29  H1  UNL     1      -9.167  10.206  66.301  1.00  0.00     0.000 HD 
BRANCH  26  30
HETATM   30  C   UNL     1      -8.800   9.988  68.946  1.00  0.00    -0.148 A  
HETATM   31  C   UNL     1      -8.159   9.717  70.166  1.00  0.00    -0.205 A  
HETATM   32  C   UNL     1      -8.727   8.842  71.094  1.00  0.00    -0.265 A  
HETATM   33  C   UNL     1      -9.948   8.230  70.820  1.00  0.00    -0.217 A  
HETATM   34  C   UNL     1     -10.608   8.504  69.625  1.00  0.00    -0.221 A  
HETATM   35  C   UNL     1     -10.044   9.382  68.698  1.00  0.00    -0.208 A  
ENDBRANCH  26  30
ENDBRANCH  24  26
ENDBRANCH   7  22
TORSDOF 10
ENDMDL
MODEL      187
REMARK 921   NORMALIZED FREE ENERGY PREDICTED BY IDOCK:   -3.97 KCAL/MOL
REMARK 922        TOTAL FREE ENERGY PREDICTED BY IDOCK:   -7.55 KCAL/MOL
REMARK 923 INTER-LIGAND FREE ENERGY PREDICTED BY IDOCK:   -6.91 KCAL/MOL
REMARK 924 INTRA-LIGAND FREE ENERGY PREDICTED BY IDOCK:   -0.64 KCAL/MOL
REMARK 927      BINDING AFFINITY PREDICTED BY RF-SCORE:    0.00 PKD
ROOT
HETATM    1  C   UNL     1      -9.695   8.242  67.400  1.00  0.00    -0.174 C  
HETATM    2  S   UNL     1      -8.175   9.013  66.679  1.00  0.00    -0.119 SA 
HETATM    3  C   UNL     1      -7.025   8.215  67.891  1.00  0.00    -0.078 C  
HETATM    4  C   UNL     1      -7.797   7.009  68.464  1.00  0.00    -0.122 C  
HETATM    5  C   UNL     1      -5.703   7.863  67.209  1.00  0.00    -0.037 C  
HETATM    6  C   UNL     1      -6.717   9.267  68.979  1.00  0.00    -0.051 C  
HETATM    7  C   UNL     1     -10.482   9.059  68.463  1.00  0.00    -0.196 C  
HETATM    8  N   UNL     1      -9.211   7.384  68.496  1.00  0.00    -0.143 N  
HETATM    9  O   UNL     1      -9.419   8.266  70.656  1.00  0.00    -0.159 OA 
HETATM   10  C   UNL     1      -9.708   8.190  69.484  1.00  0.00    -0.170 C  
ENDROOT
BRANCH   4  11
HETATM   11  C   UNL     1      -7.688   5.684  67.681  1.00  0.00    -0.097 C  
HETATM   12  O   UNL     1      -6.853   5.418  66.825  1.00  0.00    -0.060 OA 
BRANCH  11  13
HETATM   13  O   UNL     1      -8.726   4.858  68.000  1.00  0.00    -0.102 OA 
BRANCH  13  14
HETATM   14  C   UNL     1      -8.978   3.851  67.007  1.00  0.00    -0.138 C  
HETATM   15  C   UNL     1      -9.299   2.517  67.664  1.00  0.00    -0.199 C  
BRANCH  14  16
HETATM   16  O   UNL     1     -10.139   4.220  66.251  1.00  0.00    -0.227 OA 
BRANCH  16  17
HETATM   17  C   UNL     1      -9.919   4.226  64.914  1.00  0.00    -0.168 C  
HETATM   18  O   UNL     1      -8.897   4.615  64.366  1.00  0.00    -0.148 OA 
BRANCH  17  19
HETATM   19  O   UNL     1     -11.061   3.850  64.293  1.00  0.00    -0.341 OA 
BRANCH  19  20
HETATM   20  C   UNL     1     -10.873   3.013  63.141  1.00  0.00    -0.205 C  
HETATM   21  C   UNL     1     -10.388   1.649  63.599  1.00  0.00    -0.101 C  
ENDBRANCH  19  20
ENDBRANCH  17  19
ENDBRANCH  16  17
ENDBRANCH  14  16
ENDBRANCH  13  14
ENDBRANCH  11  13
ENDBRANCH   4  11
BRANCH   7  22
HETATM   22  N   UNL     1     -10.237  10.519  68.521  1.00  0.00    -0.166 N  
HETATM   23  H   UNL     1      -9.285  10.865  68.403  1.00  0.00     0.000 HD 
HETATM   24  C   UNL     1     -11.258  11.421  68.730  1.00  0.00    -0.247 C  
HETATM   25  O   UNL     1     -12.409  11.068  68.978  1.00  0.00    -0.481 OA 
BRANCH  24  26
HETATM   26  C   UNL     1     -10.829  12.904  68.640  1.00  0.00    -0.258 C  
HETATM   27  N   UNL     1     -11.490  13.690  69.718  1.00  0.00    -0.437 NA 
HETATM   28  H2  UNL     1     -11.312  13.295  70.642  1.00  0.00     0.000 HD 
HETATM   29  H1  UNL     1     -11.207  14.668  69.659  1.00  0.00     0.000 HD 
BRANCH  26  30
HETATM   30  C   UNL     1     -11.092  13.481  67.261  1.00  0.00    -0.302 A  
HETATM   31  C   UNL     1     -10.264  14.504  66.769  1.00  0.00    -0.266 A  
HETATM   32  C   UNL     1     -10.487  15.063  65.510  1.00  0.00    -0.385 A  
HETATM   33  C   UNL     1     -11.539  14.604  64.719  1.00  0.00    -0.418 A  
HETATM   34  C   UNL     1     -12.357  13.576  65.181  1.00  0.00    -0.488 A  
HETATM   35  C   UNL     1     -12.131  13.012  66.439  1.00  0.00    -0.428 A  
ENDBRANCH  26  30
ENDBRANCH  24  26
ENDBRANCH   7  22
TORSDOF 10
ENDMDL
MODEL      188
REMARK 921   NORMALIZED FREE ENERGY PREDICTED BY IDOCK:   -3.96 KCAL/MOL
REMARK 922        TOTAL FREE ENERGY PREDICTED BY IDOCK:   -7.53 KCAL/MOL
REMARK 923 INTER-LIGAND FREE ENERGY PREDICTED BY IDOCK:   -6.78 KCAL/MOL
REMARK 924 INTRA-LIGAND FREE ENERGY PREDICTED BY IDOCK:   -0.75 KCAL/MOL
REMARK 927      BINDING AFFINITY PREDICTED BY RF-SCORE:    0.00 PKD
ROOT
HETATM    1  C   UNL     1      -9.044   9.406  70.088  1.00  0.00    -0.231 C  
HETATM    2  S   UNL     1     -10.732   8.690  69.833  1.00  0.00    -0.203 SA 
HETATM    3  C   UNL     1     -10.191   7.533  68.493  1.00  0.00    -0.197 C  
HETATM    4  C   UNL     1      -8.664   7.391  68.657  1.00  0.00    -0.128 C  
HETATM    5  C   UNL     1     -10.969   6.220  68.586  1.00  0.00    -0.423 C  
HETATM    6  C   UNL     1     -10.564   8.196  67.149  1.00  0.00    -0.355 C  
HETATM    7  C   UNL     1      -8.689  10.705  69.311  1.00  0.00    -0.077 C  
HETATM    8  N   UNL     1      -8.168   8.674  69.157  1.00  0.00    -0.116 N  
HETATM    9  O   UNL     1      -7.632   9.784  67.165  1.00  0.00    -0.091 OA 
HETATM   10  C   UNL     1      -7.994   9.741  68.319  1.00  0.00    -0.096 C  
ENDROOT
BRANCH   4  11
HETATM   11  C   UNL     1      -8.173   6.296  69.626  1.00  0.00    -0.124 C  
HETATM   12  O   UNL     1      -7.227   5.540  69.442  1.00  0.00    -0.062 OA 
BRANCH  11  13
HETATM   13  O   UNL     1      -9.007   6.207  70.703  1.00  0.00    -0.144 OA 
BRANCH  13  14
HETATM   14  C   UNL     1      -8.309   6.104  71.955  1.00  0.00    -0.114 C  
HETATM   15  C   UNL     1      -8.808   7.155  72.935  1.00  0.00    -0.154 C  
BRANCH  14  16
HETATM   16  O   UNL     1      -8.596   4.829  72.546  1.00  0.00    -0.114 OA 
BRANCH  16  17
HETATM   17  C   UNL     1      -7.578   4.359  73.307  1.00  0.00    -0.082 C  
HETATM   18  O   UNL     1      -6.429   4.187  72.925  1.00  0.00    -0.029 OA 
BRANCH  17  19
HETATM   19  O   UNL     1      -8.079   3.998  74.512  1.00  0.00    -0.088 OA 
BRANCH  19  20
HETATM   20  C   UNL     1      -9.303   3.250  74.456  1.00  0.00    -0.093 C  
HETATM   21  C   UNL     1      -8.975   1.768  74.510  1.00  0.00    -0.070 C  
ENDBRANCH  19  20
ENDBRANCH  17  19
ENDBRANCH  16  17
ENDBRANCH  14  16
ENDBRANCH  13  14
ENDBRANCH  11  13
ENDBRANCH   4  11
BRANCH   7  22
HETATM   22  N   UNL     1      -9.812  11.507  68.772  1.00  0.00    -0.339 N  
HETATM   23  H   UNL     1     -10.761  11.140  68.843  1.00  0.00     0.000 HD 
HETATM   24  C   UNL     1      -9.610  12.735  68.178  1.00  0.00    -0.223 C  
HETATM   25  O   UNL     1      -8.487  13.191  67.970  1.00  0.00    -0.161 OA 
BRANCH  24  26
HETATM   26  C   UNL     1     -10.909  13.476  67.785  1.00  0.00    -0.253 C  
HETATM   27  N   UNL     1     -12.017  13.078  68.697  1.00  0.00    -0.308 NA 
HETATM   28  H2  UNL     1     -11.775  13.222  69.678  1.00  0.00     0.000 HD 
HETATM   29  H1  UNL     1     -12.874  13.566  68.439  1.00  0.00     0.000 HD 
BRANCH  26  30
HETATM   30  C   UNL     1     -11.259  13.260  66.324  1.00  0.00    -0.321 A  
HETATM   31  C   UNL     1     -11.751  14.334  65.564  1.00  0.00    -0.353 A  
HETATM   32  C   UNL     1     -12.093  14.163  64.221  1.00  0.00    -0.471 A  
HETATM   33  C   UNL     1     -11.941  12.918  63.614  1.00  0.00    -0.613 A  
HETATM   34  C   UNL     1     -11.434  11.848  64.347  1.00  0.00    -0.393 A  
HETATM   35  C   UNL     1     -11.087  12.018  65.689  1.00  0.00    -0.361 A  
ENDBRANCH  26  30
ENDBRANCH  24  26
ENDBRANCH   7  22
TORSDOF 10
ENDMDL
MODEL      189
REMARK 921   NORMALIZED FREE ENERGY PREDICTED BY IDOCK:   -3.93 KCAL/MOL
REMARK 922        TOTAL FREE ENERGY PREDICTED BY IDOCK:   -7.49 KCAL/MOL
REMARK 923 INTER-LIGAND FREE ENERGY PREDICTED BY IDOCK:   -6.31 KCAL/MOL
REMARK 924 INTRA-LIGAND FREE ENERGY PREDICTED BY IDOCK:   -1.18 KCAL/MOL
REMARK 927      BINDING AFFINITY PREDICTED BY RF-SCORE:    0.00 PKD
ROOT
HETATM    1  C   UNL     1      -7.521  10.345  67.603  1.00  0.00    -0.089 C  
HETATM    2  S   UNL     1      -7.358  10.160  69.437  1.00  0.00    -0.122 SA 
HETATM    3  C   UNL     1      -8.171   8.498  69.483  1.00  0.00    -0.116 C  
HETATM    4  C   UNL     1      -8.070   7.946  68.047  1.00  0.00    -0.126 C  
HETATM    5  C   UNL     1      -7.519   7.622  70.553  1.00  0.00    -0.079 C  
HETATM    6  C   UNL     1      -9.638   8.727  69.906  1.00  0.00    -0.182 C  
HETATM    7  C   UNL     1      -8.766  11.102  67.063  1.00  0.00    -0.148 C  
HETATM    8  N   UNL     1      -8.148   9.094  67.142  1.00  0.00    -0.109 N  
HETATM    9  O   UNL     1     -10.447   9.199  66.706  1.00  0.00    -0.249 OA 
HETATM   10  C   UNL     1      -9.347   9.683  66.847  1.00  0.00    -0.146 C  
ENDROOT
BRANCH   4  11
HETATM   11  C   UNL     1      -6.785   7.167  67.695  1.00  0.00    -0.064 C  
HETATM   12  O   UNL     1      -5.706   7.657  67.382  1.00  0.00    -0.033 OA 
BRANCH  11  13
HETATM   13  O   UNL     1      -7.032   5.825  67.683  1.00  0.00    -0.062 OA 
BRANCH  13  14
HETATM   14  C   UNL     1      -8.255   5.478  67.012  1.00  0.00    -0.105 C  
HETATM   15  C   UNL     1      -7.963   4.775  65.696  1.00  0.00    -0.099 C  
BRANCH  14  16
HETATM   16  O   UNL     1      -8.982   4.543  67.820  1.00  0.00    -0.108 OA 
BRANCH  16  17
HETATM   17  C   UNL     1      -8.182   3.817  68.637  1.00  0.00    -0.073 C  
HETATM   18  O   UNL     1      -7.547   2.825  68.309  1.00  0.00    -0.055 OA 
BRANCH  17  19
HETATM   19  O   UNL     1      -8.307   4.302  69.895  1.00  0.00    -0.061 OA 
BRANCH  19  20
HETATM   20  C   UNL     1      -9.613   4.150  70.473  1.00  0.00    -0.191 C  
HETATM   21  C   UNL     1      -9.482   4.132  71.985  1.00  0.00    -0.195 C  
ENDBRANCH  19  20
ENDBRANCH  17  19
ENDBRANCH  16  17
ENDBRANCH  14  16
ENDBRANCH  13  14
ENDBRANCH  11  13
ENDBRANCH   4  11
BRANCH   7  22
HETATM   22  N   UNL     1      -9.498  11.975  68.010  1.00  0.00    -0.193 N  
HETATM   23  H   UNL     1      -9.128  12.103  68.952  1.00  0.00     0.000 HD 
HETATM   24  C   UNL     1     -10.665  12.617  67.655  1.00  0.00    -0.218 C  
HETATM   25  O   UNL     1     -11.219  12.429  66.573  1.00  0.00    -0.285 OA 
BRANCH  24  26
HETATM   26  C   UNL     1     -11.220  13.578  68.732  1.00  0.00    -0.274 C  
HETATM   27  N   UNL     1     -10.116  14.407  69.290  1.00  0.00    -0.421 NA 
HETATM   28  H2  UNL     1      -9.605  14.905  68.560  1.00  0.00     0.000 HD 
HETATM   29  H1  UNL     1     -10.481  15.041  70.001  1.00  0.00     0.000 HD 
BRANCH  26  30
HETATM   30  C   UNL     1     -11.982  12.830  69.811  1.00  0.00    -0.362 A  
HETATM   31  C   UNL     1     -12.590  13.550  70.853  1.00  0.00    -0.414 A  
HETATM   32  C   UNL     1     -13.288  12.890  71.867  1.00  0.00    -0.530 A  
HETATM   33  C   UNL     1     -13.394  11.501  71.851  1.00  0.00    -0.408 A  
HETATM   34  C   UNL     1     -12.816  10.773  70.814  1.00  0.00    -0.408 A  
HETATM   35  C   UNL     1     -12.122  11.432  69.797  1.00  0.00    -0.388 A  
ENDBRANCH  26  30
ENDBRANCH  24  26
ENDBRANCH   7  22
TORSDOF 10
ENDMDL
MODEL      190
REMARK 921   NORMALIZED FREE ENERGY PREDICTED BY IDOCK:   -3.93 KCAL/MOL
REMARK 922        TOTAL FREE ENERGY PREDICTED BY IDOCK:   -7.49 KCAL/MOL
REMARK 923 INTER-LIGAND FREE ENERGY PREDICTED BY IDOCK:   -6.69 KCAL/MOL
REMARK 924 INTRA-LIGAND FREE ENERGY PREDICTED BY IDOCK:   -0.80 KCAL/MOL
REMARK 927      BINDING AFFINITY PREDICTED BY RF-SCORE:    0.00 PKD
ROOT
HETATM    1  C   UNL     1      -7.530   9.502  68.092  1.00  0.00    -0.079 C  
HETATM    2  S   UNL     1      -7.995  10.275  69.709  1.00  0.00    -0.063 SA 
HETATM    3  C   UNL     1      -9.219   8.957  70.146  1.00  0.00    -0.180 C  
HETATM    4  C   UNL     1      -8.844   7.737  69.280  1.00  0.00    -0.139 C  
HETATM    5  C   UNL     1      -9.201   8.702  71.654  1.00  0.00    -0.326 C  
HETATM    6  C   UNL     1     -10.618   9.505  69.788  1.00  0.00    -0.257 C  
HETATM    7  C   UNL     1      -8.283   9.983  66.820  1.00  0.00    -0.121 C  
HETATM    8  N   UNL     1      -8.313   8.256  68.020  1.00  0.00    -0.128 N  
HETATM    9  O   UNL     1     -10.240   8.332  66.690  1.00  0.00    -0.290 OA 
HETATM   10  C   UNL     1      -9.146   8.716  67.036  1.00  0.00    -0.138 C  
ENDROOT
BRANCH   4  11
HETATM   11  C   UNL     1      -7.789   6.775  69.865  1.00  0.00    -0.115 C  
HETATM   12  O   UNL     1      -6.582   6.974  69.921  1.00  0.00    -0.042 OA 
BRANCH  11  13
HETATM   13  O   UNL     1      -8.374   5.598  70.234  1.00  0.00    -0.108 OA 
BRANCH  13  14
HETATM   14  C   UNL     1      -9.487   5.231  69.403  1.00  0.00    -0.138 C  
HETATM   15  C   UNL     1      -9.191   3.946  68.646  1.00  0.00    -0.211 C  
BRANCH  14  16
HETATM   16  O   UNL     1     -10.622   4.958  70.237  1.00  0.00    -0.184 OA 
BRANCH  16  17
HETATM   17  C   UNL     1     -10.281   4.672  71.516  1.00  0.00    -0.154 C  
HETATM   18  O   UNL     1      -9.820   3.609  71.906  1.00  0.00    -0.159 OA 
BRANCH  17  19
HETATM   19  O   UNL     1     -10.655   5.712  72.299  1.00  0.00    -0.205 OA 
BRANCH  19  20
HETATM   20  C   UNL     1     -10.879   5.379  73.677  1.00  0.00    -0.272 C  
HETATM   21  C   UNL     1     -10.055   6.311  74.548  1.00  0.00    -0.353 C  
ENDBRANCH  19  20
ENDBRANCH  17  19
ENDBRANCH  16  17
ENDBRANCH  14  16
ENDBRANCH  13  14
ENDBRANCH  11  13
ENDBRANCH   4  11
BRANCH   7  22
HETATM   22  N   UNL     1      -8.991  11.282  66.897  1.00  0.00    -0.158 N  
HETATM   23  H   UNL     1     -10.010  11.294  66.852  1.00  0.00     0.000 HD 
HETATM   24  C   UNL     1      -8.312  12.475  67.026  1.00  0.00    -0.144 C  
HETATM   25  O   UNL     1      -7.085  12.543  66.986  1.00  0.00    -0.094 OA 
BRANCH  24  26
HETATM   26  C   UNL     1      -9.222  13.712  67.210  1.00  0.00    -0.232 C  
HETATM   27  N   UNL     1      -9.682  13.798  68.624  1.00  0.00    -0.359 NA 
HETATM   28  H2  UNL     1      -8.901  13.795  69.281  1.00  0.00     0.000 HD 
HETATM   29  H1  UNL     1     -10.283  14.613  68.746  1.00  0.00     0.000 HD 
BRANCH  26  30
HETATM   30  C   UNL     1     -10.378  13.709  66.226  1.00  0.00    -0.293 A  
HETATM   31  C   UNL     1     -11.681  13.956  66.689  1.00  0.00    -0.417 A  
HETATM   32  C   UNL     1     -12.766  13.949  65.811  1.00  0.00    -0.503 A  
HETATM   33  C   UNL     1     -12.565  13.702  64.454  1.00  0.00    -0.220 A  
HETATM   34  C   UNL     1     -11.277  13.477  63.975  1.00  0.00    -0.259 A  
HETATM   35  C   UNL     1     -10.190  13.489  64.852  1.00  0.00    -0.351 A  
ENDBRANCH  26  30
ENDBRANCH  24  26
ENDBRANCH   7  22
TORSDOF 10
ENDMDL
MODEL      191
REMARK 921   NORMALIZED FREE ENERGY PREDICTED BY IDOCK:   -3.92 KCAL/MOL
REMARK 922        TOTAL FREE ENERGY PREDICTED BY IDOCK:   -7.48 KCAL/MOL
REMARK 923 INTER-LIGAND FREE ENERGY PREDICTED BY IDOCK:   -6.74 KCAL/MOL
REMARK 924 INTRA-LIGAND FREE ENERGY PREDICTED BY IDOCK:   -0.73 KCAL/MOL
REMARK 927      BINDING AFFINITY PREDICTED BY RF-SCORE:    0.00 PKD
ROOT
HETATM    1  C   UNL     1      -9.231  13.109  66.251  1.00  0.00    -0.060 C  
HETATM    2  S   UNL     1      -9.585  12.553  67.980  1.00  0.00    -0.215 SA 
HETATM    3  C   UNL     1     -10.708  11.178  67.457  1.00  0.00    -0.236 C  
HETATM    4  C   UNL     1     -10.359  10.894  65.982  1.00  0.00    -0.245 C  
HETATM    5  C   UNL     1     -10.547   9.981  68.395  1.00  0.00    -0.253 C  
HETATM    6  C   UNL     1     -12.155  11.694  67.614  1.00  0.00     0.133 C  
HETATM    7  C   UNL     1     -10.113  14.248  65.666  1.00  0.00    -0.341 C  
HETATM    8  N   UNL     1      -9.964  12.169  65.384  1.00  0.00    -0.255 N  
HETATM    9  O   UNL     1     -12.002  12.942  64.526  1.00  0.00    -0.354 OA 
HETATM   10  C   UNL     1     -10.899  13.092  65.001  1.00  0.00    -0.308 C  
ENDROOT
BRANCH   4  11
HETATM   11  C   UNL     1      -9.217   9.889  65.724  1.00  0.00    -0.179 C  
HETATM   12  O   UNL     1      -9.284   8.672  65.843  1.00  0.00    -0.203 OA 
BRANCH  11  13
HETATM   13  O   UNL     1      -8.060  10.552  65.433  1.00  0.00    -0.155 OA 
BRANCH  13  14
HETATM   14  C   UNL     1      -6.906   9.996  66.084  1.00  0.00    -0.102 C  
HETATM   15  C   UNL     1      -5.636  10.360  65.329  1.00  0.00    -0.129 C  
BRANCH  14  16
HETATM   16  O   UNL     1      -6.782  10.574  67.390  1.00  0.00    -0.069 OA 
BRANCH  16  17
HETATM   17  C   UNL     1      -6.647   9.646  68.367  1.00  0.00    -0.053 C  
HETATM   18  O   UNL     1      -6.917   8.458  68.259  1.00  0.00    -0.070 OA 
BRANCH  17  19
HETATM   19  O   UNL     1      -6.287  10.279  69.509  1.00  0.00    -0.046 OA 
BRANCH  19  20
HETATM   20  C   UNL     1      -6.782   9.676  70.714  1.00  0.00    -0.094 C  
HETATM   21  C   UNL     1      -5.630   9.514  71.691  1.00  0.00    -0.068 C  
ENDBRANCH  19  20
ENDBRANCH  17  19
ENDBRANCH  16  17
ENDBRANCH  14  16
ENDBRANCH  13  14
ENDBRANCH  11  13
ENDBRANCH   4  11
BRANCH   7  22
HETATM   22  N   UNL     1     -10.867  15.089  66.625  1.00  0.00    -0.314 N  
HETATM   23  H   UNL     1     -11.886  15.045  66.627  1.00  0.00     0.000 HD 
HETATM   24  C   UNL     1     -10.230  15.929  67.513  1.00  0.00    -0.269 C  
HETATM   25  O   UNL     1      -9.014  16.106  67.498  1.00  0.00    -0.189 OA 
BRANCH  24  26
HETATM   26  C   UNL     1     -11.174  16.635  68.514  1.00  0.00    -0.239 C  
HETATM   27  N   UNL     1     -10.571  17.921  68.961  1.00  0.00    -0.361 NA 
HETATM   28  H2  UNL     1     -10.326  18.523  68.175  1.00  0.00     0.000 HD 
HETATM   29  H1  UNL     1     -11.193  18.387  69.622  1.00  0.00     0.000 HD 
BRANCH  26  30
HETATM   30  C   UNL     1     -11.535  15.731  69.679  1.00  0.00    -0.348 A  
HETATM   31  C   UNL     1     -12.171  14.503  69.429  1.00  0.00    -0.285 A  
HETATM   32  C   UNL     1     -12.526  13.655  70.480  1.00  0.00    -0.394 A  
HETATM   33  C   UNL     1     -12.246  14.017  71.795  1.00  0.00    -0.170 A  
HETATM   34  C   UNL     1     -11.596  15.220  72.059  1.00  0.00    -0.529 A  
HETATM   35  C   UNL     1     -11.236  16.067  71.009  1.00  0.00    -0.347 A  
ENDBRANCH  26  30
ENDBRANCH  24  26
ENDBRANCH   7  22
TORSDOF 10
ENDMDL
MODEL      192
REMARK 921   NORMALIZED FREE ENERGY PREDICTED BY IDOCK:   -3.92 KCAL/MOL
REMARK 922        TOTAL FREE ENERGY PREDICTED BY IDOCK:   -7.48 KCAL/MOL
REMARK 923 INTER-LIGAND FREE ENERGY PREDICTED BY IDOCK:   -7.66 KCAL/MOL
REMARK 924 INTRA-LIGAND FREE ENERGY PREDICTED BY IDOCK:    0.19 KCAL/MOL
REMARK 927      BINDING AFFINITY PREDICTED BY RF-SCORE:    0.00 PKD
ROOT
HETATM    1  C   UNL     1      -8.897  13.845  67.728  1.00  0.00    -0.189 C  
HETATM    2  S   UNL     1      -9.681  14.398  69.311  1.00  0.00     0.188 SA 
HETATM    3  C   UNL     1     -11.172  15.118  68.484  1.00  0.00    -0.293 C  
HETATM    4  C   UNL     1     -11.238  14.454  67.094  1.00  0.00    -0.328 C  
HETATM    5  C   UNL     1     -12.411  14.904  69.354  1.00  0.00    -0.168 C  
HETATM    6  C   UNL     1     -10.937  16.641  68.381  1.00  0.00    -0.345 C  
HETATM    7  C   UNL     1      -7.878  14.806  67.054  1.00  0.00    -0.054 C  
HETATM    8  N   UNL     1      -9.858  14.209  66.672  1.00  0.00    -0.273 N  
HETATM    9  O   UNL     1      -9.374  16.163  65.475  1.00  0.00    -0.405 OA 
HETATM   10  C   UNL     1      -9.081  15.217  66.170  1.00  0.00    -0.279 C  
ENDROOT
BRANCH   4  11
HETATM   11  C   UNL     1     -11.993  13.112  67.005  1.00  0.00    -0.355 C  
HETATM   12  O   UNL     1     -12.407  12.582  65.981  1.00  0.00    -0.615 OA 
BRANCH  11  13
HETATM   13  O   UNL     1     -12.234  12.620  68.255  1.00  0.00    -0.185 OA 
BRANCH  13  14
HETATM   14  C   UNL     1     -11.370  11.529  68.614  1.00  0.00    -0.269 C  
HETATM   15  C   UNL     1     -11.545  11.167  70.080  1.00  0.00    -0.410 C  
BRANCH  14  16
HETATM   16  O   UNL     1     -11.745  10.368  67.861  1.00  0.00    -0.377 OA 
BRANCH  16  17
HETATM   17  C   UNL     1     -10.680   9.640  67.448  1.00  0.00    -0.241 C  
HETATM   18  O   UNL     1      -9.731  10.072  66.809  1.00  0.00    -0.174 OA 
BRANCH  17  19
HETATM   19  O   UNL     1     -10.908   8.341  67.753  1.00  0.00    -0.138 OA 
BRANCH  19  20
HETATM   20  C   UNL     1     -10.256   7.879  68.946  1.00  0.00    -0.205 C  
HETATM   21  C   UNL     1     -10.243   6.360  68.942  1.00  0.00    -0.215 C  
ENDBRANCH  19  20
ENDBRANCH  17  19
ENDBRANCH  16  17
ENDBRANCH  14  16
ENDBRANCH  13  14
ENDBRANCH  11  13
ENDBRANCH   4  11
BRANCH   7  22
HETATM   22  N   UNL     1      -7.286  15.872  67.895  1.00  0.00    -0.127 N  
HETATM   23  H   UNL     1      -7.862  16.315  68.611  1.00  0.00     0.000 HD 
HETATM   24  C   UNL     1      -5.979  16.282  67.738  1.00  0.00    -0.138 C  
HETATM   25  O   UNL     1      -5.261  15.863  66.832  1.00  0.00    -0.295 OA 
BRANCH  24  26
HETATM   26  C   UNL     1      -5.503  17.317  68.783  1.00  0.00    -0.148 C  
HETATM   27  N   UNL     1      -6.184  17.074  70.085  1.00  0.00    -0.050 NA 
HETATM   28  H2  UNL     1      -6.057  16.115  70.410  1.00  0.00     0.000 HD 
HETATM   29  H1  UNL     1      -5.871  17.757  70.775  1.00  0.00     0.000 HD 
BRANCH  26  30
HETATM   30  C   UNL     1      -5.692  18.740  68.290  1.00  0.00    -0.190 A  
HETATM   31  C   UNL     1      -6.149  18.963  66.980  1.00  0.00    -0.173 A  
HETATM   32  C   UNL     1      -6.322  20.260  66.493  1.00  0.00    -0.233 A  
HETATM   33  C   UNL     1      -6.046  21.355  67.310  1.00  0.00    -0.409 A  
HETATM   34  C   UNL     1      -5.613  21.152  68.618  1.00  0.00    -0.327 A  
HETATM   35  C   UNL     1      -5.445  19.855  69.108  1.00  0.00    -0.239 A  
ENDBRANCH  26  30
ENDBRANCH  24  26
ENDBRANCH   7  22
TORSDOF 10
ENDMDL
MODEL      193
REMARK 921   NORMALIZED FREE ENERGY PREDICTED BY IDOCK:   -3.92 KCAL/MOL
REMARK 922        TOTAL FREE ENERGY PREDICTED BY IDOCK:   -7.47 KCAL/MOL
REMARK 923 INTER-LIGAND FREE ENERGY PREDICTED BY IDOCK:   -6.17 KCAL/MOL
REMARK 924 INTRA-LIGAND FREE ENERGY PREDICTED BY IDOCK:   -1.29 KCAL/MOL
REMARK 927      BINDING AFFINITY PREDICTED BY RF-SCORE:    0.00 PKD
ROOT
HETATM    1  C   UNL     1      -8.145   9.835  67.671  1.00  0.00    -0.113 C  
HETATM    2  S   UNL     1      -9.053  10.537  69.123  1.00  0.00    -0.131 SA 
HETATM    3  C   UNL     1     -10.687   9.829  68.621  1.00  0.00    -0.216 C  
HETATM    4  C   UNL     1     -10.361   8.676  67.650  1.00  0.00    -0.254 C  
HETATM    5  C   UNL     1     -11.484   9.416  69.860  1.00  0.00    -0.054 C  
HETATM    6  C   UNL     1     -11.473  10.960  67.924  1.00  0.00    -0.344 C  
HETATM    7  C   UNL     1      -7.987  10.737  66.415  1.00  0.00    -0.151 C  
HETATM    8  N   UNL     1      -9.152   9.062  66.922  1.00  0.00    -0.129 N  
HETATM    9  O   UNL     1     -10.051  10.110  65.030  1.00  0.00    -0.330 OA 
HETATM   10  C   UNL     1      -9.204   9.946  65.879  1.00  0.00    -0.176 C  
ENDROOT
BRANCH   4  11
HETATM   11  C   UNL     1     -10.098   7.294  68.283  1.00  0.00    -0.170 C  
HETATM   12  O   UNL     1     -10.933   6.420  68.483  1.00  0.00    -0.290 OA 
BRANCH  11  13
HETATM   13  O   UNL     1      -8.799   7.199  68.692  1.00  0.00    -0.127 OA 
BRANCH  13  14
HETATM   14  C   UNL     1      -8.635   6.419  69.888  1.00  0.00    -0.138 C  
HETATM   15  C   UNL     1      -7.512   5.407  69.718  1.00  0.00    -0.066 C  
BRANCH  14  16
HETATM   16  O   UNL     1      -8.243   7.285  70.961  1.00  0.00    -0.106 OA 
BRANCH  16  17
HETATM   17  C   UNL     1      -9.231   7.485  71.866  1.00  0.00    -0.132 C  
HETATM   18  O   UNL     1      -9.339   8.463  72.593  1.00  0.00    -0.262 OA 
BRANCH  17  19
HETATM   19  O   UNL     1      -9.997   6.369  71.913  1.00  0.00    -0.176 OA 
BRANCH  19  20
HETATM   20  C   UNL     1     -10.121   5.779  73.216  1.00  0.00    -0.188 C  
HETATM   21  C   UNL     1     -11.424   5.003  73.282  1.00  0.00    -0.339 C  
ENDBRANCH  19  20
ENDBRANCH  17  19
ENDBRANCH  16  17
ENDBRANCH  14  16
ENDBRANCH  13  14
ENDBRANCH  11  13
ENDBRANCH   4  11
BRANCH   7  22
HETATM   22  N   UNL     1      -8.177  12.196  66.594  1.00  0.00    -0.375 N  
HETATM   23  H   UNL     1      -9.057  12.620  66.300  1.00  0.00     0.000 HD 
HETATM   24  C   UNL     1      -7.199  12.996  67.146  1.00  0.00     0.061 C  
HETATM   25  O   UNL     1      -6.081  12.570  67.429  1.00  0.00    -0.143 OA 
BRANCH  24  26
HETATM   26  C   UNL     1      -7.624  14.467  67.363  1.00  0.00    -0.172 C  
HETATM   27  N   UNL     1      -6.875  15.047  68.511  1.00  0.00    -0.098 NA 
HETATM   28  H2  UNL     1      -5.865  14.952  68.397  1.00  0.00     0.000 HD 
HETATM   29  H1  UNL     1      -7.154  16.018  68.655  1.00  0.00     0.000 HD 
BRANCH  26  30
HETATM   30  C   UNL     1      -9.127  14.599  67.527  1.00  0.00    -0.192 A  
HETATM   31  C   UNL     1      -9.704  14.398  68.792  1.00  0.00    -0.190 A  
HETATM   32  C   UNL     1     -11.085  14.500  68.973  1.00  0.00    -0.279 A  
HETATM   33  C   UNL     1     -11.909  14.812  67.894  1.00  0.00    -0.327 A  
HETATM   34  C   UNL     1     -11.352  15.036  66.638  1.00  0.00    -0.289 A  
HETATM   35  C   UNL     1      -9.970  14.939  66.456  1.00  0.00    -0.277 A  
ENDBRANCH  26  30
ENDBRANCH  24  26
ENDBRANCH   7  22
TORSDOF 10
ENDMDL
MODEL      194
REMARK 921   NORMALIZED FREE ENERGY PREDICTED BY IDOCK:   -3.91 KCAL/MOL
REMARK 922        TOTAL FREE ENERGY PREDICTED BY IDOCK:   -7.45 KCAL/MOL
REMARK 923 INTER-LIGAND FREE ENERGY PREDICTED BY IDOCK:   -6.78 KCAL/MOL
REMARK 924 INTRA-LIGAND FREE ENERGY PREDICTED BY IDOCK:   -0.67 KCAL/MOL
REMARK 927      BINDING AFFINITY PREDICTED BY RF-SCORE:    0.00 PKD
ROOT
HETATM    1  C   UNL     1      -8.007  11.657  68.989  1.00  0.00     0.063 C  
HETATM    2  S   UNL     1      -9.771  11.325  68.539  1.00  0.00    -0.193 SA 
HETATM    3  C   UNL     1      -9.381   9.801  67.563  1.00  0.00    -0.133 C  
HETATM    4  C   UNL     1      -7.992   9.341  68.048  1.00  0.00    -0.100 C  
HETATM    5  C   UNL     1     -10.494   8.767  67.734  1.00  0.00    -0.292 C  
HETATM    6  C   UNL     1      -9.360  10.213  66.075  1.00  0.00    -0.216 C  
HETATM    7  C   UNL     1      -7.201  12.625  68.077  1.00  0.00    -0.112 C  
HETATM    8  N   UNL     1      -7.241  10.547  68.397  1.00  0.00    -0.078 N  
HETATM    9  O   UNL     1      -6.139  11.018  66.385  1.00  0.00    -0.115 OA 
HETATM   10  C   UNL     1      -6.662  11.325  67.432  1.00  0.00    -0.085 C  
ENDROOT
BRANCH   4  11
HETATM   11  C   UNL     1      -7.964   8.408  69.277  1.00  0.00    -0.113 C  
HETATM   12  O   UNL     1      -8.068   7.187  69.260  1.00  0.00    -0.117 OA 
BRANCH  11  13
HETATM   13  O   UNL     1      -7.905   9.140  70.427  1.00  0.00    -0.098 OA 
BRANCH  13  14
HETATM   14  C   UNL     1      -7.955   8.336  71.617  1.00  0.00    -0.128 C  
HETATM   15  C   UNL     1      -6.710   8.551  72.463  1.00  0.00    -0.084 C  
BRANCH  14  16
HETATM   16  O   UNL     1      -9.068   8.756  72.418  1.00  0.00    -0.366 OA 
BRANCH  16  17
HETATM   17  C   UNL     1      -9.545   7.770  73.216  1.00  0.00    -0.283 C  
HETATM   18  O   UNL     1      -8.882   7.117  74.009  1.00  0.00    -0.163 OA 
BRANCH  17  19
HETATM   19  O   UNL     1     -10.842   7.552  72.893  1.00  0.00    -0.307 OA 
BRANCH  19  20
HETATM   20  C   UNL     1     -11.055   7.037  71.570  1.00  0.00    -0.243 C  
HETATM   21  C   UNL     1     -11.079   5.519  71.632  1.00  0.00    -0.192 C  
ENDBRANCH  19  20
ENDBRANCH  17  19
ENDBRANCH  16  17
ENDBRANCH  14  16
ENDBRANCH  13  14
ENDBRANCH  11  13
ENDBRANCH   4  11
BRANCH   7  22
HETATM   22  N   UNL     1      -7.971  13.528  67.191  1.00  0.00    -0.356 N  
HETATM   23  H   UNL     1      -8.364  13.156  66.326  1.00  0.00     0.000 HD 
HETATM   24  C   UNL     1      -8.172  14.856  67.502  1.00  0.00    -0.182 C  
HETATM   25  O   UNL     1      -7.644  15.393  68.474  1.00  0.00    -0.115 OA 
BRANCH  24  26
HETATM   26  C   UNL     1      -9.099  15.610  66.520  1.00  0.00    -0.303 C  
HETATM   27  N   UNL     1      -9.472  16.934  67.089  1.00  0.00    -0.233 NA 
HETATM   28  H2  UNL     1      -8.653  17.486  67.343  1.00  0.00     0.000 HD 
HETATM   29  H1  UNL     1     -10.084  17.431  66.442  1.00  0.00     0.000 HD 
BRANCH  26  30
HETATM   30  C   UNL     1     -10.313  14.779  66.145  1.00  0.00    -0.314 A  
HETATM   31  C   UNL     1     -11.408  14.720  67.023  1.00  0.00    -0.358 A  
HETATM   32  C   UNL     1     -12.534  13.955  66.712  1.00  0.00    -0.254 A  
HETATM   33  C   UNL     1     -12.585  13.243  65.515  1.00  0.00    -0.505 A  
HETATM   34  C   UNL     1     -11.518  13.308  64.623  1.00  0.00    -0.373 A  
HETATM   35  C   UNL     1     -10.393  14.077  64.931  1.00  0.00    -0.434 A  
ENDBRANCH  26  30
ENDBRANCH  24  26
ENDBRANCH   7  22
TORSDOF 10
ENDMDL
MODEL      195
REMARK 921   NORMALIZED FREE ENERGY PREDICTED BY IDOCK:   -3.90 KCAL/MOL
REMARK 922        TOTAL FREE ENERGY PREDICTED BY IDOCK:   -7.45 KCAL/MOL
REMARK 923 INTER-LIGAND FREE ENERGY PREDICTED BY IDOCK:   -6.62 KCAL/MOL
REMARK 924 INTRA-LIGAND FREE ENERGY PREDICTED BY IDOCK:   -0.83 KCAL/MOL
REMARK 927      BINDING AFFINITY PREDICTED BY RF-SCORE:    0.00 PKD
ROOT
HETATM    1  C   UNL     1      -8.394  15.927  69.592  1.00  0.00     0.064 C  
HETATM    2  S   UNL     1      -9.415  17.038  68.520  1.00  0.00    -0.276 SA 
HETATM    3  C   UNL     1      -9.258  15.967  67.019  1.00  0.00    -0.214 C  
HETATM    4  C   UNL     1      -8.862  14.571  67.543  1.00  0.00    -0.188 C  
HETATM    5  C   UNL     1     -10.554  16.002  66.209  1.00  0.00    -0.288 C  
HETATM    6  C   UNL     1      -8.148  16.584  66.140  1.00  0.00    -0.242 C  
HETATM    7  C   UNL     1      -6.875  16.236  69.709  1.00  0.00    -0.026 C  
HETATM    8  N   UNL     1      -8.040  14.782  68.735  1.00  0.00    -0.152 N  
HETATM    9  O   UNL     1      -5.882  14.811  67.824  1.00  0.00    -0.211 OA 
HETATM   10  C   UNL     1      -6.721  15.134  68.633  1.00  0.00    -0.093 C  
ENDROOT
BRANCH   4  11
HETATM   11  C   UNL     1     -10.018  13.629  67.939  1.00  0.00    -0.244 C  
HETATM   12  O   UNL     1     -10.613  13.627  69.010  1.00  0.00    -0.213 OA 
BRANCH  11  13
HETATM   13  O   UNL     1     -10.236  12.708  66.957  1.00  0.00    -0.224 OA 
BRANCH  13  14
HETATM   14  C   UNL     1      -9.125  11.821  66.751  1.00  0.00    -0.194 C  
HETATM   15  C   UNL     1      -8.849  11.007  68.006  1.00  0.00    -0.138 C  
BRANCH  14  16
HETATM   16  O   UNL     1      -9.461  10.879  65.723  1.00  0.00    -0.193 OA 
BRANCH  16  17
HETATM   17  C   UNL     1      -8.412  10.109  65.349  1.00  0.00    -0.156 C  
HETATM   18  O   UNL     1      -7.267  10.503  65.183  1.00  0.00    -0.113 OA 
BRANCH  17  19
HETATM   19  O   UNL     1      -8.874   8.866  65.071  1.00  0.00    -0.190 OA 
BRANCH  19  20
HETATM   20  C   UNL     1      -9.895   8.390  65.961  1.00  0.00    -0.012 C  
HETATM   21  C   UNL     1      -9.295   7.340  66.880  1.00  0.00    -0.192 C  
ENDBRANCH  19  20
ENDBRANCH  17  19
ENDBRANCH  16  17
ENDBRANCH  14  16
ENDBRANCH  13  14
ENDBRANCH  11  13
ENDBRANCH   4  11
BRANCH   7  22
HETATM   22  N   UNL     1      -6.423  17.595  69.328  1.00  0.00    -0.239 N  
HETATM   23  H   UNL     1      -6.701  17.973  68.422  1.00  0.00     0.000 HD 
HETATM   24  C   UNL     1      -5.639  18.362  70.162  1.00  0.00    -0.243 C  
HETATM   25  O   UNL     1      -5.186  17.933  71.221  1.00  0.00    -0.376 OA 
BRANCH  24  26
HETATM   26  C   UNL     1      -5.368  19.795  69.646  1.00  0.00    -0.205 C  
HETATM   27  N   UNL     1      -5.872  20.793  70.629  1.00  0.00    -0.521 NA 
HETATM   28  H2  UNL     1      -5.484  20.641  71.561  1.00  0.00     0.000 HD 
HETATM   29  H1  UNL     1      -5.694  21.738  70.289  1.00  0.00     0.000 HD 
BRANCH  26  30
HETATM   30  C   UNL     1      -5.944  20.009  68.258  1.00  0.00    -0.284 A  
HETATM   31  C   UNL     1      -7.338  20.070  68.090  1.00  0.00    -0.315 A  
HETATM   32  C   UNL     1      -7.898  20.254  66.825  1.00  0.00    -0.332 A  
HETATM   33  C   UNL     1      -7.075  20.388  65.709  1.00  0.00    -0.234 A  
HETATM   34  C   UNL     1      -5.691  20.352  65.860  1.00  0.00    -0.211 A  
HETATM   35  C   UNL     1      -5.129  20.173  67.126  1.00  0.00    -0.161 A  
ENDBRANCH  26  30
ENDBRANCH  24  26
ENDBRANCH   7  22
TORSDOF 10
ENDMDL
MODEL      196
REMARK 921   NORMALIZED FREE ENERGY PREDICTED BY IDOCK:   -3.89 KCAL/MOL
REMARK 922        TOTAL FREE ENERGY PREDICTED BY IDOCK:   -7.42 KCAL/MOL
REMARK 923 INTER-LIGAND FREE ENERGY PREDICTED BY IDOCK:   -6.21 KCAL/MOL
REMARK 924 INTRA-LIGAND FREE ENERGY PREDICTED BY IDOCK:   -1.21 KCAL/MOL
REMARK 927      BINDING AFFINITY PREDICTED BY RF-SCORE:    0.00 PKD
ROOT
HETATM    1  C   UNL     1     -11.184   6.613  68.627  1.00  0.00    -0.157 C  
HETATM    2  S   UNL     1      -9.995   6.234  69.993  1.00  0.00    -0.176 SA 
HETATM    3  C   UNL     1      -8.978   7.756  69.719  1.00  0.00    -0.146 C  
HETATM    4  C   UNL     1      -9.885   8.727  68.936  1.00  0.00    -0.178 C  
HETATM    5  C   UNL     1      -8.466   8.295  71.055  1.00  0.00    -0.150 C  
HETATM    6  C   UNL     1      -7.746   7.330  68.891  1.00  0.00    -0.116 C  
HETATM    7  C   UNL     1     -10.898   5.993  67.230  1.00  0.00    -0.315 C  
HETATM    8  N   UNL     1     -10.746   7.910  68.081  1.00  0.00    -0.103 N  
HETATM    9  O   UNL     1      -9.501   7.821  66.099  1.00  0.00    -0.157 OA 
HETATM   10  C   UNL     1     -10.282   7.376  66.910  1.00  0.00    -0.276 C  
ENDROOT
BRANCH   4  11
HETATM   11  C   UNL     1     -10.801   9.643  69.774  1.00  0.00    -0.250 C  
HETATM   12  O   UNL     1     -11.789   9.292  70.408  1.00  0.00    -0.191 OA 
BRANCH  11  13
HETATM   13  O   UNL     1     -10.418  10.946  69.640  1.00  0.00    -0.196 OA 
BRANCH  13  14
HETATM   14  C   UNL     1     -11.214  11.678  68.693  1.00  0.00    -0.250 C  
HETATM   15  C   UNL     1     -11.598  13.039  69.254  1.00  0.00    -0.367 C  
BRANCH  14  16
HETATM   16  O   UNL     1     -10.431  11.929  67.518  1.00  0.00    -0.203 OA 
BRANCH  16  17
HETATM   17  C   UNL     1     -11.147  12.498  66.519  1.00  0.00    -0.287 C  
HETATM   18  O   UNL     1     -12.237  12.113  66.120  1.00  0.00    -0.611 OA 
BRANCH  17  19
HETATM   19  O   UNL     1     -10.395  13.477  65.962  1.00  0.00    -0.289 OA 
BRANCH  19  20
HETATM   20  C   UNL     1     -10.931  14.801  66.100  1.00  0.00    -0.332 C  
HETATM   21  C   UNL     1     -11.356  15.305  64.732  1.00  0.00    -0.396 C  
ENDBRANCH  19  20
ENDBRANCH  17  19
ENDBRANCH  16  17
ENDBRANCH  14  16
ENDBRANCH  13  14
ENDBRANCH  11  13
ENDBRANCH   4  11
BRANCH   7  22
HETATM   22  N   UNL     1      -9.977   4.833  67.174  1.00  0.00    -0.195 N  
HETATM   23  H   UNL     1      -9.421   4.602  67.997  1.00  0.00     0.000 HD 
HETATM   24  C   UNL     1      -9.851   4.059  66.040  1.00  0.00    -0.166 C  
HETATM   25  O   UNL     1     -10.414   4.339  64.984  1.00  0.00    -0.243 OA 
BRANCH  24  26
HETATM   26  C   UNL     1      -8.934   2.824  66.209  1.00  0.00    -0.143 C  
HETATM   27  N   UNL     1      -8.608   2.626  67.648  1.00  0.00    -0.092 NA 
HETATM   28  H2  UNL     1      -9.448   2.562  68.225  1.00  0.00     0.000 HD 
HETATM   29  H1  UNL     1      -8.004   1.813  67.760  1.00  0.00     0.000 HD 
BRANCH  26  30
HETATM   30  C   UNL     1      -7.691   2.927  65.344  1.00  0.00    -0.081 A  
HETATM   31  C   UNL     1      -7.508   2.020  64.287  1.00  0.00    -0.059 A  
HETATM   32  C   UNL     1      -6.369   2.081  63.481  1.00  0.00    -0.014 A  
HETATM   33  C   UNL     1      -5.399   3.053  63.715  1.00  0.00    -0.009 A  
HETATM   34  C   UNL     1      -5.575   3.974  64.745  1.00  0.00    -0.014 A  
HETATM   35  C   UNL     1      -6.716   3.917  65.549  1.00  0.00    -0.049 A  
ENDBRANCH  26  30
ENDBRANCH  24  26
ENDBRANCH   7  22
TORSDOF 10
ENDMDL
MODEL      197
REMARK 921   NORMALIZED FREE ENERGY PREDICTED BY IDOCK:   -3.88 KCAL/MOL
REMARK 922        TOTAL FREE ENERGY PREDICTED BY IDOCK:   -7.42 KCAL/MOL
REMARK 923 INTER-LIGAND FREE ENERGY PREDICTED BY IDOCK:   -6.59 KCAL/MOL
REMARK 924 INTRA-LIGAND FREE ENERGY PREDICTED BY IDOCK:   -0.83 KCAL/MOL
REMARK 927      BINDING AFFINITY PREDICTED BY RF-SCORE:    0.00 PKD
ROOT
HETATM    1  C   UNL     1      -9.370  10.212  69.424  1.00  0.00    -0.219 C  
HETATM    2  S   UNL     1      -8.491   8.909  70.402  1.00  0.00    -0.186 SA 
HETATM    3  C   UNL     1      -7.939   7.963  68.909  1.00  0.00    -0.123 C  
HETATM    4  C   UNL     1      -8.020   8.958  67.733  1.00  0.00    -0.102 C  
HETATM    5  C   UNL     1      -6.551   7.367  69.148  1.00  0.00    -0.040 C  
HETATM    6  C   UNL     1      -8.923   6.787  68.733  1.00  0.00    -0.130 C  
HETATM    7  C   UNL     1     -10.890  10.015  69.167  1.00  0.00    -0.222 C  
HETATM    8  N   UNL     1      -9.140   9.857  68.013  1.00  0.00    -0.121 N  
HETATM    9  O   UNL     1     -10.906   8.767  66.927  1.00  0.00    -0.171 OA 
HETATM   10  C   UNL     1     -10.433   9.469  67.792  1.00  0.00    -0.254 C  
ENDROOT
BRANCH   4  11
HETATM   11  C   UNL     1      -6.775   9.834  67.483  1.00  0.00    -0.070 C  
HETATM   12  O   UNL     1      -5.787   9.908  68.204  1.00  0.00    -0.043 OA 
BRANCH  11  13
HETATM   13  O   UNL     1      -6.957  10.612  66.376  1.00  0.00    -0.114 OA 
BRANCH  13  14
HETATM   14  C   UNL     1      -6.493   9.994  65.164  1.00  0.00    -0.115 C  
HETATM   15  C   UNL     1      -5.184  10.621  64.710  1.00  0.00    -0.149 C  
BRANCH  14  16
HETATM   16  O   UNL     1      -6.213   8.611  65.422  1.00  0.00    -0.049 OA 
BRANCH  16  17
HETATM   17  C   UNL     1      -6.722   7.785  64.477  1.00  0.00    -0.052 C  
HETATM   18  O   UNL     1      -7.527   8.106  63.614  1.00  0.00    -0.106 OA 
BRANCH  17  19
HETATM   19  O   UNL     1      -6.286   6.528  64.732  1.00  0.00    -0.036 OA 
BRANCH  19  20
HETATM   20  C   UNL     1      -6.835   5.929  65.915  1.00  0.00    -0.060 C  
HETATM   21  C   UNL     1      -7.184   4.481  65.616  1.00  0.00    -0.072 C  
ENDBRANCH  19  20
ENDBRANCH  17  19
ENDBRANCH  16  17
ENDBRANCH  14  16
ENDBRANCH  13  14
ENDBRANCH  11  13
ENDBRANCH   4  11
BRANCH   7  22
HETATM   22  N   UNL     1     -11.615   9.066  70.044  1.00  0.00    -0.453 N  
HETATM   23  H   UNL     1     -11.631   8.077  69.796  1.00  0.00     0.000 HD 
HETATM   24  C   UNL     1     -12.267   9.482  71.185  1.00  0.00    -0.338 C  
HETATM   25  O   UNL     1     -12.373  10.669  71.489  1.00  0.00    -0.360 OA 
BRANCH  24  26
HETATM   26  C   UNL     1     -12.863   8.335  72.035  1.00  0.00    -0.340 C  
HETATM   27  N   UNL     1     -13.633   8.898  73.178  1.00  0.00    -0.998 NA 
HETATM   28  H2  UNL     1     -14.347   9.558  72.870  1.00  0.00     0.000 HD 
HETATM   29  H1  UNL     1     -14.026   8.142  73.739  1.00  0.00     0.000 HD 
BRANCH  26  30
HETATM   30  C   UNL     1     -11.794   7.357  72.484  1.00  0.00    -0.226 A  
HETATM   31  C   UNL     1     -10.682   7.828  73.202  1.00  0.00    -0.414 A  
HETATM   32  C   UNL     1      -9.676   6.955  73.619  1.00  0.00    -0.266 A  
HETATM   33  C   UNL     1      -9.768   5.595  73.331  1.00  0.00    -0.153 A  
HETATM   34  C   UNL     1     -10.874   5.106  72.639  1.00  0.00    -0.303 A  
HETATM   35  C   UNL     1     -11.884   5.978  72.226  1.00  0.00    -0.305 A  
ENDBRANCH  26  30
ENDBRANCH  24  26
ENDBRANCH   7  22
TORSDOF 10
ENDMDL
MODEL      198
REMARK 921   NORMALIZED FREE ENERGY PREDICTED BY IDOCK:   -3.87 KCAL/MOL
REMARK 922        TOTAL FREE ENERGY PREDICTED BY IDOCK:   -7.39 KCAL/MOL
REMARK 923 INTER-LIGAND FREE ENERGY PREDICTED BY IDOCK:   -6.79 KCAL/MOL
REMARK 924 INTRA-LIGAND FREE ENERGY PREDICTED BY IDOCK:   -0.60 KCAL/MOL
REMARK 927      BINDING AFFINITY PREDICTED BY RF-SCORE:    0.00 PKD
ROOT
HETATM    1  C   UNL     1      -8.618   9.696  67.360  1.00  0.00    -0.125 C  
HETATM    2  S   UNL     1      -9.087  10.586  68.914  1.00  0.00    -0.177 SA 
HETATM    3  C   UNL     1      -9.581   9.046  69.814  1.00  0.00    -0.175 C  
HETATM    4  C   UNL     1      -8.889   7.888  69.067  1.00  0.00    -0.145 C  
HETATM    5  C   UNL     1      -9.215   9.162  71.294  1.00  0.00    -0.261 C  
HETATM    6  C   UNL     1     -11.119   8.947  69.725  1.00  0.00    -0.099 C  
HETATM    7  C   UNL     1      -9.697   9.567  66.249  1.00  0.00    -0.245 C  
HETATM    8  N   UNL     1      -8.828   8.267  67.655  1.00  0.00    -0.136 N  
HETATM    9  O   UNL     1     -10.808   7.330  66.826  1.00  0.00    -0.311 OA 
HETATM   10  C   UNL     1      -9.924   8.156  66.844  1.00  0.00    -0.273 C  
ENDROOT
BRANCH   4  11
HETATM   11  C   UNL     1      -7.454   7.538  69.514  1.00  0.00    -0.093 C  
HETATM   12  O   UNL     1      -6.427   8.097  69.148  1.00  0.00    -0.038 OA 
BRANCH  11  13
HETATM   13  O   UNL     1      -7.463   6.433  70.315  1.00  0.00    -0.089 OA 
BRANCH  13  14
HETATM   14  C   UNL     1      -7.370   5.199  69.584  1.00  0.00    -0.061 C  
HETATM   15  C   UNL     1      -5.960   4.636  69.659  1.00  0.00    -0.018 C  
BRANCH  14  16
HETATM   16  O   UNL     1      -8.229   4.227  70.197  1.00  0.00    -0.058 OA 
BRANCH  16  17
HETATM   17  C   UNL     1      -9.544   4.504  70.028  1.00  0.00    -0.197 C  
HETATM   18  O   UNL     1     -10.362   4.633  70.927  1.00  0.00    -0.177 OA 
BRANCH  17  19
HETATM   19  O   UNL     1      -9.815   4.485  68.701  1.00  0.00    -0.156 OA 
BRANCH  19  20
HETATM   20  C   UNL     1      -8.998   3.590  67.931  1.00  0.00    -0.139 C  
HETATM   21  C   UNL     1      -9.516   2.174  68.112  1.00  0.00    -0.221 C  
ENDBRANCH  19  20
ENDBRANCH  17  19
ENDBRANCH  16  17
ENDBRANCH  14  16
ENDBRANCH  13  14
ENDBRANCH  11  13
ENDBRANCH   4  11
BRANCH   7  22
HETATM   22  N   UNL     1     -10.849  10.497  66.306  1.00  0.00    -0.066 N  
HETATM   23  H   UNL     1     -11.710  10.191  66.760  1.00  0.00     0.000 HD 
HETATM   24  C   UNL     1     -10.791  11.763  65.764  1.00  0.00    -0.291 C  
HETATM   25  O   UNL     1      -9.823  12.159  65.117  1.00  0.00    -0.247 OA 
BRANCH  24  26
HETATM   26  C   UNL     1     -12.045  12.630  66.025  1.00  0.00    -0.364 C  
HETATM   27  N   UNL     1     -12.370  13.431  64.813  1.00  0.00    -0.496 NA 
HETATM   28  H2  UNL     1     -12.474  12.846  63.984  1.00  0.00     0.000 HD 
HETATM   29  H1  UNL     1     -13.197  14.003  64.985  1.00  0.00     0.000 HD 
BRANCH  26  30
HETATM   30  C   UNL     1     -11.882  13.493  67.263  1.00  0.00    -0.427 A  
HETATM   31  C   UNL     1     -11.995  12.907  68.535  1.00  0.00    -0.272 A  
HETATM   32  C   UNL     1     -11.863  13.677  69.692  1.00  0.00    -0.396 A  
HETATM   33  C   UNL     1     -11.607  15.044  69.596  1.00  0.00    -0.333 A  
HETATM   34  C   UNL     1     -11.470  15.637  68.343  1.00  0.00    -0.374 A  
HETATM   35  C   UNL     1     -11.598  14.867  67.185  1.00  0.00    -0.327 A  
ENDBRANCH  26  30
ENDBRANCH  24  26
ENDBRANCH   7  22
TORSDOF 10
ENDMDL
MODEL      199
REMARK 921   NORMALIZED FREE ENERGY PREDICTED BY IDOCK:   -3.86 KCAL/MOL
REMARK 922        TOTAL FREE ENERGY PREDICTED BY IDOCK:   -7.38 KCAL/MOL
REMARK 923 INTER-LIGAND FREE ENERGY PREDICTED BY IDOCK:   -6.20 KCAL/MOL
REMARK 924 INTRA-LIGAND FREE ENERGY PREDICTED BY IDOCK:   -1.17 KCAL/MOL
REMARK 927      BINDING AFFINITY PREDICTED BY RF-SCORE:    0.00 PKD
ROOT
HETATM    1  C   UNL     1      -9.564   9.602  67.568  1.00  0.00    -0.150 C  
HETATM    2  S   UNL     1      -8.963   9.547  65.818  1.00  0.00    -0.194 SA 
HETATM    3  C   UNL     1      -7.178   9.405  66.288  1.00  0.00    -0.092 C  
HETATM    4  C   UNL     1      -7.171   8.898  67.745  1.00  0.00    -0.084 C  
HETATM    5  C   UNL     1      -6.442   8.506  65.294  1.00  0.00    -0.059 C  
HETATM    6  C   UNL     1      -6.568  10.819  66.170  1.00  0.00    -0.127 C  
HETATM    7  C   UNL     1      -9.773  11.000  68.214  1.00  0.00    -0.177 C  
HETATM    8  N   UNL     1      -8.354   9.459  68.397  1.00  0.00    -0.118 N  
HETATM    9  O   UNL     1      -7.498  11.439  69.312  1.00  0.00    -0.093 OA 
HETATM   10  C   UNL     1      -8.375  10.756  68.833  1.00  0.00    -0.147 C  
ENDROOT
BRANCH   4  11
HETATM   11  C   UNL     1      -7.214   7.369  67.944  1.00  0.00    -0.091 C  
HETATM   12  O   UNL     1      -7.821   6.567  67.244  1.00  0.00    -0.102 OA 
BRANCH  11  13
HETATM   13  O   UNL     1      -6.553   7.020  69.086  1.00  0.00    -0.045 OA 
BRANCH  13  14
HETATM   14  C   UNL     1      -7.163   5.921  69.783  1.00  0.00    -0.070 C  
HETATM   15  C   UNL     1      -6.207   5.345  70.816  1.00  0.00    -0.026 C  
BRANCH  14  16
HETATM   16  O   UNL     1      -8.303   6.402  70.508  1.00  0.00    -0.125 OA 
BRANCH  16  17
HETATM   17  C   UNL     1      -9.413   5.653  70.303  1.00  0.00    -0.161 C  
HETATM   18  O   UNL     1     -10.490   5.816  70.858  1.00  0.00    -0.226 OA 
BRANCH  17  19
HETATM   19  O   UNL     1      -9.088   4.626  69.482  1.00  0.00    -0.097 OA 
BRANCH  19  20
HETATM   20  C   UNL     1      -9.647   3.358  69.854  1.00  0.00    -0.127 C  
HETATM   21  C   UNL     1      -8.525   2.340  69.968  1.00  0.00    -0.087 C  
ENDBRANCH  19  20
ENDBRANCH  17  19
ENDBRANCH  16  17
ENDBRANCH  14  16
ENDBRANCH  13  14
ENDBRANCH  11  13
ENDBRANCH   4  11
BRANCH   7  22
HETATM   22  N   UNL     1      -9.896  12.162  67.303  1.00  0.00    -0.195 N  
HETATM   23  H   UNL     1      -9.064  12.713  67.090  1.00  0.00     0.000 HD 
HETATM   24  C   UNL     1     -11.100  12.519  66.736  1.00  0.00    -0.279 C  
HETATM   25  O   UNL     1     -12.157  11.962  67.027  1.00  0.00    -0.600 OA 
BRANCH  24  26
HETATM   26  C   UNL     1     -11.010  13.682  65.721  1.00  0.00    -0.278 C  
HETATM   27  N   UNL     1     -10.129  13.296  64.584  1.00  0.00    -0.603 NA 
HETATM   28  H2  UNL     1     -10.431  12.426  64.144  1.00  0.00     0.000 HD 
HETATM   29  H1  UNL     1     -10.069  14.063  63.914  1.00  0.00     0.000 HD 
BRANCH  26  30
HETATM   30  C   UNL     1     -10.564  14.972  66.385  1.00  0.00    -0.310 A  
HETATM   31  C   UNL     1      -9.509  15.711  65.822  1.00  0.00    -0.338 A  
HETATM   32  C   UNL     1      -9.068  16.895  66.416  1.00  0.00    -0.315 A  
HETATM   33  C   UNL     1      -9.679  17.364  67.577  1.00  0.00    -0.266 A  
HETATM   34  C   UNL     1     -10.740  16.656  68.136  1.00  0.00    -0.349 A  
HETATM   35  C   UNL     1     -11.186  15.474  67.541  1.00  0.00    -0.272 A  
ENDBRANCH  26  30
ENDBRANCH  24  26
ENDBRANCH   7  22
TORSDOF 10
ENDMDL
MODEL      200
REMARK 921   NORMALIZED FREE ENERGY PREDICTED BY IDOCK:   -3.85 KCAL/MOL
REMARK 922        TOTAL FREE ENERGY PREDICTED BY IDOCK:   -7.36 KCAL/MOL
REMARK 923 INTER-LIGAND FREE ENERGY PREDICTED BY IDOCK:   -7.01 KCAL/MOL
REMARK 924 INTRA-LIGAND FREE ENERGY PREDICTED BY IDOCK:   -0.35 KCAL/MOL
REMARK 927      BINDING AFFINITY PREDICTED BY RF-SCORE:    0.00 PKD
ROOT
HETATM    1  C   UNL     1      -9.011   9.457  67.275  1.00  0.00    -0.130 C  
HETATM    2  S   UNL     1     -10.747   9.112  67.816  1.00  0.00    -0.101 SA 
HETATM    3  C   UNL     1     -10.867  10.626  68.873  1.00  0.00    -0.231 C  
HETATM    4  C   UNL     1      -9.765  11.578  68.364  1.00  0.00    -0.202 C  
HETATM    5  C   UNL     1     -12.284  11.198  68.814  1.00  0.00    -0.080 C  
HETATM    6  C   UNL     1     -10.610  10.180  70.329  1.00  0.00    -0.324 C  
HETATM    7  C   UNL     1      -7.859   8.803  68.089  1.00  0.00    -0.102 C  
HETATM    8  N   UNL     1      -8.656  10.740  67.907  1.00  0.00    -0.123 N  
HETATM    9  O   UNL     1      -7.339  10.602  69.839  1.00  0.00    -0.150 OA 
HETATM   10  C   UNL     1      -7.781  10.178  68.796  1.00  0.00    -0.088 C  
ENDROOT
BRANCH   4  11
HETATM   11  C   UNL     1     -10.147  12.514  67.198  1.00  0.00    -0.214 C  
HETATM   12  O   UNL     1      -9.494  12.703  66.180  1.00  0.00    -0.239 OA 
BRANCH  11  13
HETATM   13  O   UNL     1     -11.289  13.200  67.496  1.00  0.00    -0.270 OA 
BRANCH  13  14
HETATM   14  C   UNL     1     -11.060  14.588  67.788  1.00  0.00    -0.285 C  
HETATM   15  C   UNL     1     -10.683  14.773  69.250  1.00  0.00    -0.263 C  
BRANCH  14  16
HETATM   16  O   UNL     1      -9.940  15.049  67.019  1.00  0.00    -0.238 OA 
BRANCH  16  17
HETATM   17  C   UNL     1     -10.244  16.104  66.227  1.00  0.00    -0.320 C  
HETATM   18  O   UNL     1     -10.529  17.227  66.619  1.00  0.00    -0.313 OA 
BRANCH  17  19
HETATM   19  O   UNL     1     -10.300  15.672  64.944  1.00  0.00    -0.441 OA 
BRANCH  19  20
HETATM   20  C   UNL     1     -11.614  15.666  64.368  1.00  0.00    -0.249 C  
HETATM   21  C   UNL     1     -11.947  14.254  63.918  1.00  0.00    -0.219 C  
ENDBRANCH  19  20
ENDBRANCH  17  19
ENDBRANCH  16  17
ENDBRANCH  14  16
ENDBRANCH  13  14
ENDBRANCH  11  13
ENDBRANCH   4  11
BRANCH   7  22
HETATM   22  N   UNL     1      -8.201   7.642  68.944  1.00  0.00    -0.127 N  
HETATM   23  H   UNL     1      -8.325   7.786  69.947  1.00  0.00     0.000 HD 
HETATM   24  C   UNL     1      -8.356   6.375  68.424  1.00  0.00    -0.116 C  
HETATM   25  O   UNL     1      -8.124   6.113  67.246  1.00  0.00    -0.105 OA 
BRANCH  24  26
HETATM   26  C   UNL     1      -8.830   5.317  69.449  1.00  0.00    -0.100 C  
HETATM   27  N   UNL     1      -9.348   4.117  68.736  1.00  0.00    -0.147 NA 
HETATM   28  H2  UNL     1      -8.664   3.737  68.080  1.00  0.00     0.000 HD 
HETATM   29  H1  UNL     1      -9.661   3.419  69.411  1.00  0.00     0.000 HD 
BRANCH  26  30
HETATM   30  C   UNL     1      -9.842   5.893  70.422  1.00  0.00    -0.231 A  
HETATM   31  C   UNL     1     -11.144   6.178  69.977  1.00  0.00    -0.462 A  
HETATM   32  C   UNL     1     -12.095   6.719  70.845  1.00  0.00    -0.421 A  
HETATM   33  C   UNL     1     -11.761   6.977  72.173  1.00  0.00    -0.321 A  
HETATM   34  C   UNL     1     -10.481   6.681  72.636  1.00  0.00    -0.237 A  
HETATM   35  C   UNL     1      -9.531   6.135  71.770  1.00  0.00    -0.162 A  
ENDBRANCH  26  30
ENDBRANCH  24  26
ENDBRANCH   7  22
TORSDOF 10
ENDMDL
MODEL      201
REMARK 921   NORMALIZED FREE ENERGY PREDICTED BY IDOCK:   -3.83 KCAL/MOL
REMARK 922        TOTAL FREE ENERGY PREDICTED BY IDOCK:   -7.34 KCAL/MOL
REMARK 923 INTER-LIGAND FREE ENERGY PREDICTED BY IDOCK:   -6.71 KCAL/MOL
REMARK 924 INTRA-LIGAND FREE ENERGY PREDICTED BY IDOCK:   -0.63 KCAL/MOL
REMARK 927      BINDING AFFINITY PREDICTED BY RF-SCORE:    0.00 PKD
ROOT
HETATM    1  C   UNL     1     -10.599   8.169  67.143  1.00  0.00    -0.285 C  
HETATM    2  S   UNL     1     -10.631   8.093  68.992  1.00  0.00    -0.094 SA 
HETATM    3  C   UNL     1      -9.941   9.796  69.214  1.00  0.00    -0.192 C  
HETATM    4  C   UNL     1     -10.195  10.525  67.878  1.00  0.00    -0.183 C  
HETATM    5  C   UNL     1     -10.571  10.464  70.437  1.00  0.00    -0.107 C  
HETATM    6  C   UNL     1      -8.433   9.637  69.501  1.00  0.00    -0.162 C  
HETATM    7  C   UNL     1      -9.347   7.598  66.421  1.00  0.00    -0.172 C  
HETATM    8  N   UNL     1     -10.104   9.518  66.820  1.00  0.00    -0.231 N  
HETATM    9  O   UNL     1      -7.845   9.665  66.219  1.00  0.00    -0.100 OA 
HETATM   10  C   UNL     1      -8.892   9.076  66.366  1.00  0.00    -0.146 C  
ENDROOT
BRANCH   4  11
HETATM   11  C   UNL     1     -11.557  11.233  67.726  1.00  0.00    -0.230 C  
HETATM   12  O   UNL     1     -12.371  11.434  68.620  1.00  0.00    -0.491 OA 
BRANCH  11  13
HETATM   13  O   UNL     1     -11.793  11.531  66.415  1.00  0.00    -0.397 OA 
BRANCH  13  14
HETATM   14  C   UNL     1     -11.350  12.845  66.042  1.00  0.00    -0.317 C  
HETATM   15  C   UNL     1     -12.065  13.316  64.785  1.00  0.00    -0.456 C  
BRANCH  14  16
HETATM   16  O   UNL     1     -11.701  13.770  67.080  1.00  0.00    -0.342 OA 
BRANCH  16  17
HETATM   17  C   UNL     1     -10.661  14.542  67.474  1.00  0.00    -0.262 C  
HETATM   18  O   UNL     1      -9.740  14.179  68.192  1.00  0.00    -0.212 OA 
BRANCH  17  19
HETATM   19  O   UNL     1     -10.882  15.807  67.042  1.00  0.00    -0.318 OA 
BRANCH  19  20
HETATM   20  C   UNL     1      -9.831  16.738  67.341  1.00  0.00    -0.252 C  
HETATM   21  C   UNL     1     -10.446  18.020  67.874  1.00  0.00    -0.408 C  
ENDBRANCH  19  20
ENDBRANCH  17  19
ENDBRANCH  16  17
ENDBRANCH  14  16
ENDBRANCH  13  14
ENDBRANCH  11  13
ENDBRANCH   4  11
BRANCH   7  22
HETATM   22  N   UNL     1      -8.481   6.671  67.185  1.00  0.00    -0.113 N  
HETATM   23  H   UNL     1      -7.847   7.052  67.888  1.00  0.00     0.000 HD 
HETATM   24  C   UNL     1      -8.508   5.308  66.976  1.00  0.00    -0.106 C  
HETATM   25  O   UNL     1      -9.173   4.792  66.079  1.00  0.00    -0.135 OA 
BRANCH  24  26
HETATM   26  C   UNL     1      -7.624   4.494  67.949  1.00  0.00    -0.077 C  
HETATM   27  N   UNL     1      -7.608   3.061  67.542  1.00  0.00    -0.065 NA 
HETATM   28  H2  UNL     1      -7.319   2.943  66.571  1.00  0.00     0.000 HD 
HETATM   29  H1  UNL     1      -7.026   2.524  68.184  1.00  0.00     0.000 HD 
BRANCH  26  30
HETATM   30  C   UNL     1      -8.059   4.680  69.391  1.00  0.00    -0.069 A  
HETATM   31  C   UNL     1      -7.182   5.288  70.305  1.00  0.00    -0.062 A  
HETATM   32  C   UNL     1      -7.548   5.462  71.640  1.00  0.00    -0.104 A  
HETATM   33  C   UNL     1      -8.800   5.039  72.083  1.00  0.00    -0.137 A  
HETATM   34  C   UNL     1      -9.690   4.454  71.186  1.00  0.00    -0.256 A  
HETATM   35  C   UNL     1      -9.327   4.283  69.848  1.00  0.00    -0.232 A  
ENDBRANCH  26  30
ENDBRANCH  24  26
ENDBRANCH   7  22
TORSDOF 10
ENDMDL
MODEL      202
REMARK 921   NORMALIZED FREE ENERGY PREDICTED BY IDOCK:   -3.83 KCAL/MOL
REMARK 922        TOTAL FREE ENERGY PREDICTED BY IDOCK:   -7.33 KCAL/MOL
REMARK 923 INTER-LIGAND FREE ENERGY PREDICTED BY IDOCK:   -6.88 KCAL/MOL
REMARK 924 INTRA-LIGAND FREE ENERGY PREDICTED BY IDOCK:   -0.45 KCAL/MOL
REMARK 927      BINDING AFFINITY PREDICTED BY RF-SCORE:    0.00 PKD
ROOT
HETATM    1  C   UNL     1      -9.037  10.546  69.217  1.00  0.00    -0.145 C  
HETATM    2  S   UNL     1     -10.659   9.871  68.635  1.00  0.00    -0.221 SA 
HETATM    3  C   UNL     1      -9.920   8.928  67.225  1.00  0.00    -0.216 C  
HETATM    4  C   UNL     1      -8.426   8.767  67.570  1.00  0.00    -0.120 C  
HETATM    5  C   UNL     1     -10.674   7.614  67.018  1.00  0.00    -0.340 C  
HETATM    6  C   UNL     1     -10.126   9.783  65.955  1.00  0.00    -0.322 C  
HETATM    7  C   UNL     1      -8.610  11.947  68.695  1.00  0.00    -0.037 C  
HETATM    8  N   UNL     1      -8.029   9.962  68.315  1.00  0.00    -0.099 N  
HETATM    9  O   UNL     1      -7.257  11.357  66.599  1.00  0.00    -0.140 OA 
HETATM   10  C   UNL     1      -7.769  11.142  67.674  1.00  0.00    -0.113 C  
ENDROOT
BRANCH   4  11
HETATM   11  C   UNL     1      -8.043   7.541  68.425  1.00  0.00    -0.125 C  
HETATM   12  O   UNL     1      -7.803   6.415  68.007  1.00  0.00    -0.102 OA 
BRANCH  11  13
HETATM   13  O   UNL     1      -8.101   7.852  69.753  1.00  0.00    -0.112 OA 
BRANCH  13  14
HETATM   14  C   UNL     1      -7.440   6.891  70.592  1.00  0.00    -0.082 C  
HETATM   15  C   UNL     1      -6.212   7.505  71.246  1.00  0.00    -0.035 C  
BRANCH  14  16
HETATM   16  O   UNL     1      -8.323   6.516  71.658  1.00  0.00    -0.119 OA 
BRANCH  16  17
HETATM   17  C   UNL     1      -9.334   7.398  71.841  1.00  0.00    -0.136 C  
HETATM   18  O   UNL     1      -9.200   8.588  72.091  1.00  0.00    -0.227 OA 
BRANCH  17  19
HETATM   19  O   UNL     1     -10.503   6.715  71.825  1.00  0.00    -0.207 OA 
BRANCH  19  20
HETATM   20  C   UNL     1     -11.208   6.757  70.576  1.00  0.00    -0.320 C  
HETATM   21  C   UNL     1     -10.875   5.505  69.782  1.00  0.00    -0.291 C  
ENDBRANCH  19  20
ENDBRANCH  17  19
ENDBRANCH  16  17
ENDBRANCH  14  16
ENDBRANCH  13  14
ENDBRANCH  11  13
ENDBRANCH   4  11
BRANCH   7  22
HETATM   22  N   UNL     1      -9.669  12.818  68.133  1.00  0.00    -0.220 N  
HETATM   23  H   UNL     1     -10.598  12.427  67.973  1.00  0.00     0.000 HD 
HETATM   24  C   UNL     1      -9.435  14.140  67.821  1.00  0.00    -0.207 C  
HETATM   25  O   UNL     1      -8.317  14.647  67.894  1.00  0.00    -0.137 OA 
BRANCH  24  26
HETATM   26  C   UNL     1     -10.688  14.920  67.360  1.00  0.00    -0.292 C  
HETATM   27  N   UNL     1     -11.124  14.434  66.022  1.00  0.00    -0.318 NA 
HETATM   28  H2  UNL     1     -11.276  13.425  66.012  1.00  0.00     0.000 HD 
HETATM   29  H1  UNL     1     -11.951  14.949  65.717  1.00  0.00     0.000 HD 
BRANCH  26  30
HETATM   30  C   UNL     1     -10.455  16.420  67.383  1.00  0.00    -0.309 A  
HETATM   31  C   UNL     1     -10.193  17.097  66.180  1.00  0.00    -0.343 A  
HETATM   32  C   UNL     1      -9.963  18.474  66.169  1.00  0.00    -0.341 A  
HETATM   33  C   UNL     1      -9.998  19.197  67.360  1.00  0.00    -0.432 A  
HETATM   34  C   UNL     1     -10.277  18.545  68.559  1.00  0.00    -0.389 A  
HETATM   35  C   UNL     1     -10.513  17.168  68.570  1.00  0.00    -0.377 A  
ENDBRANCH  26  30
ENDBRANCH  24  26
ENDBRANCH   7  22
TORSDOF 10
ENDMDL
MODEL      203
REMARK 921   NORMALIZED FREE ENERGY PREDICTED BY IDOCK:   -3.81 KCAL/MOL
REMARK 922        TOTAL FREE ENERGY PREDICTED BY IDOCK:   -7.30 KCAL/MOL
REMARK 923 INTER-LIGAND FREE ENERGY PREDICTED BY IDOCK:   -6.75 KCAL/MOL
REMARK 924 INTRA-LIGAND FREE ENERGY PREDICTED BY IDOCK:   -0.55 KCAL/MOL
REMARK 927      BINDING AFFINITY PREDICTED BY RF-SCORE:    0.00 PKD
ROOT
HETATM    1  C   UNL     1      -9.347   9.930  65.280  1.00  0.00    -0.251 C  
HETATM    2  S   UNL     1     -10.394   9.323  66.680  1.00  0.00    -0.178 SA 
HETATM    3  C   UNL     1     -10.016  10.768  67.773  1.00  0.00    -0.171 C  
HETATM    4  C   UNL     1      -9.519  11.884  66.831  1.00  0.00    -0.199 C  
HETATM    5  C   UNL     1     -11.246  11.134  68.606  1.00  0.00    -0.314 C  
HETATM    6  C   UNL     1      -8.914  10.314  68.755  1.00  0.00    -0.155 C  
HETATM    7  C   UNL     1      -7.881   9.419  65.203  1.00  0.00    -0.110 C  
HETATM    8  N   UNL     1      -8.814  11.228  65.730  1.00  0.00    -0.182 N  
HETATM    9  O   UNL     1      -6.609  11.214  66.519  1.00  0.00    -0.123 OA 
HETATM   10  C   UNL     1      -7.535  10.767  65.882  1.00  0.00    -0.099 C  
ENDROOT
BRANCH   4  11
HETATM   11  C   UNL     1     -10.599  12.795  66.212  1.00  0.00    -0.257 C  
HETATM   12  O   UNL     1     -11.767  12.492  66.002  1.00  0.00    -0.380 OA 
BRANCH  11  13
HETATM   13  O   UNL     1     -10.051  13.984  65.825  1.00  0.00    -0.309 OA 
BRANCH  13  14
HETATM   14  C   UNL     1     -10.708  15.126  66.398  1.00  0.00    -0.317 C  
HETATM   15  C   UNL     1     -10.839  14.970  67.905  1.00  0.00    -0.280 C  
BRANCH  14  16
HETATM   16  O   UNL     1      -9.898  16.290  66.180  1.00  0.00    -0.292 OA 
BRANCH  16  17
HETATM   17  C   UNL     1     -10.615  17.361  65.763  1.00  0.00    -0.182 C  
HETATM   18  O   UNL     1     -11.242  17.429  64.715  1.00  0.00    -0.895 OA 
BRANCH  17  19
HETATM   19  O   UNL     1     -10.414  18.375  66.638  1.00  0.00    -0.384 OA 
BRANCH  19  20
HETATM   20  C   UNL     1     -10.549  19.689  66.077  1.00  0.00    -0.483 C  
HETATM   21  C   UNL     1      -9.935  20.696  67.034  1.00  0.00    -0.387 C  
ENDBRANCH  19  20
ENDBRANCH  17  19
ENDBRANCH  16  17
ENDBRANCH  14  16
ENDBRANCH  13  14
ENDBRANCH  11  13
ENDBRANCH   4  11
BRANCH   7  22
HETATM   22  N   UNL     1      -7.544   8.194  65.964  1.00  0.00    -0.080 N  
HETATM   23  H   UNL     1      -8.152   7.904  66.730  1.00  0.00     0.000 HD 
HETATM   24  C   UNL     1      -6.432   7.434  65.667  1.00  0.00    -0.045 C  
HETATM   25  O   UNL     1      -5.604   7.779  64.825  1.00  0.00    -0.033 OA 
BRANCH  24  26
HETATM   26  C   UNL     1      -6.310   6.130  66.488  1.00  0.00    -0.045 C  
HETATM   27  N   UNL     1      -5.145   5.336  66.010  1.00  0.00    -0.005 NA 
HETATM   28  H2  UNL     1      -4.281   5.879  66.023  1.00  0.00     0.000 HD 
HETATM   29  H1  UNL     1      -5.064   4.475  66.552  1.00  0.00     0.000 HD 
BRANCH  26  30
HETATM   30  C   UNL     1      -7.601   5.331  66.467  1.00  0.00    -0.088 A  
HETATM   31  C   UNL     1      -7.772   4.319  65.508  1.00  0.00    -0.086 A  
HETATM   32  C   UNL     1      -8.953   3.576  65.455  1.00  0.00    -0.141 A  
HETATM   33  C   UNL     1      -9.978   3.827  66.365  1.00  0.00     0.044 A  
HETATM   34  C   UNL     1      -9.816   4.812  67.337  1.00  0.00    -0.214 A  
HETATM   35  C   UNL     1      -8.633   5.553  67.394  1.00  0.00    -0.108 A  
ENDBRANCH  26  30
ENDBRANCH  24  26
ENDBRANCH   7  22
TORSDOF 10
ENDMDL
MODEL      204
REMARK 921   NORMALIZED FREE ENERGY PREDICTED BY IDOCK:   -3.80 KCAL/MOL
REMARK 922        TOTAL FREE ENERGY PREDICTED BY IDOCK:   -7.28 KCAL/MOL
REMARK 923 INTER-LIGAND FREE ENERGY PREDICTED BY IDOCK:   -6.46 KCAL/MOL
REMARK 924 INTRA-LIGAND FREE ENERGY PREDICTED BY IDOCK:   -0.83 KCAL/MOL
REMARK 927      BINDING AFFINITY PREDICTED BY RF-SCORE:    0.00 PKD
ROOT
HETATM    1  C   UNL     1      -9.877   9.457  69.060  1.00  0.00    -0.169 C  
HETATM    2  S   UNL     1     -10.562   8.758  67.489  1.00  0.00    -0.161 SA 
HETATM    3  C   UNL     1      -8.919   8.174  66.868  1.00  0.00    -0.140 C  
HETATM    4  C   UNL     1      -8.011   8.090  68.112  1.00  0.00    -0.128 C  
HETATM    5  C   UNL     1      -9.081   6.860  66.104  1.00  0.00    -0.144 C  
HETATM    6  C   UNL     1      -8.415   9.233  65.863  1.00  0.00    -0.141 C  
HETATM    7  C   UNL     1      -9.500  10.965  69.073  1.00  0.00    -0.146 C  
HETATM    8  N   UNL     1      -8.436   9.152  69.024  1.00  0.00    -0.129 N  
HETATM    9  O   UNL     1      -7.030  10.914  68.387  1.00  0.00    -0.066 OA 
HETATM   10  C   UNL     1      -8.062  10.452  68.820  1.00  0.00    -0.125 C  
ENDROOT
BRANCH   4  11
HETATM   11  C   UNL     1      -8.043   6.764  68.901  1.00  0.00    -0.120 C  
HETATM   12  O   UNL     1      -7.123   6.293  69.559  1.00  0.00    -0.068 OA 
BRANCH  11  13
HETATM   13  O   UNL     1      -9.225   6.115  68.689  1.00  0.00    -0.124 OA 
BRANCH  13  14
HETATM   14  C   UNL     1      -9.806   5.585  69.892  1.00  0.00    -0.194 C  
HETATM   15  C   UNL     1     -11.174   6.200  70.142  1.00  0.00    -0.452 C  
BRANCH  14  16
HETATM   16  O   UNL     1     -10.017   4.176  69.728  1.00  0.00    -0.206 OA 
BRANCH  16  17
HETATM   17  C   UNL     1      -9.341   3.432  70.636  1.00  0.00    -0.162 C  
HETATM   18  O   UNL     1      -9.760   3.103  71.736  1.00  0.00    -0.147 OA 
BRANCH  17  19
HETATM   19  O   UNL     1      -8.086   3.227  70.168  1.00  0.00    -0.046 OA 
BRANCH  19  20
HETATM   20  C   UNL     1      -8.010   2.419  68.984  1.00  0.00    -0.048 C  
HETATM   21  C   UNL     1      -6.980   3.021  68.043  1.00  0.00    -0.049 C  
ENDBRANCH  19  20
ENDBRANCH  17  19
ENDBRANCH  16  17
ENDBRANCH  14  16
ENDBRANCH  13  14
ENDBRANCH  11  13
ENDBRANCH   4  11
BRANCH   7  22
HETATM   22  N   UNL     1     -10.086  11.825  68.019  1.00  0.00    -0.186 N  
HETATM   23  H   UNL     1      -9.524  12.058  67.200  1.00  0.00     0.000 HD 
HETATM   24  C   UNL     1     -11.370  12.319  68.112  1.00  0.00    -0.295 C  
HETATM   25  O   UNL     1     -12.066  12.162  69.114  1.00  0.00    -0.267 OA 
BRANCH  24  26
HETATM   26  C   UNL     1     -11.849  13.096  66.864  1.00  0.00    -0.386 C  
HETATM   27  N   UNL     1     -11.589  12.294  65.637  1.00  0.00    -0.374 NA 
HETATM   28  H2  UNL     1     -12.004  11.364  65.692  1.00  0.00     0.000 HD 
HETATM   29  H1  UNL     1     -11.904  12.806  64.813  1.00  0.00     0.000 HD 
BRANCH  26  30
HETATM   30  C   UNL     1     -11.229  14.480  66.792  1.00  0.00    -0.336 A  
HETATM   31  C   UNL     1     -11.314  15.334  67.904  1.00  0.00    -0.339 A  
HETATM   32  C   UNL     1     -10.765  16.617  67.864  1.00  0.00    -0.344 A  
HETATM   33  C   UNL     1     -10.114  17.063  66.715  1.00  0.00    -0.300 A  
HETATM   34  C   UNL     1     -10.001  16.221  65.612  1.00  0.00    -0.306 A  
HETATM   35  C   UNL     1     -10.546  14.936  65.652  1.00  0.00    -0.358 A  
ENDBRANCH  26  30
ENDBRANCH  24  26
ENDBRANCH   7  22
TORSDOF 10
ENDMDL
MODEL      205
REMARK 921   NORMALIZED FREE ENERGY PREDICTED BY IDOCK:   -3.79 KCAL/MOL
REMARK 922        TOTAL FREE ENERGY PREDICTED BY IDOCK:   -7.27 KCAL/MOL
REMARK 923 INTER-LIGAND FREE ENERGY PREDICTED BY IDOCK:   -7.33 KCAL/MOL
REMARK 924 INTRA-LIGAND FREE ENERGY PREDICTED BY IDOCK:    0.06 KCAL/MOL
REMARK 927      BINDING AFFINITY PREDICTED BY RF-SCORE:    0.00 PKD
ROOT
HETATM    1  C   UNL     1      -9.396  10.991  65.198  1.00  0.00    -0.220 C  
HETATM    2  S   UNL     1     -11.229  11.234  65.106  1.00  0.00     0.097 SA 
HETATM    3  C   UNL     1     -11.312  12.258  66.645  1.00  0.00    -0.343 C  
HETATM    4  C   UNL     1      -9.881  12.785  66.871  1.00  0.00    -0.236 C  
HETATM    5  C   UNL     1     -12.378  13.344  66.497  1.00  0.00    -0.354 C  
HETATM    6  C   UNL     1     -11.764  11.321  67.785  1.00  0.00    -0.254 C  
HETATM    7  C   UNL     1      -8.874   9.709  65.905  1.00  0.00    -0.153 C  
HETATM    8  N   UNL     1      -8.965  11.755  66.382  1.00  0.00    -0.209 N  
HETATM    9  O   UNL     1      -8.577  10.504  68.324  1.00  0.00    -0.119 OA 
HETATM   10  C   UNL     1      -8.688  10.641  67.127  1.00  0.00    -0.130 C  
ENDROOT
BRANCH   4  11
HETATM   11  C   UNL     1      -9.511  14.106  66.164  1.00  0.00    -0.203 C  
HETATM   12  O   UNL     1      -9.845  14.437  65.032  1.00  0.00    -0.259 OA 
BRANCH  11  13
HETATM   13  O   UNL     1      -8.661  14.839  66.940  1.00  0.00    -0.224 OA 
BRANCH  13  14
HETATM   14  C   UNL     1      -8.650  14.426  68.317  1.00  0.00    -0.170 C  
HETATM   15  C   UNL     1      -7.271  13.924  68.715  1.00  0.00    -0.106 C  
BRANCH  14  16
HETATM   16  O   UNL     1      -8.925  15.562  69.148  1.00  0.00    -0.219 OA 
BRANCH  16  17
HETATM   17  C   UNL     1     -10.110  16.152  68.860  1.00  0.00    -0.238 C  
HETATM   18  O   UNL     1     -10.299  17.357  68.774  1.00  0.00    -0.337 OA 
BRANCH  17  19
HETATM   19  O   UNL     1     -11.063  15.191  68.812  1.00  0.00    -0.243 OA 
BRANCH  19  20
HETATM   20  C   UNL     1     -11.675  14.886  70.074  1.00  0.00    -0.294 C  
HETATM   21  C   UNL     1     -11.309  15.970  71.073  1.00  0.00    -0.423 C  
ENDBRANCH  19  20
ENDBRANCH  17  19
ENDBRANCH  16  17
ENDBRANCH  14  16
ENDBRANCH  13  14
ENDBRANCH  11  13
ENDBRANCH   4  11
BRANCH   7  22
HETATM   22  N   UNL     1      -9.826   8.586  66.073  1.00  0.00    -0.472 N  
HETATM   23  H   UNL     1     -10.811   8.735  65.851  1.00  0.00     0.000 HD 
HETATM   24  C   UNL     1      -9.420   7.348  66.522  1.00  0.00    -0.172 C  
HETATM   25  O   UNL     1      -8.271   7.129  66.903  1.00  0.00    -0.114 OA 
BRANCH  24  26
HETATM   26  C   UNL     1     -10.530   6.271  66.520  1.00  0.00    -0.104 C  
HETATM   27  N   UNL     1     -11.437   6.474  67.682  1.00  0.00    -0.688 NA 
HETATM   28  H2  UNL     1     -11.821   7.419  67.708  1.00  0.00     0.000 HD 
HETATM   29  H1  UNL     1     -12.169   5.763  67.681  1.00  0.00     0.000 HD 
BRANCH  26  30
HETATM   30  C   UNL     1      -9.950   4.869  66.477  1.00  0.00    -0.256 A  
HETATM   31  C   UNL     1      -9.758   4.163  67.677  1.00  0.00    -0.176 A  
HETATM   32  C   UNL     1      -9.215   2.877  67.672  1.00  0.00    -0.243 A  
HETATM   33  C   UNL     1      -8.864   2.272  66.467  1.00  0.00    -0.133 A  
HETATM   34  C   UNL     1      -9.068   2.948  65.266  1.00  0.00    -0.149 A  
HETATM   35  C   UNL     1      -9.615   4.233  65.270  1.00  0.00    -0.186 A  
ENDBRANCH  26  30
ENDBRANCH  24  26
ENDBRANCH   7  22
TORSDOF 10
ENDMDL
MODEL      206
REMARK 921   NORMALIZED FREE ENERGY PREDICTED BY IDOCK:   -3.79 KCAL/MOL
REMARK 922        TOTAL FREE ENERGY PREDICTED BY IDOCK:   -7.27 KCAL/MOL
REMARK 923 INTER-LIGAND FREE ENERGY PREDICTED BY IDOCK:   -6.12 KCAL/MOL
REMARK 924 INTRA-LIGAND FREE ENERGY PREDICTED BY IDOCK:   -1.15 KCAL/MOL
REMARK 927      BINDING AFFINITY PREDICTED BY RF-SCORE:    0.00 PKD
ROOT
HETATM    1  C   UNL     1      -8.923  10.832  65.966  1.00  0.00    -0.181 C  
HETATM    2  S   UNL     1     -10.453  10.127  66.732  1.00  0.00    -0.173 SA 
HETATM    3  C   UNL     1     -10.187  10.957  68.364  1.00  0.00    -0.178 C  
HETATM    4  C   UNL     1      -9.223  12.127  68.084  1.00  0.00    -0.197 C  
HETATM    5  C   UNL     1     -11.530  11.366  68.971  1.00  0.00    -0.366 C  
HETATM    6  C   UNL     1      -9.556   9.908  69.305  1.00  0.00    -0.215 C  
HETATM    7  C   UNL     1      -7.627   9.976  66.025  1.00  0.00    -0.111 C  
HETATM    8  N   UNL     1      -8.335  11.698  67.003  1.00  0.00    -0.163 N  
HETATM    9  O   UNL     1      -6.537  10.790  68.199  1.00  0.00    -0.061 OA 
HETATM   10  C   UNL     1      -7.277  10.864  67.244  1.00  0.00    -0.098 C  
ENDROOT
BRANCH   4  11
HETATM   11  C   UNL     1      -9.865  13.462  67.651  1.00  0.00    -0.226 C  
HETATM   12  O   UNL     1     -10.377  13.699  66.564  1.00  0.00    -0.273 OA 
BRANCH  11  13
HETATM   13  O   UNL     1      -9.699  14.405  68.625  1.00  0.00    -0.217 OA 
BRANCH  13  14
HETATM   14  C   UNL     1     -10.840  15.264  68.784  1.00  0.00    -0.254 C  
HETATM   15  C   UNL     1     -11.606  14.911  70.049  1.00  0.00    -0.331 C  
BRANCH  14  16
HETATM   16  O   UNL     1     -10.388  16.616  68.947  1.00  0.00    -0.260 OA 
BRANCH  16  17
HETATM   17  C   UNL     1     -10.268  17.277  67.771  1.00  0.00    -0.332 C  
HETATM   18  O   UNL     1     -10.552  16.825  66.671  1.00  0.00    -0.286 OA 
BRANCH  17  19
HETATM   19  O   UNL     1      -9.668  18.467  68.012  1.00  0.00    -0.301 OA 
BRANCH  19  20
HETATM   20  C   UNL     1     -10.443  19.618  67.645  1.00  0.00    -0.446 C  
HETATM   21  C   UNL     1      -9.567  20.567  66.847  1.00  0.00    -0.496 C  
ENDBRANCH  19  20
ENDBRANCH  17  19
ENDBRANCH  16  17
ENDBRANCH  14  16
ENDBRANCH  13  14
ENDBRANCH  11  13
ENDBRANCH   4  11
BRANCH   7  22
HETATM   22  N   UNL     1      -7.778   8.526  66.290  1.00  0.00    -0.093 N  
HETATM   23  H   UNL     1      -7.629   8.178  67.238  1.00  0.00     0.000 HD 
HETATM   24  C   UNL     1      -8.113   7.635  65.294  1.00  0.00    -0.133 C  
HETATM   25  O   UNL     1      -8.209   7.970  64.114  1.00  0.00    -0.139 OA 
BRANCH  24  26
HETATM   26  C   UNL     1      -8.343   6.186  65.782  1.00  0.00    -0.143 C  
HETATM   27  N   UNL     1      -7.874   6.044  67.188  1.00  0.00    -0.101 NA 
HETATM   28  H2  UNL     1      -8.307   6.730  67.807  1.00  0.00     0.000 HD 
HETATM   29  H1  UNL     1      -8.025   5.088  67.511  1.00  0.00     0.000 HD 
BRANCH  26  30
HETATM   30  C   UNL     1      -7.700   5.172  64.854  1.00  0.00    -0.085 A  
HETATM   31  C   UNL     1      -6.317   4.935  64.940  1.00  0.00    -0.035 A  
HETATM   32  C   UNL     1      -5.694   4.018  64.091  1.00  0.00    -0.014 A  
HETATM   33  C   UNL     1      -6.444   3.318  63.148  1.00  0.00    -0.022 A  
HETATM   34  C   UNL     1      -7.819   3.524  63.064  1.00  0.00    -0.071 A  
HETATM   35  C   UNL     1      -8.444   4.438  63.916  1.00  0.00    -0.117 A  
ENDBRANCH  26  30
ENDBRANCH  24  26
ENDBRANCH   7  22
TORSDOF 10
ENDMDL
MODEL      207
REMARK 921   NORMALIZED FREE ENERGY PREDICTED BY IDOCK:   -3.78 KCAL/MOL
REMARK 922        TOTAL FREE ENERGY PREDICTED BY IDOCK:   -7.25 KCAL/MOL
REMARK 923 INTER-LIGAND FREE ENERGY PREDICTED BY IDOCK:   -5.81 KCAL/MOL
REMARK 924 INTRA-LIGAND FREE ENERGY PREDICTED BY IDOCK:   -1.44 KCAL/MOL
REMARK 927      BINDING AFFINITY PREDICTED BY RF-SCORE:    0.00 PKD
ROOT
HETATM    1  C   UNL     1     -10.043   9.246  69.107  1.00  0.00    -0.199 C  
HETATM    2  S   UNL     1     -10.503   8.634  67.422  1.00  0.00    -0.247 SA 
HETATM    3  C   UNL     1      -8.761   8.240  66.936  1.00  0.00    -0.134 C  
HETATM    4  C   UNL     1      -7.977   8.121  68.259  1.00  0.00    -0.123 C  
HETATM    5  C   UNL     1      -8.730   6.988  66.058  1.00  0.00    -0.156 C  
HETATM    6  C   UNL     1      -8.257   9.419  66.076  1.00  0.00    -0.111 C  
HETATM    7  C   UNL     1      -9.804  10.773  69.278  1.00  0.00    -0.138 C  
HETATM    8  N   UNL     1      -8.584   9.062  69.200  1.00  0.00    -0.131 N  
HETATM    9  O   UNL     1      -7.284  10.980  68.857  1.00  0.00    -0.086 OA 
HETATM   10  C   UNL     1      -8.308  10.401  69.140  1.00  0.00    -0.158 C  
ENDROOT
BRANCH   4  11
HETATM   11  C   UNL     1      -7.969   6.733  68.933  1.00  0.00    -0.116 C  
HETATM   12  O   UNL     1      -8.894   6.228  69.559  1.00  0.00    -0.133 OA 
BRANCH  11  13
HETATM   13  O   UNL     1      -6.735   6.161  68.826  1.00  0.00    -0.056 OA 
BRANCH  13  14
HETATM   14  C   UNL     1      -6.782   4.758  68.517  1.00  0.00    -0.050 C  
HETATM   15  C   UNL     1      -6.042   4.470  67.220  1.00  0.00    -0.027 C  
BRANCH  14  16
HETATM   16  O   UNL     1      -6.100   4.029  69.545  1.00  0.00    -0.025 OA 
BRANCH  16  17
HETATM   17  C   UNL     1      -6.892   3.118  70.160  1.00  0.00    -0.034 C  
HETATM   18  O   UNL     1      -7.043   1.957  69.807  1.00  0.00    -0.033 OA 
BRANCH  17  19
HETATM   19  O   UNL     1      -7.575   3.746  71.147  1.00  0.00    -0.043 OA 
BRANCH  19  20
HETATM   20  C   UNL     1      -8.757   3.062  71.590  1.00  0.00    -0.074 C  
HETATM   21  C   UNL     1      -8.815   3.112  73.107  1.00  0.00    -0.085 C  
ENDBRANCH  19  20
ENDBRANCH  17  19
ENDBRANCH  16  17
ENDBRANCH  14  16
ENDBRANCH  13  14
ENDBRANCH  11  13
ENDBRANCH   4  11
BRANCH   7  22
HETATM   22  N   UNL     1     -10.358  11.671  68.238  1.00  0.00    -0.193 N  
HETATM   23  H   UNL     1      -9.838  11.802  67.370  1.00  0.00     0.000 HD 
HETATM   24  C   UNL     1     -11.554  12.335  68.410  1.00  0.00    -0.326 C  
HETATM   25  O   UNL     1     -12.180  12.302  69.468  1.00  0.00    -0.212 OA 
BRANCH  24  26
HETATM   26  C   UNL     1     -12.027  13.131  67.171  1.00  0.00    -0.341 C  
HETATM   27  N   UNL     1     -11.926  12.281  65.953  1.00  0.00    -0.597 NA 
HETATM   28  H2  UNL     1     -12.430  11.400  66.058  1.00  0.00     0.000 HD 
HETATM   29  H1  UNL     1     -12.238  12.805  65.136  1.00  0.00     0.000 HD 
BRANCH  26  30
HETATM   30  C   UNL     1     -11.275  14.441  67.026  1.00  0.00    -0.336 A  
HETATM   31  C   UNL     1     -11.464  15.456  67.978  1.00  0.00    -0.333 A  
HETATM   32  C   UNL     1     -10.796  16.677  67.865  1.00  0.00    -0.321 A  
HETATM   33  C   UNL     1      -9.924  16.900  66.802  1.00  0.00    -0.291 A  
HETATM   34  C   UNL     1      -9.708  15.896  65.860  1.00  0.00    -0.386 A  
HETATM   35  C   UNL     1     -10.372  14.673  65.975  1.00  0.00    -0.317 A  
ENDBRANCH  26  30
ENDBRANCH  24  26
ENDBRANCH   7  22
TORSDOF 10
ENDMDL
MODEL      208
REMARK 921   NORMALIZED FREE ENERGY PREDICTED BY IDOCK:   -3.75 KCAL/MOL
REMARK 922        TOTAL FREE ENERGY PREDICTED BY IDOCK:   -7.21 KCAL/MOL
REMARK 923 INTER-LIGAND FREE ENERGY PREDICTED BY IDOCK:   -6.92 KCAL/MOL
REMARK 924 INTRA-LIGAND FREE ENERGY PREDICTED BY IDOCK:   -0.29 KCAL/MOL
REMARK 927      BINDING AFFINITY PREDICTED BY RF-SCORE:    0.00 PKD
ROOT
HETATM    1  C   UNL     1     -10.722  11.009  66.828  1.00  0.00    -0.266 C  
HETATM    2  S   UNL     1      -9.943  11.570  68.410  1.00  0.00    -0.209 SA 
HETATM    3  C   UNL     1      -8.693  12.649  67.576  1.00  0.00    -0.184 C  
HETATM    4  C   UNL     1      -9.254  12.922  66.165  1.00  0.00    -0.014 C  
HETATM    5  C   UNL     1      -8.436  13.902  68.414  1.00  0.00    -0.159 C  
HETATM    6  C   UNL     1      -7.373  11.851  67.522  1.00  0.00    -0.132 C  
HETATM    7  C   UNL     1     -10.208   9.681  66.203  1.00  0.00    -0.205 C  
HETATM    8  N   UNL     1      -9.998  11.727  65.765  1.00  0.00    -0.231 N  
HETATM    9  O   UNL     1      -8.353  10.501  64.635  1.00  0.00    -0.168 OA 
HETATM   10  C   UNL     1      -9.352  10.610  65.308  1.00  0.00    -0.214 C  
ENDROOT
BRANCH   4  11
HETATM   11  C   UNL     1     -10.206  14.128  66.022  1.00  0.00    -0.308 C  
HETATM   12  O   UNL     1     -11.429  14.081  65.968  1.00  0.00    -0.323 OA 
BRANCH  11  13
HETATM   13  O   UNL     1      -9.491  15.279  65.861  1.00  0.00    -0.319 OA 
BRANCH  13  14
HETATM   14  C   UNL     1     -10.239  16.463  66.185  1.00  0.00    -0.348 C  
HETATM   15  C   UNL     1     -10.544  16.514  67.674  1.00  0.00    -0.321 C  
BRANCH  14  16
HETATM   16  O   UNL     1      -9.437  17.616  65.895  1.00  0.00    -0.514 OA 
BRANCH  16  17
HETATM   17  C   UNL     1      -9.971  18.764  66.377  1.00  0.00    -0.392 C  
HETATM   18  O   UNL     1     -10.903  19.376  65.876  1.00  0.00    -0.420 OA 
BRANCH  17  19
HETATM   19  O   UNL     1      -9.217  19.178  67.423  1.00  0.00    -0.292 OA 
BRANCH  19  20
HETATM   20  C   UNL     1      -8.462  20.376  67.186  1.00  0.00    -0.318 C  
HETATM   21  C   UNL     1      -7.177  20.011  66.463  1.00  0.00    -0.284 C  
ENDBRANCH  19  20
ENDBRANCH  17  19
ENDBRANCH  16  17
ENDBRANCH  14  16
ENDBRANCH  13  14
ENDBRANCH  11  13
ENDBRANCH   4  11
BRANCH   7  22
HETATM   22  N   UNL     1      -9.465   8.753  67.087  1.00  0.00    -0.155 N  
HETATM   23  H   UNL     1      -8.549   9.031  67.439  1.00  0.00     0.000 HD 
HETATM   24  C   UNL     1      -9.977   7.525  67.449  1.00  0.00    -0.187 C  
HETATM   25  O   UNL     1     -11.027   7.085  66.983  1.00  0.00    -0.375 OA 
BRANCH  24  26
HETATM   26  C   UNL     1      -9.115   6.748  68.471  1.00  0.00    -0.129 C  
HETATM   27  N   UNL     1      -9.076   7.484  69.765  1.00  0.00    -0.141 NA 
HETATM   28  H2  UNL     1     -10.012   7.679  70.122  1.00  0.00     0.000 HD 
HETATM   29  H1  UNL     1      -8.507   6.972  70.439  1.00  0.00     0.000 HD 
BRANCH  26  30
HETATM   30  C   UNL     1      -7.727   6.459  67.929  1.00  0.00    -0.104 A  
HETATM   31  C   UNL     1      -7.588   5.728  66.737  1.00  0.00    -0.096 A  
HETATM   32  C   UNL     1      -6.325   5.435  66.220  1.00  0.00    -0.039 A  
HETATM   33  C   UNL     1      -5.180   5.875  66.881  1.00  0.00    -0.005 A  
HETATM   34  C   UNL     1      -5.300   6.620  68.052  1.00  0.00    -0.008 A  
HETATM   35  C   UNL     1      -6.563   6.918  68.568  1.00  0.00    -0.058 A  
ENDBRANCH  26  30
ENDBRANCH  24  26
ENDBRANCH   7  22
TORSDOF 10
ENDMDL
MODEL      209
REMARK 921   NORMALIZED FREE ENERGY PREDICTED BY IDOCK:   -3.71 KCAL/MOL
REMARK 922        TOTAL FREE ENERGY PREDICTED BY IDOCK:   -7.13 KCAL/MOL
REMARK 923 INTER-LIGAND FREE ENERGY PREDICTED BY IDOCK:   -6.59 KCAL/MOL
REMARK 924 INTRA-LIGAND FREE ENERGY PREDICTED BY IDOCK:   -0.55 KCAL/MOL
REMARK 927      BINDING AFFINITY PREDICTED BY RF-SCORE:    0.00 PKD
ROOT
HETATM    1  C   UNL     1      -9.342  10.378  66.399  1.00  0.00    -0.164 C  
HETATM    2  S   UNL     1     -11.005  10.494  67.202  1.00  0.00    -0.163 SA 
HETATM    3  C   UNL     1     -10.351  11.226  68.771  1.00  0.00    -0.205 C  
HETATM    4  C   UNL     1      -8.970  11.812  68.413  1.00  0.00    -0.168 C  
HETATM    5  C   UNL     1     -11.349  12.238  69.335  1.00  0.00    -0.294 C  
HETATM    6  C   UNL     1     -10.236  10.073  69.792  1.00  0.00    -0.286 C  
HETATM    7  C   UNL     1      -8.569   9.036  66.532  1.00  0.00    -0.120 C  
HETATM    8  N   UNL     1      -8.400  10.955  67.374  1.00  0.00    -0.116 N  
HETATM    9  O   UNL     1      -7.174   9.419  68.648  1.00  0.00    -0.073 OA 
HETATM   10  C   UNL     1      -7.825   9.753  67.684  1.00  0.00    -0.095 C  
ENDROOT
BRANCH   4  11
HETATM   11  C   UNL     1      -8.953  13.260  67.878  1.00  0.00    -0.199 C  
HETATM   12  O   UNL     1      -8.137  14.127  68.168  1.00  0.00    -0.128 OA 
BRANCH  11  13
HETATM   13  O   UNL     1     -10.047  13.489  67.095  1.00  0.00    -0.239 OA 
BRANCH  13  14
HETATM   14  C   UNL     1      -9.752  14.259  65.918  1.00  0.00    -0.262 C  
HETATM   15  C   UNL     1     -10.313  13.579  64.678  1.00  0.00    -0.406 C  
BRANCH  14  16
HETATM   16  O   UNL     1     -10.406  15.531  66.015  1.00  0.00    -0.289 OA 
BRANCH  16  17
HETATM   17  C   UNL     1      -9.548  16.575  65.921  1.00  0.00    -0.248 C  
HETATM   18  O   UNL     1      -8.333  16.485  65.808  1.00  0.00    -0.337 OA 
BRANCH  17  19
HETATM   19  O   UNL     1     -10.248  17.720  66.099  1.00  0.00    -0.376 OA 
BRANCH  19  20
HETATM   20  C   UNL     1      -9.452  18.914  66.134  1.00  0.00    -0.215 C  
HETATM   21  C   UNL     1     -10.226  20.000  66.859  1.00  0.00    -0.595 C  
ENDBRANCH  19  20
ENDBRANCH  17  19
ENDBRANCH  16  17
ENDBRANCH  14  16
ENDBRANCH  13  14
ENDBRANCH  11  13
ENDBRANCH   4  11
BRANCH   7  22
HETATM   22  N   UNL     1      -9.350   7.832  66.902  1.00  0.00    -0.159 N  
HETATM   23  H   UNL     1     -10.350   7.928  67.084  1.00  0.00     0.000 HD 
HETATM   24  C   UNL     1      -8.766   6.588  67.006  1.00  0.00    -0.112 C  
HETATM   25  O   UNL     1      -7.553   6.419  66.899  1.00  0.00    -0.092 OA 
BRANCH  24  26
HETATM   26  C   UNL     1      -9.759   5.436  67.283  1.00  0.00    -0.144 C  
HETATM   27  N   UNL     1      -9.471   4.825  68.610  1.00  0.00    -0.140 NA 
HETATM   28  H2  UNL     1      -9.469   5.518  69.359  1.00  0.00     0.000 HD 
HETATM   29  H1  UNL     1     -10.125   4.064  68.793  1.00  0.00     0.000 HD 
BRANCH  26  30
HETATM   30  C   UNL     1      -9.757   4.412  66.163  1.00  0.00    -0.220 A  
HETATM   31  C   UNL     1      -8.815   3.369  66.181  1.00  0.00    -0.137 A  
HETATM   32  C   UNL     1      -8.780   2.419  65.158  1.00  0.00    -0.115 A  
HETATM   33  C   UNL     1      -9.690   2.492  64.106  1.00  0.00    -0.138 A  
HETATM   34  C   UNL     1     -10.645   3.506  64.084  1.00  0.00    -0.207 A  
HETATM   35  C   UNL     1     -10.684   4.454  65.108  1.00  0.00    -0.144 A  
ENDBRANCH  26  30
ENDBRANCH  24  26
ENDBRANCH   7  22
TORSDOF 10
ENDMDL
MODEL      210
REMARK 921   NORMALIZED FREE ENERGY PREDICTED BY IDOCK:   -3.69 KCAL/MOL
REMARK 922        TOTAL FREE ENERGY PREDICTED BY IDOCK:   -7.11 KCAL/MOL
REMARK 923 INTER-LIGAND FREE ENERGY PREDICTED BY IDOCK:   -6.17 KCAL/MOL
REMARK 924 INTRA-LIGAND FREE ENERGY PREDICTED BY IDOCK:   -0.94 KCAL/MOL
REMARK 927      BINDING AFFINITY PREDICTED BY RF-SCORE:    0.00 PKD
ROOT
HETATM    1  C   UNL     1      -8.226  11.700  67.611  1.00  0.00    -0.141 C  
HETATM    2  S   UNL     1      -8.236  10.681  66.066  1.00  0.00    -0.159 SA 
HETATM    3  C   UNL     1     -10.059  10.854  65.797  1.00  0.00    -0.252 C  
HETATM    4  C   UNL     1     -10.484  12.093  66.611  1.00  0.00    -0.220 C  
HETATM    5  C   UNL     1     -10.365  10.937  64.301  1.00  0.00    -0.436 C  
HETATM    6  C   UNL     1     -10.718   9.564  66.332  1.00  0.00     0.044 C  
HETATM    7  C   UNL     1      -8.350  10.953  68.968  1.00  0.00    -0.114 C  
HETATM    8  N   UNL     1      -9.619  12.146  67.790  1.00  0.00    -0.189 N  
HETATM    9  O   UNL     1     -10.883  10.952  69.359  1.00  0.00    -0.222 OA 
HETATM   10  C   UNL     1      -9.846  11.339  68.871  1.00  0.00    -0.139 C  
ENDROOT
BRANCH   4  11
HETATM   11  C   UNL     1     -10.376  13.458  65.898  1.00  0.00    -0.290 C  
HETATM   12  O   UNL     1     -10.397  13.644  64.688  1.00  0.00    -0.418 OA 
BRANCH  11  13
HETATM   13  O   UNL     1     -10.152  14.451  66.807  1.00  0.00    -0.257 OA 
BRANCH  13  14
HETATM   14  C   UNL     1      -9.162  15.401  66.379  1.00  0.00    -0.305 C  
HETATM   15  C   UNL     1      -9.825  16.632  65.779  1.00  0.00    -0.241 C  
BRANCH  14  16
HETATM   16  O   UNL     1      -8.423  15.854  67.521  1.00  0.00    -0.158 OA 
BRANCH  16  17
HETATM   17  C   UNL     1      -7.083  15.747  67.358  1.00  0.00    -0.203 C  
HETATM   18  O   UNL     1      -6.459  14.698  67.286  1.00  0.00    -0.298 OA 
BRANCH  17  19
HETATM   19  O   UNL     1      -6.547  16.989  67.417  1.00  0.00    -0.132 OA 
BRANCH  19  20
HETATM   20  C   UNL     1      -6.036  17.485  66.170  1.00  0.00    -0.194 C  
HETATM   21  C   UNL     1      -5.964  19.000  66.236  1.00  0.00    -0.185 C  
ENDBRANCH  19  20
ENDBRANCH  17  19
ENDBRANCH  16  17
ENDBRANCH  14  16
ENDBRANCH  13  14
ENDBRANCH  11  13
ENDBRANCH   4  11
BRANCH   7  22
HETATM   22  N   UNL     1      -8.044   9.503  68.979  1.00  0.00    -0.097 N  
HETATM   23  H   UNL     1      -7.862   9.029  68.095  1.00  0.00     0.000 HD 
HETATM   24  C   UNL     1      -8.000   8.777  70.151  1.00  0.00    -0.107 C  
HETATM   25  O   UNL     1      -8.307   9.262  71.239  1.00  0.00    -0.317 OA 
BRANCH  24  26
HETATM   26  C   UNL     1      -7.548   7.309  69.976  1.00  0.00    -0.090 C  
HETATM   27  N   UNL     1      -6.129   7.264  69.527  1.00  0.00    -0.030 NA 
HETATM   28  H2  UNL     1      -5.513   7.783  70.153  1.00  0.00     0.000 HD 
HETATM   29  H1  UNL     1      -5.831   6.295  69.411  1.00  0.00     0.000 HD 
BRANCH  26  30
HETATM   30  C   UNL     1      -8.473   6.544  69.047  1.00  0.00    -0.125 A  
HETATM   31  C   UNL     1      -9.838   6.437  69.364  1.00  0.00    -0.170 A  
HETATM   32  C   UNL     1     -10.712   5.730  68.536  1.00  0.00    -0.288 A  
HETATM   33  C   UNL     1     -10.237   5.125  67.374  1.00  0.00    -0.224 A  
HETATM   34  C   UNL     1      -8.891   5.239  67.033  1.00  0.00    -0.109 A  
HETATM   35  C   UNL     1      -8.017   5.950  67.858  1.00  0.00    -0.105 A  
ENDBRANCH  26  30
ENDBRANCH  24  26
ENDBRANCH   7  22
TORSDOF 10
ENDMDL
MODEL      211
REMARK 921   NORMALIZED FREE ENERGY PREDICTED BY IDOCK:   -3.69 KCAL/MOL
REMARK 922        TOTAL FREE ENERGY PREDICTED BY IDOCK:   -7.11 KCAL/MOL
REMARK 923 INTER-LIGAND FREE ENERGY PREDICTED BY IDOCK:   -8.46 KCAL/MOL
REMARK 924 INTRA-LIGAND FREE ENERGY PREDICTED BY IDOCK:    1.35 KCAL/MOL
REMARK 927      BINDING AFFINITY PREDICTED BY RF-SCORE:    0.00 PKD
ROOT
HETATM    1  C   UNL     1     -10.237  13.812  66.760  1.00  0.00    -0.268 C  
HETATM    2  S   UNL     1     -10.025  12.663  68.195  1.00  0.00    -0.226 SA 
HETATM    3  C   UNL     1     -10.823  11.226  67.343  1.00  0.00    -0.262 C  
HETATM    4  C   UNL     1     -10.755  11.547  65.836  1.00  0.00    -0.272 C  
HETATM    5  C   UNL     1     -10.135   9.923  67.752  1.00  0.00    -0.221 C  
HETATM    6  C   UNL     1     -12.280  11.157  67.848  1.00  0.00     0.573 C  
HETATM    7  C   UNL     1     -11.503  14.714  66.740  1.00  0.00    -0.364 C  
HETATM    8  N   UNL     1     -10.866  12.999  65.703  1.00  0.00    -0.271 N  
HETATM    9  O   UNL     1     -13.176  13.276  65.435  1.00  0.00    -0.570 OA 
HETATM   10  C   UNL     1     -12.077  13.629  65.797  1.00  0.00    -0.428 C  
ENDROOT
BRANCH   4  11
HETATM   11  C   UNL     1      -9.473  11.112  65.095  1.00  0.00    -0.226 C  
HETATM   12  O   UNL     1      -9.401  10.748  63.927  1.00  0.00    -0.216 OA 
BRANCH  11  13
HETATM   13  O   UNL     1      -8.413  11.090  65.955  1.00  0.00    -0.167 OA 
BRANCH  13  14
HETATM   14  C   UNL     1      -7.301  10.321  65.467  1.00  0.00    -0.149 C  
HETATM   15  C   UNL     1      -6.004  10.784  66.114  1.00  0.00    -0.134 C  
BRANCH  14  16
HETATM   16  O   UNL     1      -7.478   8.950  65.847  1.00  0.00    -0.091 OA 
BRANCH  16  17
HETATM   17  C   UNL     1      -7.218   8.085  64.837  1.00  0.00    -0.073 C  
HETATM   18  O   UNL     1      -6.913   8.399  63.696  1.00  0.00    -0.083 OA 
BRANCH  17  19
HETATM   19  O   UNL     1      -7.478   6.830  65.275  1.00  0.00    -0.077 OA 
BRANCH  19  20
HETATM   20  C   UNL     1      -8.606   6.721  66.157  1.00  0.00    -0.143 C  
HETATM   21  C   UNL     1      -9.197   5.328  66.028  1.00  0.00    -0.163 C  
ENDBRANCH  19  20
ENDBRANCH  17  19
ENDBRANCH  16  17
ENDBRANCH  14  16
ENDBRANCH  13  14
ENDBRANCH  11  13
ENDBRANCH   4  11
BRANCH   7  22
HETATM   22  N   UNL     1     -12.217  14.915  68.023  1.00  0.00    -0.547 N  
HETATM   23  H   UNL     1     -13.141  14.500  68.145  1.00  0.00     0.000 HD 
HETATM   24  C   UNL     1     -11.670  15.648  69.054  1.00  0.00    -0.395 C  
HETATM   25  O   UNL     1     -10.608  16.258  68.939  1.00  0.00    -0.246 OA 
BRANCH  24  26
HETATM   26  C   UNL     1     -12.508  15.648  70.354  1.00  0.00    -0.371 C  
HETATM   27  N   UNL     1     -11.895  16.566  71.353  1.00  0.00    -0.590 NA 
HETATM   28  H2  UNL     1     -11.766  17.507  70.980  1.00  0.00     0.000 HD 
HETATM   29  H1  UNL     1     -12.447  16.566  72.211  1.00  0.00     0.000 HD 
BRANCH  26  30
HETATM   30  C   UNL     1     -12.697  14.244  70.899  1.00  0.00    -0.427 A  
HETATM   31  C   UNL     1     -11.971  13.180  70.337  1.00  0.00    -0.343 A  
HETATM   32  C   UNL     1     -12.133  11.876  70.808  1.00  0.00    -0.325 A  
HETATM   33  C   UNL     1     -13.016  11.615  71.854  1.00  0.00    -0.442 A  
HETATM   34  C   UNL     1     -13.727  12.661  72.437  1.00  0.00    -0.377 A  
HETATM   35  C   UNL     1     -13.563  13.967  71.970  1.00  0.00    -0.566 A  
ENDBRANCH  26  30
ENDBRANCH  24  26
ENDBRANCH   7  22
TORSDOF 10
ENDMDL
MODEL      212
REMARK 921   NORMALIZED FREE ENERGY PREDICTED BY IDOCK:   -3.68 KCAL/MOL
REMARK 922        TOTAL FREE ENERGY PREDICTED BY IDOCK:   -7.10 KCAL/MOL
REMARK 923 INTER-LIGAND FREE ENERGY PREDICTED BY IDOCK:   -6.89 KCAL/MOL
REMARK 924 INTRA-LIGAND FREE ENERGY PREDICTED BY IDOCK:   -0.21 KCAL/MOL
REMARK 927      BINDING AFFINITY PREDICTED BY RF-SCORE:    0.00 PKD
ROOT
HETATM    1  C   UNL     1      -9.702  10.988  69.381  1.00  0.00     0.086 C  
HETATM    2  S   UNL     1      -8.144  10.502  68.507  1.00  0.00    -0.128 SA 
HETATM    3  C   UNL     1      -8.319  11.787  67.187  1.00  0.00    -0.168 C  
HETATM    4  C   UNL     1      -9.281  12.846  67.762  1.00  0.00    -0.200 C  
HETATM    5  C   UNL     1      -6.943  12.323  66.789  1.00  0.00     0.180 C  
HETATM    6  C   UNL     1      -8.916  11.084  65.949  1.00  0.00    -0.208 C  
HETATM    7  C   UNL     1     -11.004  10.223  69.012  1.00  0.00    -0.232 C  
HETATM    8  N   UNL     1     -10.227  12.138  68.626  1.00  0.00    -0.206 N  
HETATM    9  O   UNL     1     -11.974  11.676  67.136  1.00  0.00    -0.614 OA 
HETATM   10  C   UNL     1     -11.282  11.443  68.101  1.00  0.00    -0.278 C  
ENDROOT
BRANCH   4  11
HETATM   11  C   UNL     1      -8.645  13.974  68.601  1.00  0.00    -0.100 C  
HETATM   12  O   UNL     1      -7.466  14.057  68.924  1.00  0.00    -0.120 OA 
BRANCH  11  13
HETATM   13  O   UNL     1      -9.605  14.843  69.033  1.00  0.00    -0.213 OA 
BRANCH  13  14
HETATM   14  C   UNL     1     -10.411  15.375  67.969  1.00  0.00    -0.257 C  
HETATM   15  C   UNL     1     -11.881  15.375  68.359  1.00  0.00    -0.264 C  
BRANCH  14  16
HETATM   16  O   UNL     1     -10.049  16.745  67.748  1.00  0.00    -0.264 OA 
BRANCH  16  17
HETATM   17  C   UNL     1      -9.267  16.914  66.656  1.00  0.00    -0.256 C  
HETATM   18  O   UNL     1      -9.586  16.642  65.507  1.00  0.00    -0.502 OA 
BRANCH  17  19
HETATM   19  O   UNL     1      -8.041  17.313  67.068  1.00  0.00    -0.194 OA 
BRANCH  19  20
HETATM   20  C   UNL     1      -7.037  17.333  66.041  1.00  0.00    -0.165 C  
HETATM   21  C   UNL     1      -6.097  18.498  66.296  1.00  0.00    -0.208 C  
ENDBRANCH  19  20
ENDBRANCH  17  19
ENDBRANCH  16  17
ENDBRANCH  14  16
ENDBRANCH  13  14
ENDBRANCH  11  13
ENDBRANCH   4  11
BRANCH   7  22
HETATM   22  N   UNL     1     -10.858   8.915  68.333  1.00  0.00    -0.451 N  
HETATM   23  H   UNL     1     -11.085   8.844  67.341  1.00  0.00     0.000 HD 
HETATM   24  C   UNL     1     -10.425   7.790  69.003  1.00  0.00    -0.205 C  
HETATM   25  O   UNL     1     -10.231   7.780  70.217  1.00  0.00    -0.195 OA 
BRANCH  24  26
HETATM   26  C   UNL     1     -10.221   6.549  68.104  1.00  0.00    -0.168 C  
HETATM   27  N   UNL     1     -11.490   6.217  67.400  1.00  0.00    -0.616 NA 
HETATM   28  H2  UNL     1     -11.857   7.013  66.877  1.00  0.00     0.000 HD 
HETATM   29  H1  UNL     1     -11.356   5.398  66.807  1.00  0.00     0.000 HD 
BRANCH  26  30
HETATM   30  C   UNL     1      -9.671   5.372  68.889  1.00  0.00    -0.205 A  
HETATM   31  C   UNL     1      -8.481   4.755  68.469  1.00  0.00    -0.097 A  
HETATM   32  C   UNL     1      -7.957   3.663  69.163  1.00  0.00    -0.059 A  
HETATM   33  C   UNL     1      -8.611   3.175  70.293  1.00  0.00    -0.108 A  
HETATM   34  C   UNL     1      -9.780   3.787  70.736  1.00  0.00    -0.235 A  
HETATM   35  C   UNL     1     -10.302   4.883  70.046  1.00  0.00    -0.242 A  
ENDBRANCH  26  30
ENDBRANCH  24  26
ENDBRANCH   7  22
TORSDOF 10
ENDMDL
MODEL      213
REMARK 921   NORMALIZED FREE ENERGY PREDICTED BY IDOCK:   -3.68 KCAL/MOL
REMARK 922        TOTAL FREE ENERGY PREDICTED BY IDOCK:   -7.09 KCAL/MOL
REMARK 923 INTER-LIGAND FREE ENERGY PREDICTED BY IDOCK:   -6.84 KCAL/MOL
REMARK 924 INTRA-LIGAND FREE ENERGY PREDICTED BY IDOCK:   -0.25 KCAL/MOL
REMARK 927      BINDING AFFINITY PREDICTED BY RF-SCORE:    0.00 PKD
ROOT
HETATM    1  C   UNL     1      -9.230   8.693  67.280  1.00  0.00    -0.140 C  
HETATM    2  S   UNL     1      -7.634   9.459  67.821  1.00  0.00    -0.087 SA 
HETATM    3  C   UNL     1      -7.505   8.439  69.360  1.00  0.00    -0.089 C  
HETATM    4  C   UNL     1      -8.416   7.217  69.128  1.00  0.00    -0.133 C  
HETATM    5  C   UNL     1      -6.041   8.101  69.646  1.00  0.00    -0.029 C  
HETATM    6  C   UNL     1      -8.011   9.318  70.525  1.00  0.00    -0.188 C  
HETATM    7  C   UNL     1     -10.548   9.408  67.690  1.00  0.00    -0.271 C  
HETATM    8  N   UNL     1      -9.532   7.670  68.297  1.00  0.00    -0.145 N  
HETATM    9  O   UNL     1     -11.116   8.269  69.915  1.00  0.00    -0.210 OA 
HETATM   10  C   UNL     1     -10.579   8.367  68.835  1.00  0.00    -0.140 C  
ENDROOT
BRANCH   4  11
HETATM   11  C   UNL     1      -7.777   6.004  68.421  1.00  0.00    -0.099 C  
HETATM   12  O   UNL     1      -6.596   5.680  68.468  1.00  0.00    -0.047 OA 
BRANCH  11  13
HETATM   13  O   UNL     1      -8.698   5.371  67.638  1.00  0.00    -0.108 OA 
BRANCH  13  14
HETATM   14  C   UNL     1      -8.212   4.147  67.064  1.00  0.00    -0.100 C  
HETATM   15  C   UNL     1      -9.044   2.965  67.538  1.00  0.00    -0.215 C  
BRANCH  14  16
HETATM   16  O   UNL     1      -8.365   4.205  65.639  1.00  0.00    -0.108 OA 
BRANCH  16  17
HETATM   17  C   UNL     1      -7.540   5.108  65.056  1.00  0.00    -0.082 C  
HETATM   18  O   UNL     1      -6.318   5.053  65.055  1.00  0.00    -0.033 OA 
BRANCH  17  19
HETATM   19  O   UNL     1      -8.292   6.134  64.592  1.00  0.00    -0.123 OA 
BRANCH  19  20
HETATM   20  C   UNL     1      -7.544   7.284  64.166  1.00  0.00    -0.113 C  
HETATM   21  C   UNL     1      -7.497   7.304  62.649  1.00  0.00    -0.103 C  
ENDBRANCH  19  20
ENDBRANCH  17  19
ENDBRANCH  16  17
ENDBRANCH  14  16
ENDBRANCH  13  14
ENDBRANCH  11  13
ENDBRANCH   4  11
BRANCH   7  22
HETATM   22  N   UNL     1     -10.455  10.830  68.096  1.00  0.00    -0.175 N  
HETATM   23  H   UNL     1      -9.553  11.304  68.037  1.00  0.00     0.000 HD 
HETATM   24  C   UNL     1     -11.552  11.530  68.551  1.00  0.00    -0.313 C  
HETATM   25  O   UNL     1     -12.643  10.996  68.741  1.00  0.00    -0.350 OA 
BRANCH  24  26
HETATM   26  C   UNL     1     -11.288  13.032  68.813  1.00  0.00    -0.289 C  
HETATM   27  N   UNL     1      -9.829  13.267  68.992  1.00  0.00    -0.406 NA 
HETATM   28  H2  UNL     1      -9.285  12.914  68.203  1.00  0.00     0.000 HD 
HETATM   29  H1  UNL     1      -9.654  14.257  69.165  1.00  0.00     0.000 HD 
BRANCH  26  30
HETATM   30  C   UNL     1     -12.104  13.548  69.984  1.00  0.00    -0.411 A  
HETATM   31  C   UNL     1     -12.473  14.903  70.026  1.00  0.00    -0.320 A  
HETATM   32  C   UNL     1     -13.212  15.411  71.096  1.00  0.00    -0.583 A  
HETATM   33  C   UNL     1     -13.602  14.571  72.137  1.00  0.00    -0.516 A  
HETATM   34  C   UNL     1     -13.264  13.220  72.101  1.00  0.00    -0.562 A  
HETATM   35  C   UNL     1     -12.528  12.710  71.029  1.00  0.00    -0.354 A  
ENDBRANCH  26  30
ENDBRANCH  24  26
ENDBRANCH   7  22
TORSDOF 10
ENDMDL
MODEL      214
REMARK 921   NORMALIZED FREE ENERGY PREDICTED BY IDOCK:   -3.66 KCAL/MOL
REMARK 922        TOTAL FREE ENERGY PREDICTED BY IDOCK:   -7.06 KCAL/MOL
REMARK 923 INTER-LIGAND FREE ENERGY PREDICTED BY IDOCK:   -6.26 KCAL/MOL
REMARK 924 INTRA-LIGAND FREE ENERGY PREDICTED BY IDOCK:   -0.79 KCAL/MOL
REMARK 927      BINDING AFFINITY PREDICTED BY RF-SCORE:    0.00 PKD
ROOT
HETATM    1  C   UNL     1      -8.361  12.284  67.215  1.00  0.00    -0.182 C  
HETATM    2  S   UNL     1      -9.205  11.984  65.595  1.00  0.00     0.090 SA 
HETATM    3  C   UNL     1     -10.897  11.875  66.337  1.00  0.00    -0.279 C  
HETATM    4  C   UNL     1     -10.795  12.573  67.709  1.00  0.00    -0.225 C  
HETATM    5  C   UNL     1     -11.929  12.481  65.386  1.00  0.00    -0.492 C  
HETATM    6  C   UNL     1     -11.229  10.374  66.483  1.00  0.00     0.283 C  
HETATM    7  C   UNL     1      -7.791  11.050  67.970  1.00  0.00    -0.112 C  
HETATM    8  N   UNL     1      -9.444  12.328  68.213  1.00  0.00    -0.214 N  
HETATM    9  O   UNL     1      -9.755  10.379  69.474  1.00  0.00    -0.219 OA 
HETATM   10  C   UNL     1      -9.107  11.130  68.782  1.00  0.00    -0.139 C  
ENDROOT
BRANCH   4  11
HETATM   11  C   UNL     1     -11.024  14.099  67.724  1.00  0.00    -0.262 C  
HETATM   12  O   UNL     1     -11.504  14.767  66.817  1.00  0.00    -0.351 OA 
BRANCH  11  13
HETATM   13  O   UNL     1     -10.520  14.642  68.871  1.00  0.00    -0.237 OA 
BRANCH  13  14
HETATM   14  C   UNL     1     -11.089  15.922  69.192  1.00  0.00    -0.302 C  
HETATM   15  C   UNL     1     -11.769  15.881  70.551  1.00  0.00    -0.394 C  
BRANCH  14  16
HETATM   16  O   UNL     1     -10.036  16.890  69.294  1.00  0.00    -0.250 OA 
BRANCH  16  17
HETATM   17  C   UNL     1      -9.946  17.690  68.205  1.00  0.00    -0.330 C  
HETATM   18  O   UNL     1     -10.886  18.245  67.654  1.00  0.00    -0.396 OA 
BRANCH  17  19
HETATM   19  O   UNL     1      -8.667  17.663  67.761  1.00  0.00    -0.227 OA 
BRANCH  19  20
HETATM   20  C   UNL     1      -7.737  18.409  68.561  1.00  0.00    -0.303 C  
HETATM   21  C   UNL     1      -6.363  17.773  68.438  1.00  0.00    -0.196 C  
ENDBRANCH  19  20
ENDBRANCH  17  19
ENDBRANCH  16  17
ENDBRANCH  14  16
ENDBRANCH  13  14
ENDBRANCH  11  13
ENDBRANCH   4  11
BRANCH   7  22
HETATM   22  N   UNL     1      -7.575   9.811  67.187  1.00  0.00    -0.092 N  
HETATM   23  H   UNL     1      -7.735   9.827  66.180  1.00  0.00     0.000 HD 
HETATM   24  C   UNL     1      -7.164   8.637  67.782  1.00  0.00    -0.088 C  
HETATM   25  O   UNL     1      -7.050   8.519  69.001  1.00  0.00    -0.063 OA 
BRANCH  24  26
HETATM   26  C   UNL     1      -6.877   7.485  66.791  1.00  0.00    -0.070 C  
HETATM   27  N   UNL     1      -6.356   8.036  65.510  1.00  0.00    -0.044 NA 
HETATM   28  H2  UNL     1      -5.539   8.631  65.653  1.00  0.00     0.000 HD 
HETATM   29  H1  UNL     1      -6.166   7.276  64.856  1.00  0.00     0.000 HD 
BRANCH  26  30
HETATM   30  C   UNL     1      -8.095   6.603  66.588  1.00  0.00    -0.110 A  
HETATM   31  C   UNL     1      -7.937   5.323  66.029  1.00  0.00    -0.104 A  
HETATM   32  C   UNL     1      -9.040   4.493  65.818  1.00  0.00    -0.136 A  
HETATM   33  C   UNL     1     -10.317   4.926  66.169  1.00  0.00    -0.329 A  
HETATM   34  C   UNL     1     -10.489   6.182  66.744  1.00  0.00    -0.316 A  
HETATM   35  C   UNL     1      -9.386   7.012  66.960  1.00  0.00    -0.174 A  
ENDBRANCH  26  30
ENDBRANCH  24  26
ENDBRANCH   7  22
TORSDOF 10
ENDMDL
MODEL      215
REMARK 921   NORMALIZED FREE ENERGY PREDICTED BY IDOCK:   -3.65 KCAL/MOL
REMARK 922        TOTAL FREE ENERGY PREDICTED BY IDOCK:   -7.05 KCAL/MOL
REMARK 923 INTER-LIGAND FREE ENERGY PREDICTED BY IDOCK:   -5.71 KCAL/MOL
REMARK 924 INTRA-LIGAND FREE ENERGY PREDICTED BY IDOCK:   -1.33 KCAL/MOL
REMARK 927      BINDING AFFINITY PREDICTED BY RF-SCORE:    0.00 PKD
ROOT
HETATM    1  C   UNL     1      -8.453   8.790  68.588  1.00  0.00    -0.129 C  
HETATM    2  S   UNL     1     -10.035   8.353  69.443  1.00  0.00    -0.196 SA 
HETATM    3  C   UNL     1     -10.273   6.778  68.501  1.00  0.00    -0.175 C  
HETATM    4  C   UNL     1      -8.881   6.412  67.945  1.00  0.00    -0.113 C  
HETATM    5  C   UNL     1     -10.901   5.715  69.403  1.00  0.00    -0.334 C  
HETATM    6  C   UNL     1     -11.280   7.078  67.370  1.00  0.00    -0.150 C  
HETATM    7  C   UNL     1      -8.539   9.718  67.344  1.00  0.00    -0.128 C  
HETATM    8  N   UNL     1      -8.189   7.670  67.667  1.00  0.00    -0.120 N  
HETATM    9  O   UNL     1      -8.748   8.034  65.422  1.00  0.00    -0.147 OA 
HETATM   10  C   UNL     1      -8.464   8.397  66.541  1.00  0.00    -0.113 C  
ENDROOT
BRANCH   4  11
HETATM   11  C   UNL     1      -7.968   5.576  68.866  1.00  0.00    -0.095 C  
HETATM   12  O   UNL     1      -7.339   5.992  69.831  1.00  0.00    -0.071 OA 
BRANCH  11  13
HETATM   13  O   UNL     1      -7.870   4.296  68.401  1.00  0.00    -0.074 OA 
BRANCH  13  14
HETATM   14  C   UNL     1      -7.333   4.215  67.070  1.00  0.00    -0.073 C  
HETATM   15  C   UNL     1      -5.911   3.677  67.097  1.00  0.00    -0.023 C  
BRANCH  14  16
HETATM   16  O   UNL     1      -8.107   3.277  66.310  1.00  0.00    -0.090 OA 
BRANCH  16  17
HETATM   17  C   UNL     1      -8.573   3.796  65.149  1.00  0.00    -0.113 C  
HETATM   18  O   UNL     1      -8.254   4.878  64.678  1.00  0.00    -0.111 OA 
BRANCH  17  19
HETATM   19  O   UNL     1      -9.538   2.974  64.673  1.00  0.00    -0.153 OA 
BRANCH  19  20
HETATM   20  C   UNL     1     -10.367   3.547  63.650  1.00  0.00    -0.237 C  
HETATM   21  C   UNL     1     -11.136   2.435  62.960  1.00  0.00    -0.217 C  
ENDBRANCH  19  20
ENDBRANCH  17  19
ENDBRANCH  16  17
ENDBRANCH  14  16
ENDBRANCH  13  14
ENDBRANCH  11  13
ENDBRANCH   4  11
BRANCH   7  22
HETATM   22  N   UNL     1      -9.773  10.521  67.175  1.00  0.00    -0.168 N  
HETATM   23  H   UNL     1     -10.513  10.444  67.873  1.00  0.00     0.000 HD 
HETATM   24  C   UNL     1      -9.950  11.368  66.102  1.00  0.00    -0.227 C  
HETATM   25  O   UNL     1      -9.145  11.434  65.174  1.00  0.00    -0.163 OA 
BRANCH  24  26
HETATM   26  C   UNL     1     -11.246  12.210  66.158  1.00  0.00    -0.338 C  
HETATM   27  N   UNL     1     -12.240  11.678  65.186  1.00  0.00    -0.018 NA 
HETATM   28  H2  UNL     1     -12.422  10.684  65.330  1.00  0.00     0.000 HD 
HETATM   29  H1  UNL     1     -13.094  12.234  65.222  1.00  0.00     0.000 HD 
BRANCH  26  30
HETATM   30  C   UNL     1     -10.964  13.687  65.947  1.00  0.00    -0.284 A  
HETATM   31  C   UNL     1     -10.228  14.395  66.912  1.00  0.00    -0.265 A  
HETATM   32  C   UNL     1      -9.964  15.757  66.752  1.00  0.00    -0.260 A  
HETATM   33  C   UNL     1     -10.424  16.430  65.623  1.00  0.00    -0.364 A  
HETATM   34  C   UNL     1     -11.137  15.739  64.646  1.00  0.00    -0.376 A  
HETATM   35  C   UNL     1     -11.398  14.375  64.802  1.00  0.00    -0.388 A  
ENDBRANCH  26  30
ENDBRANCH  24  26
ENDBRANCH   7  22
TORSDOF 10
ENDMDL
MODEL      216
REMARK 921   NORMALIZED FREE ENERGY PREDICTED BY IDOCK:   -3.57 KCAL/MOL
REMARK 922        TOTAL FREE ENERGY PREDICTED BY IDOCK:   -6.92 KCAL/MOL
REMARK 923 INTER-LIGAND FREE ENERGY PREDICTED BY IDOCK:   -6.07 KCAL/MOL
REMARK 924 INTRA-LIGAND FREE ENERGY PREDICTED BY IDOCK:   -0.85 KCAL/MOL
REMARK 927      BINDING AFFINITY PREDICTED BY RF-SCORE:    0.00 PKD
ROOT
HETATM    1  C   UNL     1      -8.221  10.505  67.935  1.00  0.00    -0.107 C  
HETATM    2  S   UNL     1      -9.091  10.926  69.513  1.00  0.00     0.425 SA 
HETATM    3  C   UNL     1     -10.022   9.329  69.590  1.00  0.00    -0.191 C  
HETATM    4  C   UNL     1      -9.245   8.351  68.685  1.00  0.00    -0.143 C  
HETATM    5  C   UNL     1     -10.170   8.875  71.043  1.00  0.00    -0.322 C  
HETATM    6  C   UNL     1     -11.440   9.608  69.048  1.00  0.00     0.158 C  
HETATM    7  C   UNL     1      -8.867  10.986  66.605  1.00  0.00    -0.164 C  
HETATM    8  N   UNL     1      -8.669   9.142  67.598  1.00  0.00    -0.120 N  
HETATM    9  O   UNL     1     -10.339   8.988  65.962  1.00  0.00    -0.147 OA 
HETATM   10  C   UNL     1      -9.430   9.546  66.535  1.00  0.00    -0.182 C  
ENDROOT
BRANCH   4  11
HETATM   11  C   UNL     1      -8.093   7.565  69.346  1.00  0.00    -0.128 C  
HETATM   12  O   UNL     1      -6.943   7.960  69.496  1.00  0.00    -0.052 OA 
BRANCH  11  13
HETATM   13  O   UNL     1      -8.501   6.302  69.664  1.00  0.00    -0.126 OA 
BRANCH  13  14
HETATM   14  C   UNL     1      -9.534   5.803  68.798  1.00  0.00    -0.124 C  
HETATM   15  C   UNL     1      -8.971   4.772  67.832  1.00  0.00    -0.124 C  
BRANCH  14  16
HETATM   16  O   UNL     1     -10.519   5.124  69.588  1.00  0.00    -0.280 OA 
BRANCH  16  17
HETATM   17  C   UNL     1     -10.079   4.818  70.832  1.00  0.00    -0.205 C  
HETATM   18  O   UNL     1      -9.447   3.816  71.133  1.00  0.00    -0.139 OA 
BRANCH  17  19
HETATM   19  O   UNL     1     -10.565   5.742  71.695  1.00  0.00    -0.229 OA 
BRANCH  19  20
HETATM   20  C   UNL     1     -10.647   5.306  73.061  1.00  0.00    -0.234 C  
HETATM   21  C   UNL     1      -9.835   6.252  73.928  1.00  0.00    -0.229 C  
ENDBRANCH  19  20
ENDBRANCH  17  19
ENDBRANCH  16  17
ENDBRANCH  14  16
ENDBRANCH  13  14
ENDBRANCH  11  13
ENDBRANCH   4  11
BRANCH   7  22
HETATM   22  N   UNL     1      -9.864  12.079  66.687  1.00  0.00    -0.201 N  
HETATM   23  H   UNL     1     -10.833  11.884  66.436  1.00  0.00     0.000 HD 
HETATM   24  C   UNL     1      -9.519  13.350  67.093  1.00  0.00    -0.244 C  
HETATM   25  O   UNL     1      -8.355  13.679  67.315  1.00  0.00    -0.179 OA 
BRANCH  24  26
HETATM   26  C   UNL     1     -10.713  14.323  67.231  1.00  0.00    -0.277 C  
HETATM   27  N   UNL     1     -10.317  15.681  66.767  1.00  0.00    -0.281 NA 
HETATM   28  H2  UNL     1      -9.942  15.667  65.818  1.00  0.00     0.000 HD 
HETATM   29  H1  UNL     1     -11.104  16.324  66.857  1.00  0.00     0.000 HD 
BRANCH  26  30
HETATM   30  C   UNL     1     -11.267  14.335  68.644  1.00  0.00    -0.287 A  
HETATM   31  C   UNL     1     -11.301  15.541  69.364  1.00  0.00    -0.321 A  
HETATM   32  C   UNL     1     -11.793  15.582  70.669  1.00  0.00    -0.400 A  
HETATM   33  C   UNL     1     -12.266  14.419  71.274  1.00  0.00    -0.429 A  
HETATM   34  C   UNL     1     -12.259  13.219  70.568  1.00  0.00    -0.416 A  
HETATM   35  C   UNL     1     -11.772  13.178  69.260  1.00  0.00    -0.376 A  
ENDBRANCH  26  30
ENDBRANCH  24  26
ENDBRANCH   7  22
TORSDOF 10
ENDMDL
MODEL      217
REMARK 921   NORMALIZED FREE ENERGY PREDICTED BY IDOCK:   -3.57 KCAL/MOL
REMARK 922        TOTAL FREE ENERGY PREDICTED BY IDOCK:   -6.92 KCAL/MOL
REMARK 923 INTER-LIGAND FREE ENERGY PREDICTED BY IDOCK:   -6.12 KCAL/MOL
REMARK 924 INTRA-LIGAND FREE ENERGY PREDICTED BY IDOCK:   -0.79 KCAL/MOL
REMARK 927      BINDING AFFINITY PREDICTED BY RF-SCORE:    0.00 PKD
ROOT
HETATM    1  C   UNL     1      -8.180   9.615  67.028  1.00  0.00    -0.117 C  
HETATM    2  S   UNL     1      -8.674   9.957  68.779  1.00  0.00    -0.139 SA 
HETATM    3  C   UNL     1     -10.455   9.534  68.505  1.00  0.00    -0.217 C  
HETATM    4  C   UNL     1     -10.487   8.671  67.227  1.00  0.00    -0.289 C  
HETATM    5  C   UNL     1     -11.032   8.856  69.749  1.00  0.00    -0.164 C  
HETATM    6  C   UNL     1     -11.211  10.867  68.315  1.00  0.00    -0.347 C  
HETATM    7  C   UNL     1      -8.161  10.814  66.038  1.00  0.00    -0.164 C  
HETATM    8  N   UNL     1      -9.410   9.153  66.362  1.00  0.00    -0.187 N  
HETATM    9  O   UNL     1     -10.527  10.742  65.054  1.00  0.00    -0.293 OA 
HETATM   10  C   UNL     1      -9.556  10.290  65.616  1.00  0.00    -0.232 C  
ENDROOT
BRANCH   4  11
HETATM   11  C   UNL     1     -10.285   7.153  67.414  1.00  0.00    -0.226 C  
HETATM   12  O   UNL     1     -11.153   6.293  67.325  1.00  0.00    -0.353 OA 
BRANCH  11  13
HETATM   13  O   UNL     1      -9.002   6.888  67.797  1.00  0.00    -0.119 OA 
BRANCH  13  14
HETATM   14  C   UNL     1      -8.420   5.772  67.104  1.00  0.00    -0.107 C  
HETATM   15  C   UNL     1      -7.030   6.122  66.596  1.00  0.00    -0.067 C  
BRANCH  14  16
HETATM   16  O   UNL     1      -8.254   4.685  68.024  1.00  0.00    -0.091 OA 
BRANCH  16  17
HETATM   17  C   UNL     1      -9.047   3.625  67.737  1.00  0.00    -0.156 C  
HETATM   18  O   UNL     1      -9.330   2.721  68.511  1.00  0.00    -0.175 OA 
BRANCH  17  19
HETATM   19  O   UNL     1      -9.365   3.675  66.422  1.00  0.00    -0.168 OA 
BRANCH  19  20
HETATM   20  C   UNL     1      -9.094   2.470  65.691  1.00  0.00    -0.108 C  
HETATM   21  C   UNL     1      -9.400   2.707  64.222  1.00  0.00    -0.132 C  
ENDBRANCH  19  20
ENDBRANCH  17  19
ENDBRANCH  16  17
ENDBRANCH  14  16
ENDBRANCH  13  14
ENDBRANCH  11  13
ENDBRANCH   4  11
BRANCH   7  22
HETATM   22  N   UNL     1      -8.118  12.177  66.617  1.00  0.00    -0.384 N  
HETATM   23  H   UNL     1      -8.986  12.707  66.698  1.00  0.00     0.000 HD 
HETATM   24  C   UNL     1      -6.940  12.748  67.047  1.00  0.00     0.166 C  
HETATM   25  O   UNL     1      -5.847  12.207  66.887  1.00  0.00    -0.234 OA 
BRANCH  24  26
HETATM   26  C   UNL     1      -7.109  14.125  67.731  1.00  0.00    -0.174 C  
HETATM   27  N   UNL     1      -6.644  14.052  69.143  1.00  0.00    -0.108 NA 
HETATM   28  H2  UNL     1      -5.687  13.704  69.213  1.00  0.00     0.000 HD 
HETATM   29  H1  UNL     1      -6.756  14.960  69.594  1.00  0.00     0.000 HD 
BRANCH  26  30
HETATM   30  C   UNL     1      -8.534  14.636  67.618  1.00  0.00    -0.187 A  
HETATM   31  C   UNL     1      -9.476  14.281  68.598  1.00  0.00    -0.178 A  
HETATM   32  C   UNL     1     -10.797  14.724  68.515  1.00  0.00    -0.255 A  
HETATM   33  C   UNL     1     -11.196  15.536  67.456  1.00  0.00    -0.272 A  
HETATM   34  C   UNL     1     -10.270  15.916  66.487  1.00  0.00    -0.297 A  
HETATM   35  C   UNL     1      -8.947  15.477  66.571  1.00  0.00    -0.348 A  
ENDBRANCH  26  30
ENDBRANCH  24  26
ENDBRANCH   7  22
TORSDOF 10
ENDMDL
MODEL      218
REMARK 921   NORMALIZED FREE ENERGY PREDICTED BY IDOCK:   -3.55 KCAL/MOL
REMARK 922        TOTAL FREE ENERGY PREDICTED BY IDOCK:   -6.89 KCAL/MOL
REMARK 923 INTER-LIGAND FREE ENERGY PREDICTED BY IDOCK:   -6.00 KCAL/MOL
REMARK 924 INTRA-LIGAND FREE ENERGY PREDICTED BY IDOCK:   -0.89 KCAL/MOL
REMARK 927      BINDING AFFINITY PREDICTED BY RF-SCORE:    0.00 PKD
ROOT
HETATM    1  C   UNL     1      -8.724   9.546  66.919  1.00  0.00    -0.128 C  
HETATM    2  S   UNL     1      -7.119  10.417  66.619  1.00  0.00    -0.119 SA 
HETATM    3  C   UNL     1      -6.764  10.679  68.417  1.00  0.00    -0.060 C  
HETATM    4  C   UNL     1      -7.632   9.648  69.166  1.00  0.00    -0.082 C  
HETATM    5  C   UNL     1      -5.262  10.562  68.679  1.00  0.00    -0.037 C  
HETATM    6  C   UNL     1      -7.179  12.128  68.751  1.00  0.00    -0.103 C  
HETATM    7  C   UNL     1     -10.022  10.402  66.901  1.00  0.00    -0.206 C  
HETATM    8  N   UNL     1      -8.857   9.473  68.385  1.00  0.00    -0.124 N  
HETATM    9  O   UNL     1     -10.276  11.057  69.366  1.00  0.00    -0.178 OA 
HETATM   10  C   UNL     1      -9.870  10.390  68.441  1.00  0.00    -0.162 C  
ENDROOT
BRANCH   4  11
HETATM   11  C   UNL     1      -7.015   8.249  69.377  1.00  0.00    -0.050 C  
HETATM   12  O   UNL     1      -6.318   7.639  68.576  1.00  0.00    -0.041 OA 
BRANCH  11  13
HETATM   13  O   UNL     1      -7.435   7.720  70.564  1.00  0.00    -0.071 OA 
BRANCH  13  14
HETATM   14  C   UNL     1      -6.701   6.549  70.955  1.00  0.00    -0.054 C  
HETATM   15  C   UNL     1      -5.344   6.931  71.525  1.00  0.00    -0.028 C  
BRANCH  14  16
HETATM   16  O   UNL     1      -7.411   5.882  72.008  1.00  0.00    -0.090 OA 
BRANCH  16  17
HETATM   17  C   UNL     1      -8.062   4.772  71.585  1.00  0.00    -0.104 C  
HETATM   18  O   UNL     1      -7.530   3.721  71.257  1.00  0.00    -0.042 OA 
BRANCH  17  19
HETATM   19  O   UNL     1      -9.378   5.069  71.469  1.00  0.00    -0.142 OA 
BRANCH  19  20
HETATM   20  C   UNL     1     -10.262   3.944  71.591  1.00  0.00    -0.018 C  
HETATM   21  C   UNL     1     -10.643   3.775  73.051  1.00  0.00    -0.253 C  
ENDBRANCH  19  20
ENDBRANCH  17  19
ENDBRANCH  16  17
ENDBRANCH  14  16
ENDBRANCH  13  14
ENDBRANCH  11  13
ENDBRANCH   4  11
BRANCH   7  22
HETATM   22  N   UNL     1      -9.957  11.728  66.244  1.00  0.00    -0.213 N  
HETATM   23  H   UNL     1      -9.059  12.062  65.892  1.00  0.00     0.000 HD 
HETATM   24  C   UNL     1     -11.074  12.522  66.093  1.00  0.00    -0.298 C  
HETATM   25  O   UNL     1     -12.164  12.226  66.580  1.00  0.00    -0.588 OA 
BRANCH  24  26
HETATM   26  C   UNL     1     -10.835  13.814  65.278  1.00  0.00    -0.324 C  
HETATM   27  N   UNL     1      -9.863  13.550  64.181  1.00  0.00    -0.640 NA 
HETATM   28  H2  UNL     1     -10.156  12.772  63.589  1.00  0.00     0.000 HD 
HETATM   29  H1  UNL     1      -9.705  14.402  63.643  1.00  0.00     0.000 HD 
BRANCH  26  30
HETATM   30  C   UNL     1     -10.403  14.966  66.167  1.00  0.00    -0.312 A  
HETATM   31  C   UNL     1     -11.123  15.240  67.342  1.00  0.00    -0.326 A  
HETATM   32  C   UNL     1     -10.758  16.301  68.174  1.00  0.00    -0.322 A  
HETATM   33  C   UNL     1      -9.663  17.099  67.849  1.00  0.00    -0.270 A  
HETATM   34  C   UNL     1      -8.925  16.828  66.699  1.00  0.00    -0.278 A  
HETATM   35  C   UNL     1      -9.286  15.764  65.869  1.00  0.00    -0.337 A  
ENDBRANCH  26  30
ENDBRANCH  24  26
ENDBRANCH   7  22
TORSDOF 10
ENDMDL
MODEL      219
REMARK 921   NORMALIZED FREE ENERGY PREDICTED BY IDOCK:   -3.53 KCAL/MOL
REMARK 922        TOTAL FREE ENERGY PREDICTED BY IDOCK:   -6.86 KCAL/MOL
REMARK 923 INTER-LIGAND FREE ENERGY PREDICTED BY IDOCK:   -5.28 KCAL/MOL
REMARK 924 INTRA-LIGAND FREE ENERGY PREDICTED BY IDOCK:   -1.58 KCAL/MOL
REMARK 927      BINDING AFFINITY PREDICTED BY RF-SCORE:    0.00 PKD
ROOT
HETATM    1  C   UNL     1      -9.508   9.765  69.685  1.00  0.00    -0.219 C  
HETATM    2  S   UNL     1      -7.701   9.603  70.050  1.00  0.00    -0.171 SA 
HETATM    3  C   UNL     1      -7.266   9.020  68.348  1.00  0.00    -0.077 C  
HETATM    4  C   UNL     1      -8.437   9.461  67.446  1.00  0.00    -0.125 C  
HETATM    5  C   UNL     1      -5.900   9.569  67.937  1.00  0.00    -0.041 C  
HETATM    6  C   UNL     1      -7.144   7.482  68.417  1.00  0.00    -0.081 C  
HETATM    7  C   UNL     1     -10.423   8.555  70.024  1.00  0.00    -0.223 C  
HETATM    8  N   UNL     1      -9.649   9.405  68.263  1.00  0.00    -0.141 N  
HETATM    9  O   UNL     1     -10.416   7.235  67.826  1.00  0.00    -0.201 OA 
HETATM   10  C   UNL     1     -10.276   8.216  68.521  1.00  0.00    -0.208 C  
ENDROOT
BRANCH   4  11
HETATM   11  C   UNL     1      -8.349  10.880  66.846  1.00  0.00    -0.133 C  
HETATM   12  O   UNL     1      -8.447  11.933  67.463  1.00  0.00    -0.147 OA 
BRANCH  11  13
HETATM   13  O   UNL     1      -8.243  10.813  65.486  1.00  0.00    -0.159 OA 
BRANCH  13  14
HETATM   14  C   UNL     1      -9.171   9.895  64.887  1.00  0.00    -0.246 C  
HETATM   15  C   UNL     1     -10.333  10.643  64.253  1.00  0.00    -0.325 C  
BRANCH  14  16
HETATM   16  O   UNL     1      -8.513   9.191  63.825  1.00  0.00    -0.180 OA 
BRANCH  16  17
HETATM   17  C   UNL     1      -7.726   8.182  64.268  1.00  0.00    -0.128 C  
HETATM   18  O   UNL     1      -6.524   8.080  64.067  1.00  0.00    -0.064 OA 
BRANCH  17  19
HETATM   19  O   UNL     1      -8.516   7.253  64.856  1.00  0.00    -0.064 OA 
BRANCH  19  20
HETATM   20  C   UNL     1      -7.903   5.968  65.037  1.00  0.00    -0.108 C  
HETATM   21  C   UNL     1      -8.921   4.888  64.715  1.00  0.00    -0.125 C  
ENDBRANCH  19  20
ENDBRANCH  17  19
ENDBRANCH  16  17
ENDBRANCH  14  16
ENDBRANCH  13  14
ENDBRANCH  11  13
ENDBRANCH   4  11
BRANCH   7  22
HETATM   22  N   UNL     1      -9.900   7.550  70.979  1.00  0.00    -0.179 N  
HETATM   23  H   UNL     1      -8.895   7.504  71.148  1.00  0.00     0.000 HD 
HETATM   24  C   UNL     1     -10.732   6.676  71.646  1.00  0.00    -0.229 C  
HETATM   25  O   UNL     1     -11.938   6.610  71.416  1.00  0.00    -0.327 OA 
BRANCH  24  26
HETATM   26  C   UNL     1     -10.019   5.784  72.688  1.00  0.00    -0.176 C  
HETATM   27  N   UNL     1      -8.599   6.207  72.833  1.00  0.00    -0.123 NA 
HETATM   28  H2  UNL     1      -8.516   7.199  73.057  1.00  0.00     0.000 HD 
HETATM   29  H1  UNL     1      -8.129   5.619  73.520  1.00  0.00     0.000 HD 
BRANCH  26  30
HETATM   30  C   UNL     1     -10.151   4.310  72.349  1.00  0.00    -0.240 A  
HETATM   31  C   UNL     1      -9.523   3.807  71.198  1.00  0.00    -0.236 A  
HETATM   32  C   UNL     1      -9.636   2.459  70.853  1.00  0.00    -0.188 A  
HETATM   33  C   UNL     1     -10.373   1.591  71.656  1.00  0.00    -0.046 A  
HETATM   34  C   UNL     1     -10.984   2.069  72.813  1.00  0.00    -0.120 A  
HETATM   35  C   UNL     1     -10.868   3.416  73.162  1.00  0.00    -0.246 A  
ENDBRANCH  26  30
ENDBRANCH  24  26
ENDBRANCH   7  22
TORSDOF 10
ENDMDL
MODEL      220
REMARK 921   NORMALIZED FREE ENERGY PREDICTED BY IDOCK:   -3.51 KCAL/MOL
REMARK 922        TOTAL FREE ENERGY PREDICTED BY IDOCK:   -6.82 KCAL/MOL
REMARK 923 INTER-LIGAND FREE ENERGY PREDICTED BY IDOCK:   -5.64 KCAL/MOL
REMARK 924 INTRA-LIGAND FREE ENERGY PREDICTED BY IDOCK:   -1.17 KCAL/MOL
REMARK 927      BINDING AFFINITY PREDICTED BY RF-SCORE:    0.00 PKD
ROOT
HETATM    1  C   UNL     1      -8.758  10.424  67.303  1.00  0.00    -0.125 C  
HETATM    2  S   UNL     1     -10.440  10.429  66.530  1.00  0.00    -0.159 SA 
HETATM    3  C   UNL     1     -11.161  11.595  67.773  1.00  0.00    -0.249 C  
HETATM    4  C   UNL     1      -9.958  12.315  68.415  1.00  0.00    -0.209 C  
HETATM    5  C   UNL     1     -12.175  12.521  67.100  1.00  0.00     0.087 C  
HETATM    6  C   UNL     1     -11.930  10.738  68.801  1.00  0.00    -0.157 C  
HETATM    7  C   UNL     1      -8.439   9.299  68.327  1.00  0.00    -0.120 C  
HETATM    8  N   UNL     1      -8.851  11.358  68.439  1.00  0.00    -0.164 N  
HETATM    9  O   UNL     1      -9.115  10.381  70.551  1.00  0.00     0.459 OA 
HETATM   10  C   UNL     1      -8.787  10.373  69.386  1.00  0.00    -0.123 C  
ENDROOT
BRANCH   4  11
HETATM   11  C   UNL     1      -9.453  13.587  67.701  1.00  0.00    -0.222 C  
HETATM   12  O   UNL     1      -8.563  13.639  66.861  1.00  0.00    -0.194 OA 
BRANCH  11  13
HETATM   13  O   UNL     1     -10.074  14.692  68.207  1.00  0.00    -0.218 OA 
BRANCH  13  14
HETATM   14  C   UNL     1      -9.749  14.947  69.584  1.00  0.00     0.032 C  
HETATM   15  C   UNL     1      -8.333  15.488  69.709  1.00  0.00     0.016 C  
BRANCH  14  16
HETATM   16  O   UNL     1     -10.620  15.968  70.089  1.00  0.00    -0.306 OA 
BRANCH  16  17
HETATM   17  C   UNL     1     -11.885  15.529  70.293  1.00  0.00    -0.357 C  
HETATM   18  O   UNL     1     -12.902  16.112  69.946  1.00  0.00     0.042 OA 
BRANCH  17  19
HETATM   19  O   UNL     1     -11.829  14.409  71.052  1.00  0.00    -0.317 OA 
BRANCH  19  20
HETATM   20  C   UNL     1     -13.008  13.591  71.006  1.00  0.00    -0.202 C  
HETATM   21  C   UNL     1     -13.886  13.928  72.198  1.00  0.00    -0.636 C  
ENDBRANCH  19  20
ENDBRANCH  17  19
ENDBRANCH  16  17
ENDBRANCH  14  16
ENDBRANCH  13  14
ENDBRANCH  11  13
ENDBRANCH   4  11
BRANCH   7  22
HETATM   22  N   UNL     1      -9.299   8.093  68.307  1.00  0.00    -0.134 N  
HETATM   23  H   UNL     1     -10.181   8.105  68.819  1.00  0.00     0.000 HD 
HETATM   24  C   UNL     1      -8.942   6.955  67.615  1.00  0.00    -0.116 C  
HETATM   25  O   UNL     1      -7.851   6.836  67.060  1.00  0.00    -0.101 OA 
BRANCH  24  26
HETATM   26  C   UNL     1     -10.019   5.845  67.610  1.00  0.00    -0.138 C  
HETATM   27  N   UNL     1     -11.362   6.442  67.373  1.00  0.00    -0.718 NA 
HETATM   28  H2  UNL     1     -11.387   7.003  66.521  1.00  0.00     0.000 HD 
HETATM   29  H1  UNL     1     -12.073   5.710  67.370  1.00  0.00     0.000 HD 
BRANCH  26  30
HETATM   30  C   UNL     1      -9.972   5.013  68.878  1.00  0.00    -0.236 A  
HETATM   31  C   UNL     1     -10.629   5.474  70.032  1.00  0.00    -0.384 A  
HETATM   32  C   UNL     1     -10.594   4.737  71.217  1.00  0.00    -0.040 A  
HETATM   33  C   UNL     1      -9.908   3.525  71.267  1.00  0.00    -0.205 A  
HETATM   34  C   UNL     1      -9.270   3.043  70.127  1.00  0.00    -0.215 A  
HETATM   35  C   UNL     1      -9.308   3.776  68.939  1.00  0.00    -0.234 A  
ENDBRANCH  26  30
ENDBRANCH  24  26
ENDBRANCH   7  22
TORSDOF 10
ENDMDL
MODEL      221
REMARK 921   NORMALIZED FREE ENERGY PREDICTED BY IDOCK:   -3.48 KCAL/MOL
REMARK 922        TOTAL FREE ENERGY PREDICTED BY IDOCK:   -6.77 KCAL/MOL
REMARK 923 INTER-LIGAND FREE ENERGY PREDICTED BY IDOCK:   -5.71 KCAL/MOL
REMARK 924 INTRA-LIGAND FREE ENERGY PREDICTED BY IDOCK:   -1.05 KCAL/MOL
REMARK 927      BINDING AFFINITY PREDICTED BY RF-SCORE:    0.00 PKD
ROOT
HETATM    1  C   UNL     1      -7.966  10.198  67.780  1.00  0.00    -0.102 C  
HETATM    2  S   UNL     1      -8.906  10.714  69.288  1.00  0.00    -0.012 SA 
HETATM    3  C   UNL     1     -10.397   9.697  68.878  1.00  0.00    -0.203 C  
HETATM    4  C   UNL     1      -9.909   8.628  67.880  1.00  0.00    -0.173 C  
HETATM    5  C   UNL     1     -11.022   9.140  70.158  1.00  0.00    -0.267 C  
HETATM    6  C   UNL     1     -11.429  10.650  68.237  1.00  0.00    -0.318 C  
HETATM    7  C   UNL     1      -8.062  11.110  66.524  1.00  0.00    -0.163 C  
HETATM    8  N   UNL     1      -8.844   9.240  67.085  1.00  0.00    -0.127 N  
HETATM    9  O   UNL     1     -10.042  10.085  65.259  1.00  0.00    -0.321 OA 
HETATM   10  C   UNL     1      -9.131  10.093  66.055  1.00  0.00    -0.154 C  
ENDROOT
BRANCH   4  11
HETATM   11  C   UNL     1      -9.343   7.326  68.485  1.00  0.00    -0.141 C  
HETATM   12  O   UNL     1      -9.980   6.310  68.738  1.00  0.00    -0.139 OA 
BRANCH  11  13
HETATM   13  O   UNL     1      -8.025   7.484  68.802  1.00  0.00    -0.121 OA 
BRANCH  13  14
HETATM   14  C   UNL     1      -7.582   6.604  69.848  1.00  0.00    -0.100 C  
HETATM   15  C   UNL     1      -6.408   5.760  69.378  1.00  0.00    -0.040 C  
BRANCH  14  16
HETATM   16  O   UNL     1      -7.103   7.390  70.948  1.00  0.00    -0.061 OA 
BRANCH  16  17
HETATM   17  C   UNL     1      -8.056   7.628  71.881  1.00  0.00    -0.100 C  
HETATM   18  O   UNL     1      -8.134   8.633  72.574  1.00  0.00    -0.347 OA 
BRANCH  17  19
HETATM   19  O   UNL     1      -8.822   6.517  72.000  1.00  0.00    -0.133 OA 
BRANCH  19  20
HETATM   20  C   UNL     1      -9.646   6.477  73.175  1.00  0.00    -0.151 C  
HETATM   21  C   UNL     1     -11.101   6.601  72.759  1.00  0.00    -0.283 C  
ENDBRANCH  19  20
ENDBRANCH  17  19
ENDBRANCH  16  17
ENDBRANCH  14  16
ENDBRANCH  13  14
ENDBRANCH  11  13
ENDBRANCH   4  11
BRANCH   7  22
HETATM   22  N   UNL     1      -8.524  12.503  66.726  1.00  0.00    -0.367 N  
HETATM   23  H   UNL     1      -9.501  12.732  66.545  1.00  0.00     0.000 HD 
HETATM   24  C   UNL     1      -7.670  13.499  67.151  1.00  0.00     0.028 C  
HETATM   25  O   UNL     1      -6.462  13.316  67.292  1.00  0.00    -0.256 OA 
BRANCH  24  26
HETATM   26  C   UNL     1      -8.357  14.858  67.420  1.00  0.00    -0.194 C  
HETATM   27  N   UNL     1      -9.214  15.232  66.261  1.00  0.00    -0.302 NA 
HETATM   28  H2  UNL     1      -9.888  14.500  66.032  1.00  0.00     0.000 HD 
HETATM   29  H1  UNL     1      -9.667  16.128  66.438  1.00  0.00     0.000 HD 
BRANCH  26  30
HETATM   30  C   UNL     1      -7.347  15.938  67.763  1.00  0.00    -0.162 A  
HETATM   31  C   UNL     1      -6.769  16.697  66.732  1.00  0.00    -0.241 A  
HETATM   32  C   UNL     1      -5.828  17.690  67.015  1.00  0.00    -0.174 A  
HETATM   33  C   UNL     1      -5.456  17.944  68.334  1.00  0.00    -0.160 A  
HETATM   34  C   UNL     1      -6.035  17.216  69.370  1.00  0.00    -0.222 A  
HETATM   35  C   UNL     1      -6.980  16.226  69.089  1.00  0.00    -0.206 A  
ENDBRANCH  26  30
ENDBRANCH  24  26
ENDBRANCH   7  22
TORSDOF 10
ENDMDL
MODEL      222
REMARK 921   NORMALIZED FREE ENERGY PREDICTED BY IDOCK:   -3.48 KCAL/MOL
REMARK 922        TOTAL FREE ENERGY PREDICTED BY IDOCK:   -6.77 KCAL/MOL
REMARK 923 INTER-LIGAND FREE ENERGY PREDICTED BY IDOCK:   -6.44 KCAL/MOL
REMARK 924 INTRA-LIGAND FREE ENERGY PREDICTED BY IDOCK:   -0.33 KCAL/MOL
REMARK 927      BINDING AFFINITY PREDICTED BY RF-SCORE:    0.00 PKD
ROOT
HETATM    1  C   UNL     1     -10.034  10.655  69.029  1.00  0.00    -0.213 C  
HETATM    2  S   UNL     1      -8.187  10.695  69.149  1.00  0.00    -0.108 SA 
HETATM    3  C   UNL     1      -7.925  10.513  67.326  1.00  0.00    -0.114 C  
HETATM    4  C   UNL     1      -9.255  10.938  66.670  1.00  0.00    -0.168 C  
HETATM    5  C   UNL     1      -6.706  11.325  66.886  1.00  0.00    -0.135 C  
HETATM    6  C   UNL     1      -7.608   9.025  67.063  1.00  0.00    -0.091 C  
HETATM    7  C   UNL     1     -10.738   9.281  69.213  1.00  0.00    -0.196 C  
HETATM    8  N   UNL     1     -10.326  10.552  67.589  1.00  0.00    -0.204 N  
HETATM    9  O   UNL     1     -10.876   8.415  66.804  1.00  0.00    -0.172 OA 
HETATM   10  C   UNL     1     -10.761   9.257  67.665  1.00  0.00    -0.209 C  
ENDROOT
BRANCH   4  11
HETATM   11  C   UNL     1      -9.425  12.442  66.368  1.00  0.00    -0.240 C  
HETATM   12  O   UNL     1     -10.190  12.931  65.546  1.00  0.00    -0.284 OA 
BRANCH  11  13
HETATM   13  O   UNL     1      -8.523  13.175  67.084  1.00  0.00    -0.192 OA 
BRANCH  13  14
HETATM   14  C   UNL     1      -9.123  14.249  67.826  1.00  0.00    -0.195 C  
HETATM   15  C   UNL     1      -8.197  14.715  68.939  1.00  0.00    -0.145 C  
BRANCH  14  16
HETATM   16  O   UNL     1      -9.307  15.373  66.954  1.00  0.00    -0.216 OA 
BRANCH  16  17
HETATM   17  C   UNL     1     -10.291  16.207  67.369  1.00  0.00    -0.294 C  
HETATM   18  O   UNL     1     -11.468  15.904  67.503  1.00  0.00    -0.173 OA 
BRANCH  17  19
HETATM   19  O   UNL     1      -9.771  17.452  67.487  1.00  0.00    -0.256 OA 
BRANCH  19  20
HETATM   20  C   UNL     1     -10.265  18.403  66.531  1.00  0.00    -0.401 C  
HETATM   21  C   UNL     1     -10.726  19.647  67.269  1.00  0.00    -0.583 C  
ENDBRANCH  19  20
ENDBRANCH  17  19
ENDBRANCH  16  17
ENDBRANCH  14  16
ENDBRANCH  13  14
ENDBRANCH  11  13
ENDBRANCH   4  11
BRANCH   7  22
HETATM   22  N   UNL     1      -9.969   8.202  69.876  1.00  0.00    -0.187 N  
HETATM   23  H   UNL     1      -8.954   8.184  69.774  1.00  0.00     0.000 HD 
HETATM   24  C   UNL     1     -10.585   7.224  70.626  1.00  0.00    -0.226 C  
HETATM   25  O   UNL     1     -11.808   7.128  70.708  1.00  0.00    -0.325 OA 
BRANCH  24  26
HETATM   26  C   UNL     1      -9.612   6.256  71.338  1.00  0.00    -0.155 C  
HETATM   27  N   UNL     1      -8.551   7.029  72.042  1.00  0.00    -0.119 NA 
HETATM   28  H2  UNL     1      -8.943   7.719  72.683  1.00  0.00     0.000 HD 
HETATM   29  H1  UNL     1      -7.909   6.391  72.511  1.00  0.00     0.000 HD 
BRANCH  26  30
HETATM   30  C   UNL     1      -9.038   5.230  70.378  1.00  0.00    -0.173 A  
HETATM   31  C   UNL     1      -7.657   4.971  70.385  1.00  0.00    -0.063 A  
HETATM   32  C   UNL     1      -7.098   4.043  69.506  1.00  0.00    -0.046 A  
HETATM   33  C   UNL     1      -7.911   3.352  68.610  1.00  0.00    -0.056 A  
HETATM   34  C   UNL     1      -9.285   3.580  68.603  1.00  0.00    -0.225 A  
HETATM   35  C   UNL     1      -9.846   4.505  69.486  1.00  0.00    -0.277 A  
ENDBRANCH  26  30
ENDBRANCH  24  26
ENDBRANCH   7  22
TORSDOF 10
ENDMDL
MODEL      223
REMARK 921   NORMALIZED FREE ENERGY PREDICTED BY IDOCK:   -3.47 KCAL/MOL
REMARK 922        TOTAL FREE ENERGY PREDICTED BY IDOCK:   -6.77 KCAL/MOL
REMARK 923 INTER-LIGAND FREE ENERGY PREDICTED BY IDOCK:   -7.35 KCAL/MOL
REMARK 924 INTRA-LIGAND FREE ENERGY PREDICTED BY IDOCK:    0.58 KCAL/MOL
REMARK 927      BINDING AFFINITY PREDICTED BY RF-SCORE:    0.00 PKD
ROOT
HETATM    1  C   UNL     1      -9.501  13.772  65.251  1.00  0.00     0.356 C  
HETATM    2  S   UNL     1      -9.545  13.063  66.960  1.00  0.00    -0.243 SA 
HETATM    3  C   UNL     1     -10.733  11.713  66.521  1.00  0.00    -0.272 C  
HETATM    4  C   UNL     1     -10.644  11.564  64.988  1.00  0.00    -0.297 C  
HETATM    5  C   UNL     1     -10.403  10.445  67.308  1.00  0.00    -0.278 C  
HETATM    6  C   UNL     1     -12.134  12.184  66.970  1.00  0.00     0.047 C  
HETATM    7  C   UNL     1     -10.478  14.937  64.930  1.00  0.00    -0.359 C  
HETATM    8  N   UNL     1     -10.367  12.894  64.446  1.00  0.00    -0.380 N  
HETATM    9  O   UNL     1     -12.528  13.693  64.023  1.00  0.00    -0.659 OA 
HETATM   10  C   UNL     1     -11.361  13.825  64.312  1.00  0.00    -0.326 C  
ENDROOT
BRANCH   4  11
HETATM   11  C   UNL     1      -9.557  10.610  64.450  1.00  0.00    -0.295 C  
HETATM   12  O   UNL     1      -9.657   9.881  63.470  1.00  0.00    -0.212 OA 
BRANCH  11  13
HETATM   13  O   UNL     1      -8.475  10.607  65.281  1.00  0.00    -0.169 OA 
BRANCH  13  14
HETATM   14  C   UNL     1      -7.582   9.505  65.049  1.00  0.00    -0.113 C  
HETATM   15  C   UNL     1      -6.135   9.970  65.085  1.00  0.00    -0.107 C  
BRANCH  14  16
HETATM   16  O   UNL     1      -7.729   8.552  66.111  1.00  0.00    -0.090 OA 
BRANCH  16  17
HETATM   17  C   UNL     1      -8.036   7.310  65.666  1.00  0.00    -0.133 C  
HETATM   18  O   UNL     1      -8.024   6.953  64.496  1.00  0.00    -0.122 OA 
BRANCH  17  19
HETATM   19  O   UNL     1      -8.476   6.578  66.717  1.00  0.00    -0.110 OA 
BRANCH  19  20
HETATM   20  C   UNL     1      -9.824   6.100  66.597  1.00  0.00    -0.159 C  
HETATM   21  C   UNL     1      -9.930   4.750  67.284  1.00  0.00    -0.214 C  
ENDBRANCH  19  20
ENDBRANCH  17  19
ENDBRANCH  16  17
ENDBRANCH  14  16
ENDBRANCH  13  14
ENDBRANCH  11  13
ENDBRANCH   4  11
BRANCH   7  22
HETATM   22  N   UNL     1     -11.059  15.677  66.075  1.00  0.00    -0.206 N  
HETATM   23  H   UNL     1     -12.017  15.473  66.361  1.00  0.00     0.000 HD 
HETATM   24  C   UNL     1     -10.342  16.632  66.763  1.00  0.00    -0.295 C  
HETATM   25  O   UNL     1      -9.222  16.998  66.411  1.00  0.00    -0.255 OA 
BRANCH  24  26
HETATM   26  C   UNL     1     -11.070  17.210  67.999  1.00  0.00    -0.113 C  
HETATM   27  N   UNL     1     -10.260  18.307  68.598  1.00  0.00    -0.380 NA 
HETATM   28  H2  UNL     1     -10.031  19.030  67.915  1.00  0.00     0.000 HD 
HETATM   29  H1  UNL     1     -10.740  18.689  69.414  1.00  0.00     0.000 HD 
BRANCH  26  30
HETATM   30  C   UNL     1     -11.410  16.127  69.007  1.00  0.00    -0.340 A  
HETATM   31  C   UNL     1     -12.073  14.966  68.576  1.00  0.00    -0.193 A  
HETATM   32  C   UNL     1     -12.410  13.957  69.481  1.00  0.00    -0.275 A  
HETATM   33  C   UNL     1     -12.084  14.090  70.829  1.00  0.00    -0.417 A  
HETATM   34  C   UNL     1     -11.407  15.225  71.270  1.00  0.00    -0.416 A  
HETATM   35  C   UNL     1     -11.065  16.233  70.365  1.00  0.00    -0.322 A  
ENDBRANCH  26  30
ENDBRANCH  24  26
ENDBRANCH   7  22
TORSDOF 10
ENDMDL
MODEL      224
REMARK 921   NORMALIZED FREE ENERGY PREDICTED BY IDOCK:   -3.44 KCAL/MOL
REMARK 922        TOTAL FREE ENERGY PREDICTED BY IDOCK:   -6.71 KCAL/MOL
REMARK 923 INTER-LIGAND FREE ENERGY PREDICTED BY IDOCK:   -5.70 KCAL/MOL
REMARK 924 INTRA-LIGAND FREE ENERGY PREDICTED BY IDOCK:   -1.01 KCAL/MOL
REMARK 927      BINDING AFFINITY PREDICTED BY RF-SCORE:    0.00 PKD
ROOT
HETATM    1  C   UNL     1      -9.387   8.248  65.610  1.00  0.00     0.052 C  
HETATM    2  S   UNL     1     -10.479   7.691  66.997  1.00  0.00    -0.321 SA 
HETATM    3  C   UNL     1      -9.608   8.707  68.276  1.00  0.00    -0.147 C  
HETATM    4  C   UNL     1      -8.855   9.802  67.494  1.00  0.00    -0.125 C  
HETATM    5  C   UNL     1     -10.611   9.230  69.305  1.00  0.00    -0.234 C  
HETATM    6  C   UNL     1      -8.637   7.762  69.017  1.00  0.00    -0.135 C  
HETATM    7  C   UNL     1      -8.156   7.365  65.263  1.00  0.00    -0.131 C  
HETATM    8  N   UNL     1      -8.456   9.216  66.215  1.00  0.00    -0.121 N  
HETATM    9  O   UNL     1      -6.315   8.405  66.712  1.00  0.00    -0.054 OA 
HETATM   10  C   UNL     1      -7.372   8.385  66.124  1.00  0.00    -0.084 C  
ENDROOT
BRANCH   4  11
HETATM   11  C   UNL     1      -9.641  11.094  67.185  1.00  0.00    -0.173 C  
HETATM   12  O   UNL     1     -10.038  11.451  66.083  1.00  0.00    -0.216 OA 
BRANCH  11  13
HETATM   13  O   UNL     1      -9.758  11.858  68.310  1.00  0.00    -0.192 OA 
BRANCH  13  14
HETATM   14  C   UNL     1     -10.748  12.893  68.194  1.00  0.00    -0.241 C  
HETATM   15  C   UNL     1     -11.907  12.636  69.144  1.00  0.00    -0.349 C  
BRANCH  14  16
HETATM   16  O   UNL     1     -10.167  14.143  68.591  1.00  0.00    -0.234 OA 
BRANCH  16  17
HETATM   17  C   UNL     1     -10.516  15.168  67.778  1.00  0.00    -0.247 C  
HETATM   18  O   UNL     1     -11.003  15.055  66.662  1.00  0.00    -0.318 OA 
BRANCH  17  19
HETATM   19  O   UNL     1     -10.118  16.326  68.358  1.00  0.00    -0.225 OA 
BRANCH  19  20
HETATM   20  C   UNL     1     -10.529  17.517  67.670  1.00  0.00    -0.370 C  
HETATM   21  C   UNL     1      -9.306  18.180  67.063  1.00  0.00    -0.270 C  
ENDBRANCH  19  20
ENDBRANCH  17  19
ENDBRANCH  16  17
ENDBRANCH  14  16
ENDBRANCH  13  14
ENDBRANCH  11  13
ENDBRANCH   4  11
BRANCH   7  22
HETATM   22  N   UNL     1      -8.162   5.964  65.745  1.00  0.00    -0.124 N  
HETATM   23  H   UNL     1      -7.864   5.769  66.701  1.00  0.00     0.000 HD 
HETATM   24  C   UNL     1      -8.560   4.918  64.940  1.00  0.00    -0.148 C  
HETATM   25  O   UNL     1      -8.836   5.069  63.751  1.00  0.00    -0.124 OA 
BRANCH  24  26
HETATM   26  C   UNL     1      -8.615   3.547  65.653  1.00  0.00    -0.115 C  
HETATM   27  N   UNL     1      -9.785   2.767  65.165  1.00  0.00    -0.359 NA 
HETATM   28  H2  UNL     1      -9.784   2.671  64.149  1.00  0.00     0.000 HD 
HETATM   29  H1  UNL     1      -9.821   1.862  65.635  1.00  0.00     0.000 HD 
BRANCH  26  30
HETATM   30  C   UNL     1      -8.612   3.700  67.163  1.00  0.00    -0.115 A  
HETATM   31  C   UNL     1      -7.408   3.550  67.871  1.00  0.00    -0.058 A  
HETATM   32  C   UNL     1      -7.375   3.672  69.262  1.00  0.00    -0.049 A  
HETATM   33  C   UNL     1      -8.544   3.954  69.966  1.00  0.00    -0.105 A  
HETATM   34  C   UNL     1      -9.742   4.127  69.278  1.00  0.00    -0.219 A  
HETATM   35  C   UNL     1      -9.776   4.010  67.887  1.00  0.00    -0.148 A  
ENDBRANCH  26  30
ENDBRANCH  24  26
ENDBRANCH   7  22
TORSDOF 10
ENDMDL
MODEL      225
REMARK 921   NORMALIZED FREE ENERGY PREDICTED BY IDOCK:   -3.41 KCAL/MOL
REMARK 922        TOTAL FREE ENERGY PREDICTED BY IDOCK:   -6.67 KCAL/MOL
REMARK 923 INTER-LIGAND FREE ENERGY PREDICTED BY IDOCK:   -5.73 KCAL/MOL
REMARK 924 INTRA-LIGAND FREE ENERGY PREDICTED BY IDOCK:   -0.94 KCAL/MOL
REMARK 927      BINDING AFFINITY PREDICTED BY RF-SCORE:    0.00 PKD
ROOT
HETATM    1  C   UNL     1      -8.346  10.146  67.563  1.00  0.00    -0.118 C  
HETATM    2  S   UNL     1      -9.110   9.610  65.965  1.00  0.00    -0.184 SA 
HETATM    3  C   UNL     1      -7.533   8.926  65.278  1.00  0.00    -0.089 C  
HETATM    4  C   UNL     1      -6.619   8.685  66.497  1.00  0.00    -0.063 C  
HETATM    5  C   UNL     1      -7.821   7.682  64.438  1.00  0.00    -0.137 C  
HETATM    6  C   UNL     1      -6.952   9.999  64.331  1.00  0.00    -0.129 C  
HETATM    7  C   UNL     1      -7.838  11.612  67.663  1.00  0.00    -0.135 C  
HETATM    8  N   UNL     1      -6.938   9.720  67.481  1.00  0.00    -0.082 N  
HETATM    9  O   UNL     1      -5.392  11.391  66.928  1.00  0.00    -0.075 OA 
HETATM   10  C   UNL     1      -6.453  10.993  67.351  1.00  0.00    -0.067 C  
ENDROOT
BRANCH   4  11
HETATM   11  C   UNL     1      -6.757   7.319  67.203  1.00  0.00    -0.068 C  
HETATM   12  O   UNL     1      -7.623   6.480  66.990  1.00  0.00    -0.092 OA 
BRANCH  11  13
HETATM   13  O   UNL     1      -5.823   7.200  68.191  1.00  0.00    -0.021 OA 
BRANCH  13  14
HETATM   14  C   UNL     1      -6.371   6.753  69.441  1.00  0.00    -0.042 C  
HETATM   15  C   UNL     1      -5.330   5.983  70.239  1.00  0.00    -0.013 C  
BRANCH  14  16
HETATM   16  O   UNL     1      -6.726   7.895  70.232  1.00  0.00    -0.037 OA 
BRANCH  16  17
HETATM   17  C   UNL     1      -7.972   7.809  70.755  1.00  0.00    -0.101 C  
HETATM   18  O   UNL     1      -9.012   8.025  70.148  1.00  0.00    -0.148 OA 
BRANCH  17  19
HETATM   19  O   UNL     1      -7.862   7.570  72.083  1.00  0.00    -0.089 OA 
BRANCH  19  20
HETATM   20  C   UNL     1      -9.004   7.957  72.862  1.00  0.00    -0.213 C  
HETATM   21  C   UNL     1      -9.038   7.124  74.132  1.00  0.00    -0.262 C  
ENDBRANCH  19  20
ENDBRANCH  17  19
ENDBRANCH  16  17
ENDBRANCH  14  16
ENDBRANCH  13  14
ENDBRANCH  11  13
ENDBRANCH   4  11
BRANCH   7  22
HETATM   22  N   UNL     1      -8.360  12.585  66.675  1.00  0.00    -0.408 N  
HETATM   23  H   UNL     1      -8.175  12.432  65.683  1.00  0.00     0.000 HD 
HETATM   24  C   UNL     1      -9.091  13.690  67.057  1.00  0.00    -0.248 C  
HETATM   25  O   UNL     1      -9.266  13.988  68.237  1.00  0.00    -0.191 OA 
BRANCH  24  26
HETATM   26  C   UNL     1      -9.653  14.523  65.881  1.00  0.00    -0.247 C  
HETATM   27  N   UNL     1     -10.213  15.805  66.390  1.00  0.00    -0.280 NA 
HETATM   28  H2  UNL     1      -9.532  16.329  66.940  1.00  0.00     0.000 HD 
HETATM   29  H1  UNL     1     -10.585  16.355  65.615  1.00  0.00     0.000 HD 
BRANCH  26  30
HETATM   30  C   UNL     1     -10.662  13.734  65.067  1.00  0.00    -0.391 A  
HETATM   31  C   UNL     1     -12.035  13.967  65.254  1.00  0.00    -0.384 A  
HETATM   32  C   UNL     1     -12.988  13.249  64.529  1.00  0.00     0.014 A  
HETATM   33  C   UNL     1     -12.584  12.292  63.601  1.00  0.00    -0.599 A  
HETATM   34  C   UNL     1     -11.227  12.063  63.387  1.00  0.00    -0.481 A  
HETATM   35  C   UNL     1     -10.273  12.784  64.108  1.00  0.00    -0.344 A  
ENDBRANCH  26  30
ENDBRANCH  24  26
ENDBRANCH   7  22
TORSDOF 10
ENDMDL
MODEL      226
REMARK 921   NORMALIZED FREE ENERGY PREDICTED BY IDOCK:   -3.38 KCAL/MOL
REMARK 922        TOTAL FREE ENERGY PREDICTED BY IDOCK:   -6.62 KCAL/MOL
REMARK 923 INTER-LIGAND FREE ENERGY PREDICTED BY IDOCK:   -5.29 KCAL/MOL
REMARK 924 INTRA-LIGAND FREE ENERGY PREDICTED BY IDOCK:   -1.33 KCAL/MOL
REMARK 927      BINDING AFFINITY PREDICTED BY RF-SCORE:    0.00 PKD
ROOT
HETATM    1  C   UNL     1      -9.508   9.765  69.670  1.00  0.00    -0.219 C  
HETATM    2  S   UNL     1      -7.726   9.502  70.093  1.00  0.00    -0.169 SA 
HETATM    3  C   UNL     1      -7.254   8.970  68.385  1.00  0.00    -0.077 C  
HETATM    4  C   UNL     1      -8.368   9.503  67.461  1.00  0.00    -0.125 C  
HETATM    5  C   UNL     1      -5.849   9.470  68.047  1.00  0.00    -0.041 C  
HETATM    6  C   UNL     1      -7.205   7.427  68.392  1.00  0.00    -0.093 C  
HETATM    7  C   UNL     1     -10.490   8.587  69.924  1.00  0.00    -0.219 C  
HETATM    8  N   UNL     1      -9.611   9.471  68.230  1.00  0.00    -0.137 N  
HETATM    9  O   UNL     1     -10.460   7.361  67.673  1.00  0.00    -0.209 OA 
HETATM   10  C   UNL     1     -10.302   8.304  68.414  1.00  0.00    -0.199 C  
ENDROOT
BRANCH   4  11
HETATM   11  C   UNL     1      -8.192  10.939  66.925  1.00  0.00    -0.135 C  
HETATM   12  O   UNL     1      -8.274  11.970  67.582  1.00  0.00    -0.138 OA 
BRANCH  11  13
HETATM   13  O   UNL     1      -8.025  10.924  65.571  1.00  0.00    -0.113 OA 
BRANCH  13  14
HETATM   14  C   UNL     1      -8.932  10.037  64.896  1.00  0.00    -0.205 C  
HETATM   15  C   UNL     1     -10.058  10.821  64.239  1.00  0.00    -0.427 C  
BRANCH  14  16
HETATM   16  O   UNL     1      -8.233   9.367  63.839  1.00  0.00    -0.143 OA 
BRANCH  16  17
HETATM   17  C   UNL     1      -7.464   8.344  64.281  1.00  0.00    -0.109 C  
HETATM   18  O   UNL     1      -6.255   8.246  64.123  1.00  0.00    -0.065 OA 
BRANCH  17  19
HETATM   19  O   UNL     1      -8.277   7.398  64.809  1.00  0.00    -0.126 OA 
BRANCH  19  20
HETATM   20  C   UNL     1      -7.670   6.108  64.977  1.00  0.00    -0.099 C  
HETATM   21  C   UNL     1      -8.673   5.038  64.582  1.00  0.00    -0.141 C  
ENDBRANCH  19  20
ENDBRANCH  17  19
ENDBRANCH  16  17
ENDBRANCH  14  16
ENDBRANCH  13  14
ENDBRANCH  11  13
ENDBRANCH   4  11
BRANCH   7  22
HETATM   22  N   UNL     1     -10.051   7.520  70.853  1.00  0.00    -0.192 N  
HETATM   23  H   UNL     1      -9.055   7.415  71.051  1.00  0.00     0.000 HD 
HETATM   24  C   UNL     1     -10.948   6.665  71.456  1.00  0.00    -0.247 C  
HETATM   25  O   UNL     1     -12.148   6.669  71.186  1.00  0.00    -0.360 OA 
BRANCH  24  26
HETATM   26  C   UNL     1     -10.317   5.696  72.483  1.00  0.00    -0.201 C  
HETATM   27  N   UNL     1     -11.173   5.617  73.699  1.00  0.00    -0.419 NA 
HETATM   28  H2  UNL     1     -12.135   5.362  73.473  1.00  0.00     0.000 HD 
HETATM   29  H1  UNL     1     -10.757   4.978  74.377  1.00  0.00     0.000 HD 
BRANCH  26  30
HETATM   30  C   UNL     1      -8.885   6.080  72.810  1.00  0.00    -0.123 A  
HETATM   31  C   UNL     1      -8.630   7.273  73.506  1.00  0.00    -0.187 A  
HETATM   32  C   UNL     1      -7.324   7.660  73.811  1.00  0.00    -0.139 A  
HETATM   33  C   UNL     1      -6.251   6.856  73.430  1.00  0.00    -0.062 A  
HETATM   34  C   UNL     1      -6.486   5.659  72.758  1.00  0.00    -0.066 A  
HETATM   35  C   UNL     1      -7.793   5.269  72.457  1.00  0.00    -0.102 A  
ENDBRANCH  26  30
ENDBRANCH  24  26
ENDBRANCH   7  22
TORSDOF 10
ENDMDL
MODEL      227
REMARK 921   NORMALIZED FREE ENERGY PREDICTED BY IDOCK:   -3.35 KCAL/MOL
REMARK 922        TOTAL FREE ENERGY PREDICTED BY IDOCK:   -6.56 KCAL/MOL
REMARK 923 INTER-LIGAND FREE ENERGY PREDICTED BY IDOCK:   -5.52 KCAL/MOL
REMARK 924 INTRA-LIGAND FREE ENERGY PREDICTED BY IDOCK:   -1.04 KCAL/MOL
REMARK 927      BINDING AFFINITY PREDICTED BY RF-SCORE:    0.00 PKD
ROOT
HETATM    1  C   UNL     1     -10.357   9.395  69.651  1.00  0.00    -0.216 C  
HETATM    2  S   UNL     1      -8.668  10.120  69.863  1.00  0.00     0.051 SA 
HETATM    3  C   UNL     1      -8.627  10.875  68.174  1.00  0.00    -0.133 C  
HETATM    4  C   UNL     1     -10.099  10.967  67.724  1.00  0.00    -0.177 C  
HETATM    5  C   UNL     1      -7.885  12.212  68.213  1.00  0.00    -0.153 C  
HETATM    6  C   UNL     1      -7.811   9.921  67.274  1.00  0.00    -0.102 C  
HETATM    7  C   UNL     1     -10.453   7.926  69.151  1.00  0.00    -0.209 C  
HETATM    8  N   UNL     1     -10.796   9.823  68.311  1.00  0.00    -0.233 N  
HETATM    9  O   UNL     1     -10.604   8.225  66.610  1.00  0.00    -0.268 OA 
HETATM   10  C   UNL     1     -10.692   8.572  67.765  1.00  0.00    -0.101 C  
ENDROOT
BRANCH   4  11
HETATM   11  C   UNL     1     -10.869  12.239  68.136  1.00  0.00    -0.227 C  
HETATM   12  O   UNL     1     -11.325  12.478  69.248  1.00  0.00    -0.257 OA 
BRANCH  11  13
HETATM   13  O   UNL     1     -11.069  13.044  67.053  1.00  0.00    -0.267 OA 
BRANCH  13  14
HETATM   14  C   UNL     1     -10.401  14.313  67.156  1.00  0.00    -0.262 C  
HETATM   15  C   UNL     1     -10.281  14.969  65.790  1.00  0.00    -0.361 C  
BRANCH  14  16
HETATM   16  O   UNL     1     -11.196  15.195  67.961  1.00  0.00    -0.298 OA 
BRANCH  16  17
HETATM   17  C   UNL     1     -10.511  16.285  68.382  1.00  0.00    -0.282 C  
HETATM   18  O   UNL     1     -10.786  17.444  68.106  1.00  0.00    -0.373 OA 
BRANCH  17  19
HETATM   19  O   UNL     1      -9.409  15.865  69.047  1.00  0.00    -0.213 OA 
BRANCH  19  20
HETATM   20  C   UNL     1      -8.220  16.627  68.785  1.00  0.00    -0.249 C  
HETATM   21  C   UNL     1      -7.068  16.026  69.571  1.00  0.00    -0.181 C  
ENDBRANCH  19  20
ENDBRANCH  17  19
ENDBRANCH  16  17
ENDBRANCH  14  16
ENDBRANCH  13  14
ENDBRANCH  11  13
ENDBRANCH   4  11
BRANCH   7  22
HETATM   22  N   UNL     1      -9.244   7.079  69.283  1.00  0.00    -0.140 N  
HETATM   23  H   UNL     1      -8.325   7.517  69.218  1.00  0.00     0.000 HD 
HETATM   24  C   UNL     1      -9.326   5.719  69.490  1.00  0.00    -0.130 C  
HETATM   25  O   UNL     1     -10.397   5.114  69.479  1.00  0.00    -0.251 OA 
BRANCH  24  26
HETATM   26  C   UNL     1      -7.964   5.024  69.721  1.00  0.00    -0.074 C  
HETATM   27  N   UNL     1      -8.164   3.558  69.887  1.00  0.00    -0.052 NA 
HETATM   28  H2  UNL     1      -8.674   3.150  69.103  1.00  0.00     0.000 HD 
HETATM   29  H1  UNL     1      -7.267   3.099  70.040  1.00  0.00     0.000 HD 
BRANCH  26  30
HETATM   30  C   UNL     1      -7.212   5.639  70.887  1.00  0.00    -0.079 A  
HETATM   31  C   UNL     1      -7.847   5.762  72.134  1.00  0.00    -0.103 A  
HETATM   32  C   UNL     1      -7.186   6.335  73.221  1.00  0.00    -0.087 A  
HETATM   33  C   UNL     1      -5.875   6.787  73.082  1.00  0.00    -0.046 A  
HETATM   34  C   UNL     1      -5.222   6.654  71.859  1.00  0.00    -0.027 A  
HETATM   35  C   UNL     1      -5.881   6.077  70.772  1.00  0.00    -0.022 A  
ENDBRANCH  26  30
ENDBRANCH  24  26
ENDBRANCH   7  22
TORSDOF 10
ENDMDL
MODEL      228
REMARK 921   NORMALIZED FREE ENERGY PREDICTED BY IDOCK:   -3.28 KCAL/MOL
REMARK 922        TOTAL FREE ENERGY PREDICTED BY IDOCK:   -6.46 KCAL/MOL
REMARK 923 INTER-LIGAND FREE ENERGY PREDICTED BY IDOCK:   -6.91 KCAL/MOL
REMARK 924 INTRA-LIGAND FREE ENERGY PREDICTED BY IDOCK:    0.45 KCAL/MOL
REMARK 927      BINDING AFFINITY PREDICTED BY RF-SCORE:    0.00 PKD
ROOT
HETATM    1  C   UNL     1      -9.598   9.331  70.890  1.00  0.00    -0.269 C  
HETATM    2  S   UNL     1      -8.721   9.771  69.320  1.00  0.00    -0.177 SA 
HETATM    3  C   UNL     1     -10.276   9.899  68.324  1.00  0.00    -0.176 C  
HETATM    4  C   UNL     1     -11.411  10.097  69.349  1.00  0.00    -0.142 C  
HETATM    5  C   UNL     1     -10.147  11.017  67.289  1.00  0.00    -0.222 C  
HETATM    6  C   UNL     1     -10.427   8.571  67.552  1.00  0.00    -0.328 C  
HETATM    7  C   UNL     1      -9.763   7.821  71.224  1.00  0.00    -0.157 C  
HETATM    8  N   UNL     1     -11.032   9.359  70.554  1.00  0.00    -0.253 N  
HETATM    9  O   UNL     1     -12.036   7.278  70.170  1.00  0.00    -0.016 OA 
HETATM   10  C   UNL     1     -11.181   8.001  70.628  1.00  0.00    -0.261 C  
ENDROOT
BRANCH   4  11
HETATM   11  C   UNL     1     -11.713  11.550  69.773  1.00  0.00    -0.353 C  
HETATM   12  O   UNL     1     -11.967  11.933  70.909  1.00  0.00    -0.248 OA 
BRANCH  11  13
HETATM   13  O   UNL     1     -11.758  12.364  68.679  1.00  0.00    -0.292 OA 
BRANCH  13  14
HETATM   14  C   UNL     1     -11.540  13.750  68.991  1.00  0.00    -0.313 C  
HETATM   15  C   UNL     1     -11.371  14.566  67.719  1.00  0.00    -0.335 C  
BRANCH  14  16
HETATM   16  O   UNL     1     -12.701  14.267  69.655  1.00  0.00    -0.173 OA 
BRANCH  16  17
HETATM   17  C   UNL     1     -12.417  15.296  70.489  1.00  0.00    -0.405 C  
HETATM   18  O   UNL     1     -11.299  15.606  70.878  1.00  0.00    -0.320 OA 
BRANCH  17  19
HETATM   19  O   UNL     1     -13.585  15.834  70.914  1.00  0.00    -0.538 OA 
BRANCH  19  20
HETATM   20  C   UNL     1     -13.791  15.783  72.334  1.00  0.00    -0.443 C  
HETATM   21  C   UNL     1     -12.940  14.667  72.914  1.00  0.00    -0.592 C  
ENDBRANCH  19  20
ENDBRANCH  17  19
ENDBRANCH  16  17
ENDBRANCH  14  16
ENDBRANCH  13  14
ENDBRANCH  11  13
ENDBRANCH   4  11
BRANCH   7  22
HETATM   22  N   UNL     1      -8.873   6.866  70.525  1.00  0.00    -0.153 N  
HETATM   23  H   UNL     1      -9.219   6.380  69.698  1.00  0.00     0.000 HD 
HETATM   24  C   UNL     1      -7.589   6.615  70.961  1.00  0.00    -0.085 C  
HETATM   25  O   UNL     1      -7.143   7.087  72.005  1.00  0.00    -0.071 OA 
BRANCH  24  26
HETATM   26  C   UNL     1      -6.771   5.682  70.038  1.00  0.00    -0.048 C  
HETATM   27  N   UNL     1      -5.315   5.894  70.263  1.00  0.00    -0.012 NA 
HETATM   28  H2  UNL     1      -5.059   5.782  71.244  1.00  0.00     0.000 HD 
HETATM   29  H1  UNL     1      -4.775   5.279  69.654  1.00  0.00     0.000 HD 
BRANCH  26  30
HETATM   30  C   UNL     1      -7.162   5.852  68.581  1.00  0.00    -0.083 A  
HETATM   31  C   UNL     1      -6.666   6.948  67.856  1.00  0.00    -0.064 A  
HETATM   32  C   UNL     1      -7.016   7.139  66.518  1.00  0.00    -0.076 A  
HETATM   33  C   UNL     1      -7.862   6.232  65.881  1.00  0.00    -0.104 A  
HETATM   34  C   UNL     1      -8.345   5.128  66.579  1.00  0.00    -0.108 A  
HETATM   35  C   UNL     1      -7.991   4.934  67.916  1.00  0.00    -0.093 A  
ENDBRANCH  26  30
ENDBRANCH  24  26
ENDBRANCH   7  22
TORSDOF 10
ENDMDL
MODEL      229
REMARK 921   NORMALIZED FREE ENERGY PREDICTED BY IDOCK:   -3.17 KCAL/MOL
REMARK 922        TOTAL FREE ENERGY PREDICTED BY IDOCK:   -6.28 KCAL/MOL
REMARK 923 INTER-LIGAND FREE ENERGY PREDICTED BY IDOCK:   -6.49 KCAL/MOL
REMARK 924 INTRA-LIGAND FREE ENERGY PREDICTED BY IDOCK:    0.21 KCAL/MOL
REMARK 927      BINDING AFFINITY PREDICTED BY RF-SCORE:    0.00 PKD
ROOT
HETATM    1  C   UNL     1      -8.517  15.666  67.775  1.00  0.00    -0.151 C  
HETATM    2  S   UNL     1      -8.929  15.012  66.093  1.00  0.00     0.020 SA 
HETATM    3  C   UNL     1     -10.651  15.690  66.098  1.00  0.00    -0.320 C  
HETATM    4  C   UNL     1     -10.656  16.808  67.160  1.00  0.00    -0.256 C  
HETATM    5  C   UNL     1     -11.042  16.143  64.691  1.00  0.00    -0.310 C  
HETATM    6  C   UNL     1     -11.591  14.528  66.486  1.00  0.00    -0.379 C  
HETATM    7  C   UNL     1      -8.731  14.719  68.989  1.00  0.00    -0.139 C  
HETATM    8  N   UNL     1      -9.717  16.404  68.208  1.00  0.00    -0.220 N  
HETATM    9  O   UNL     1     -11.129  15.280  69.701  1.00  0.00    -0.243 OA 
HETATM   10  C   UNL     1     -10.068  15.481  69.155  1.00  0.00    -0.239 C  
ENDROOT
BRANCH   4  11
HETATM   11  C   UNL     1     -10.238  18.215  66.684  1.00  0.00    -0.381 C  
HETATM   12  O   UNL     1     -10.995  19.123  66.364  1.00  0.00    -0.280 OA 
BRANCH  11  13
HETATM   13  O   UNL     1      -8.880  18.292  66.567  1.00  0.00    -0.272 OA 
BRANCH  13  14
HETATM   14  C   UNL     1      -8.415  19.601  66.200  1.00  0.00    -0.334 C  
HETATM   15  C   UNL     1      -8.352  20.509  67.419  1.00  0.00    -0.351 C  
BRANCH  14  16
HETATM   16  O   UNL     1      -7.074  19.498  65.702  1.00  0.00    -0.284 OA 
BRANCH  16  17
HETATM   17  C   UNL     1      -6.152  19.991  66.563  1.00  0.00    -0.172 C  
HETATM   18  O   UNL     1      -5.816  21.164  66.647  1.00  0.00    -0.229 OA 
BRANCH  17  19
HETATM   19  O   UNL     1      -5.581  18.951  67.216  1.00  0.00    -0.156 OA 
BRANCH  19  20
HETATM   20  C   UNL     1      -5.369  19.166  68.620  1.00  0.00    -0.196 C  
HETATM   21  C   UNL     1      -6.490  18.495  69.395  1.00  0.00    -0.257 C  
ENDBRANCH  19  20
ENDBRANCH  17  19
ENDBRANCH  16  17
ENDBRANCH  14  16
ENDBRANCH  13  14
ENDBRANCH  11  13
ENDBRANCH   4  11
BRANCH   7  22
HETATM   22  N   UNL     1      -8.832  13.267  68.712  1.00  0.00    -0.380 N  
HETATM   23  H   UNL     1      -9.749  12.862  68.523  1.00  0.00     0.000 HD 
HETATM   24  C   UNL     1      -7.723  12.449  68.702  1.00  0.00    -0.067 C  
HETATM   25  O   UNL     1      -6.604  12.850  69.019  1.00  0.00    -0.094 OA 
BRANCH  24  26
HETATM   26  C   UNL     1      -8.008  10.989  68.277  1.00  0.00    -0.124 C  
HETATM   27  N   UNL     1      -9.476  10.773  68.160  1.00  0.00    -0.153 NA 
HETATM   28  H2  UNL     1      -9.914  11.448  67.532  1.00  0.00     0.000 HD 
HETATM   29  H1  UNL     1      -9.665   9.810  67.879  1.00  0.00     0.000 HD 
BRANCH  26  30
HETATM   30  C   UNL     1      -7.350   9.993  69.213  1.00  0.00    -0.091 A  
HETATM   31  C   UNL     1      -8.059   9.521  70.330  1.00  0.00    -0.209 A  
HETATM   32  C   UNL     1      -7.477   8.613  71.217  1.00  0.00    -0.117 A  
HETATM   33  C   UNL     1      -6.178   8.158  70.997  1.00  0.00    -0.034 A  
HETATM   34  C   UNL     1      -5.468   8.599  69.883  1.00  0.00    -0.029 A  
HETATM   35  C   UNL     1      -6.052   9.503  68.993  1.00  0.00    -0.042 A  
ENDBRANCH  26  30
ENDBRANCH  24  26
ENDBRANCH   7  22
TORSDOF 10
ENDMDL
MODEL      230
REMARK 921   NORMALIZED FREE ENERGY PREDICTED BY IDOCK:   -3.16 KCAL/MOL
REMARK 922        TOTAL FREE ENERGY PREDICTED BY IDOCK:   -6.28 KCAL/MOL
REMARK 923 INTER-LIGAND FREE ENERGY PREDICTED BY IDOCK:   -5.39 KCAL/MOL
REMARK 924 INTRA-LIGAND FREE ENERGY PREDICTED BY IDOCK:   -0.88 KCAL/MOL
REMARK 927      BINDING AFFINITY PREDICTED BY RF-SCORE:    0.00 PKD
ROOT
HETATM    1  C   UNL     1      -9.699   9.783  66.082  1.00  0.00    -0.246 C  
HETATM    2  S   UNL     1     -10.733   9.303  67.540  1.00  0.00    -0.115 SA 
HETATM    3  C   UNL     1      -9.726  10.275  68.751  1.00  0.00    -0.177 C  
HETATM    4  C   UNL     1      -8.959  11.318  67.913  1.00  0.00    -0.146 C  
HETATM    5  C   UNL     1     -10.631  10.865  69.834  1.00  0.00    -0.042 C  
HETATM    6  C   UNL     1      -8.769   9.280  69.442  1.00  0.00    -0.148 C  
HETATM    7  C   UNL     1      -8.545   8.826  65.670  1.00  0.00    -0.172 C  
HETATM    8  N   UNL     1      -8.676  10.699  66.618  1.00  0.00    -0.137 N  
HETATM    9  O   UNL     1      -6.560   9.766  66.992  1.00  0.00    -0.069 OA 
HETATM   10  C   UNL     1      -7.651   9.804  66.470  1.00  0.00    -0.098 C  
ENDROOT
BRANCH   4  11
HETATM   11  C   UNL     1      -9.686  12.652  67.637  1.00  0.00    -0.197 C  
HETATM   12  O   UNL     1     -10.870  12.885  67.845  1.00  0.00    -0.217 OA 
BRANCH  11  13
HETATM   13  O   UNL     1      -8.842  13.533  67.026  1.00  0.00    -0.219 OA 
BRANCH  13  14
HETATM   14  C   UNL     1      -8.217  14.450  67.940  1.00  0.00    -0.156 C  
HETATM   15  C   UNL     1      -6.715  14.499  67.707  1.00  0.00    -0.191 C  
BRANCH  14  16
HETATM   16  O   UNL     1      -8.711  15.772  67.687  1.00  0.00    -0.167 OA 
BRANCH  16  17
HETATM   17  C   UNL     1      -9.198  16.375  68.797  1.00  0.00    -0.239 C  
HETATM   18  O   UNL     1      -9.949  15.859  69.613  1.00  0.00    -0.265 OA 
BRANCH  17  19
HETATM   19  O   UNL     1      -8.815  17.674  68.779  1.00  0.00    -0.278 OA 
BRANCH  19  20
HETATM   20  C   UNL     1      -7.897  18.016  67.730  1.00  0.00    -0.223 C  
HETATM   21  C   UNL     1      -6.849  18.966  68.285  1.00  0.00    -0.271 C  
ENDBRANCH  19  20
ENDBRANCH  17  19
ENDBRANCH  16  17
ENDBRANCH  14  16
ENDBRANCH  13  14
ENDBRANCH  11  13
ENDBRANCH   4  11
BRANCH   7  22
HETATM   22  N   UNL     1      -8.604   7.432  66.168  1.00  0.00    -0.140 N  
HETATM   23  H   UNL     1      -8.895   7.262  67.131  1.00  0.00     0.000 HD 
HETATM   24  C   UNL     1      -8.277   6.358  65.368  1.00  0.00    -0.142 C  
HETATM   25  O   UNL     1      -7.824   6.495  64.233  1.00  0.00    -0.107 OA 
BRANCH  24  26
HETATM   26  C   UNL     1      -8.514   4.977  66.022  1.00  0.00    -0.116 C  
HETATM   27  N   UNL     1      -9.642   4.281  65.345  1.00  0.00    -0.174 NA 
HETATM   28  H2  UNL     1      -9.497   4.208  64.337  1.00  0.00     0.000 HD 
HETATM   29  H1  UNL     1      -9.799   3.370  65.776  1.00  0.00     0.000 HD 
BRANCH  26  30
HETATM   30  C   UNL     1      -8.724   5.095  67.521  1.00  0.00    -0.103 A  
HETATM   31  C   UNL     1      -7.627   4.955  68.387  1.00  0.00    -0.078 A  
HETATM   32  C   UNL     1      -7.790   5.047  69.770  1.00  0.00    -0.071 A  
HETATM   33  C   UNL     1      -9.052   5.287  70.310  1.00  0.00    -0.169 A  
HETATM   34  C   UNL     1     -10.148   5.450  69.465  1.00  0.00    -0.310 A  
HETATM   35  C   UNL     1      -9.985   5.364  68.081  1.00  0.00    -0.207 A  
ENDBRANCH  26  30
ENDBRANCH  24  26
ENDBRANCH   7  22
TORSDOF 10
ENDMDL
MODEL      231
REMARK 921   NORMALIZED FREE ENERGY PREDICTED BY IDOCK:   -3.16 KCAL/MOL
REMARK 922        TOTAL FREE ENERGY PREDICTED BY IDOCK:   -6.27 KCAL/MOL
REMARK 923 INTER-LIGAND FREE ENERGY PREDICTED BY IDOCK:   -5.66 KCAL/MOL
REMARK 924 INTRA-LIGAND FREE ENERGY PREDICTED BY IDOCK:   -0.60 KCAL/MOL
REMARK 927      BINDING AFFINITY PREDICTED BY RF-SCORE:    0.00 PKD
ROOT
HETATM    1  C   UNL     1      -8.911   9.040  67.670  1.00  0.00    -0.124 C  
HETATM    2  S   UNL     1     -10.704   9.475  67.523  1.00  0.00    -0.174 SA 
HETATM    3  C   UNL     1     -10.488  11.186  68.195  1.00  0.00    -0.189 C  
HETATM    4  C   UNL     1      -8.991  11.514  68.023  1.00  0.00    -0.170 C  
HETATM    5  C   UNL     1     -11.439  12.153  67.489  1.00  0.00    -0.410 C  
HETATM    6  C   UNL     1     -10.897  11.140  69.683  1.00  0.00    -0.200 C  
HETATM    7  C   UNL     1      -8.449   8.316  68.966  1.00  0.00    -0.131 C  
HETATM    8  N   UNL     1      -8.258  10.258  68.182  1.00  0.00    -0.113 N  
HETATM    9  O   UNL     1      -7.775  10.276  70.474  1.00  0.00    -0.163 OA 
HETATM   10  C   UNL     1      -8.016   9.730  69.421  1.00  0.00    -0.125 C  
ENDROOT
BRANCH   4  11
HETATM   11  C   UNL     1      -8.569  12.127  66.672  1.00  0.00    -0.122 C  
HETATM   12  O   UNL     1      -8.977  11.790  65.567  1.00  0.00    -0.064 OA 
BRANCH  11  13
HETATM   13  O   UNL     1      -7.584  13.054  66.858  1.00  0.00     0.023 OA 
BRANCH  13  14
HETATM   14  C   UNL     1      -6.414  12.520  67.498  1.00  0.00    -0.153 C  
HETATM   15  C   UNL     1      -5.763  11.457  66.625  1.00  0.00    -0.142 C  
BRANCH  14  16
HETATM   16  O   UNL     1      -5.446  13.567  67.652  1.00  0.00    -0.262 OA 
BRANCH  16  17
HETATM   17  C   UNL     1      -5.576  14.237  68.822  1.00  0.00    -0.086 C  
HETATM   18  O   UNL     1      -5.450  15.445  68.964  1.00  0.00    -0.097 OA 
BRANCH  17  19
HETATM   19  O   UNL     1      -5.742  13.332  69.815  1.00  0.00    -0.098 OA 
BRANCH  19  20
HETATM   20  C   UNL     1      -6.236  13.875  71.049  1.00  0.00     0.044 C  
HETATM   21  C   UNL     1      -5.149  13.764  72.104  1.00  0.00    -0.189 C  
ENDBRANCH  19  20
ENDBRANCH  17  19
ENDBRANCH  16  17
ENDBRANCH  14  16
ENDBRANCH  13  14
ENDBRANCH  11  13
ENDBRANCH   4  11
BRANCH   7  22
HETATM   22  N   UNL     1      -9.490   7.652  69.785  1.00  0.00    -0.157 N  
HETATM   23  H   UNL     1      -9.903   8.160  70.567  1.00  0.00     0.000 HD 
HETATM   24  C   UNL     1      -9.916   6.367  69.520  1.00  0.00    -0.162 C  
HETATM   25  O   UNL     1      -9.392   5.664  68.658  1.00  0.00    -0.119 OA 
BRANCH  24  26
HETATM   26  C   UNL     1     -11.090   5.888  70.404  1.00  0.00    -0.283 C  
HETATM   27  N   UNL     1     -12.133   6.948  70.481  1.00  0.00    -0.583 NA 
HETATM   28  H2  UNL     1     -12.446   7.245  69.557  1.00  0.00     0.000 HD 
HETATM   29  H1  UNL     1     -12.908   6.632  71.065  1.00  0.00     0.000 HD 
BRANCH  26  30
HETATM   30  C   UNL     1     -10.615   5.443  71.775  1.00  0.00    -0.286 A  
HETATM   31  C   UNL     1      -9.977   4.199  71.916  1.00  0.00    -0.253 A  
HETATM   32  C   UNL     1      -9.540   3.757  73.166  1.00  0.00    -0.148 A  
HETATM   33  C   UNL     1      -9.727   4.555  74.294  1.00  0.00    -0.159 A  
HETATM   34  C   UNL     1     -10.338   5.800  74.169  1.00  0.00    -0.295 A  
HETATM   35  C   UNL     1     -10.771   6.245  72.918  1.00  0.00    -0.274 A  
ENDBRANCH  26  30
ENDBRANCH  24  26
ENDBRANCH   7  22
TORSDOF 10
ENDMDL
MODEL      232
REMARK 921   NORMALIZED FREE ENERGY PREDICTED BY IDOCK:   -3.14 KCAL/MOL
REMARK 922        TOTAL FREE ENERGY PREDICTED BY IDOCK:   -6.23 KCAL/MOL
REMARK 923 INTER-LIGAND FREE ENERGY PREDICTED BY IDOCK:   -5.24 KCAL/MOL
REMARK 924 INTRA-LIGAND FREE ENERGY PREDICTED BY IDOCK:   -0.98 KCAL/MOL
REMARK 927      BINDING AFFINITY PREDICTED BY RF-SCORE:    0.00 PKD
ROOT
HETATM    1  C   UNL     1      -8.007  10.279  67.747  1.00  0.00    -0.102 C  
HETATM    2  S   UNL     1      -8.906  10.801  69.278  1.00  0.00     0.058 SA 
HETATM    3  C   UNL     1     -10.334   9.658  68.997  1.00  0.00    -0.205 C  
HETATM    4  C   UNL     1      -9.818   8.578  68.025  1.00  0.00    -0.169 C  
HETATM    5  C   UNL     1     -10.851   9.123  70.333  1.00  0.00    -0.285 C  
HETATM    6  C   UNL     1     -11.467  10.499  68.369  1.00  0.00    -0.285 C  
HETATM    7  C   UNL     1      -8.234  11.116  66.457  1.00  0.00    -0.167 C  
HETATM    8  N   UNL     1      -8.844   9.225  67.147  1.00  0.00    -0.127 N  
HETATM    9  O   UNL     1     -10.192   9.886  65.349  1.00  0.00    -0.273 OA 
HETATM   10  C   UNL     1      -9.245  10.001  66.094  1.00  0.00    -0.165 C  
ENDROOT
BRANCH   4  11
HETATM   11  C   UNL     1      -9.126   7.353  68.660  1.00  0.00    -0.134 C  
HETATM   12  O   UNL     1      -7.918   7.164  68.734  1.00  0.00    -0.119 OA 
BRANCH  11  13
HETATM   13  O   UNL     1     -10.055   6.434  69.053  1.00  0.00    -0.152 OA 
BRANCH  13  14
HETATM   14  C   UNL     1      -9.546   5.091  69.091  1.00  0.00    -0.154 C  
HETATM   15  C   UNL     1      -9.718   4.491  70.478  1.00  0.00    -0.290 C  
BRANCH  14  16
HETATM   16  O   UNL     1     -10.315   4.274  68.197  1.00  0.00     0.161 OA 
BRANCH  16  17
HETATM   17  C   UNL     1      -9.791   4.221  66.949  1.00  0.00    -0.193 C  
HETATM   18  O   UNL     1     -10.435   4.120  65.914  1.00  0.00    -0.131 OA 
BRANCH  17  19
HETATM   19  O   UNL     1      -8.442   4.172  67.055  1.00  0.00    -0.100 OA 
BRANCH  19  20
HETATM   20  C   UNL     1      -7.756   3.797  65.851  1.00  0.00    -0.089 C  
HETATM   21  C   UNL     1      -6.980   4.996  65.334  1.00  0.00    -0.062 C  
ENDBRANCH  19  20
ENDBRANCH  17  19
ENDBRANCH  16  17
ENDBRANCH  14  16
ENDBRANCH  13  14
ENDBRANCH  11  13
ENDBRANCH   4  11
BRANCH   7  22
HETATM   22  N   UNL     1      -8.789  12.480  66.617  1.00  0.00    -0.353 N  
HETATM   23  H   UNL     1      -9.775  12.641  66.411  1.00  0.00     0.000 HD 
HETATM   24  C   UNL     1      -8.011  13.538  67.037  1.00  0.00     0.051 C  
HETATM   25  O   UNL     1      -6.797  13.438  67.206  1.00  0.00    -0.146 OA 
BRANCH  24  26
HETATM   26  C   UNL     1      -8.790  14.855  67.261  1.00  0.00    -0.201 C  
HETATM   27  N   UNL     1      -9.691  15.114  66.104  1.00  0.00    -0.289 NA 
HETATM   28  H2  UNL     1     -10.314  14.327  65.921  1.00  0.00     0.000 HD 
HETATM   29  H1  UNL     1     -10.205  15.983  66.251  1.00  0.00     0.000 HD 
BRANCH  26  30
HETATM   30  C   UNL     1      -7.855  16.019  67.536  1.00  0.00    -0.170 A  
HETATM   31  C   UNL     1      -7.342  16.764  66.461  1.00  0.00    -0.306 A  
HETATM   32  C   UNL     1      -6.471  17.832  66.682  1.00  0.00    -0.230 A  
HETATM   33  C   UNL     1      -6.104  18.178  67.981  1.00  0.00    -0.172 A  
HETATM   34  C   UNL     1      -6.621  17.464  69.060  1.00  0.00    -0.232 A  
HETATM   35  C   UNL     1      -7.496  16.398  68.841  1.00  0.00    -0.214 A  
ENDBRANCH  26  30
ENDBRANCH  24  26
ENDBRANCH   7  22
TORSDOF 10
ENDMDL
MODEL      233
REMARK 921   NORMALIZED FREE ENERGY PREDICTED BY IDOCK:   -3.11 KCAL/MOL
REMARK 922        TOTAL FREE ENERGY PREDICTED BY IDOCK:   -6.19 KCAL/MOL
REMARK 923 INTER-LIGAND FREE ENERGY PREDICTED BY IDOCK:   -5.01 KCAL/MOL
REMARK 924 INTRA-LIGAND FREE ENERGY PREDICTED BY IDOCK:   -1.19 KCAL/MOL
REMARK 927      BINDING AFFINITY PREDICTED BY RF-SCORE:    0.00 PKD
ROOT
HETATM    1  C   UNL     1     -11.695   6.488  70.022  1.00  0.00    -0.322 C  
HETATM    2  S   UNL     1     -10.963   5.948  71.634  1.00  0.00    -0.251 SA 
HETATM    3  C   UNL     1      -9.791   7.376  71.739  1.00  0.00    -0.167 C  
HETATM    4  C   UNL     1     -10.366   8.457  70.801  1.00  0.00    -0.195 C  
HETATM    5  C   UNL     1      -9.625   7.815  73.195  1.00  0.00    -0.337 C  
HETATM    6  C   UNL     1      -8.416   6.868  71.252  1.00  0.00    -0.120 C  
HETATM    7  C   UNL     1     -11.086   5.896  68.720  1.00  0.00    -0.146 C  
HETATM    8  N   UNL     1     -11.021   7.757  69.696  1.00  0.00    -0.179 N  
HETATM    9  O   UNL     1      -9.290   7.625  68.125  1.00  0.00    -0.144 OA 
HETATM   10  C   UNL     1     -10.296   7.226  68.664  1.00  0.00    -0.193 C  
ENDROOT
BRANCH   4  11
HETATM   11  C   UNL     1     -11.401   9.423  71.414  1.00  0.00    -0.381 C  
HETATM   12  O   UNL     1     -12.482   9.112  71.899  1.00  0.00    -0.339 OA 
BRANCH  11  13
HETATM   13  O   UNL     1     -10.993  10.716  71.258  1.00  0.00     0.498 OA 
BRANCH  13  14
HETATM   14  C   UNL     1     -11.651  11.394  70.175  1.00  0.00    -0.280 C  
HETATM   15  C   UNL     1     -12.493  12.548  70.696  1.00  0.00    -0.323 C  
BRANCH  14  16
HETATM   16  O   UNL     1     -10.660  11.971  69.313  1.00  0.00    -0.102 OA 
BRANCH  16  17
HETATM   17  C   UNL     1     -11.188  12.512  68.190  1.00  0.00    -0.267 C  
HETATM   18  O   UNL     1     -11.920  11.931  67.400  1.00  0.00    -0.603 OA 
BRANCH  17  19
HETATM   19  O   UNL     1     -10.669  13.752  68.030  1.00  0.00    -0.241 OA 
BRANCH  19  20
HETATM   20  C   UNL     1     -11.454  14.633  67.211  1.00  0.00    -0.372 C  
HETATM   21  C   UNL     1     -11.771  15.888  68.005  1.00  0.00    -0.065 C  
ENDBRANCH  19  20
ENDBRANCH  17  19
ENDBRANCH  16  17
ENDBRANCH  14  16
ENDBRANCH  13  14
ENDBRANCH  11  13
ENDBRANCH   4  11
BRANCH   7  22
HETATM   22  N   UNL     1     -10.281   4.658  68.844  1.00  0.00    -0.038 N  
HETATM   23  H   UNL     1      -9.922   4.391  69.760  1.00  0.00     0.000 HD 
HETATM   24  C   UNL     1     -10.005   3.857  67.756  1.00  0.00     0.128 C  
HETATM   25  O   UNL     1     -10.320   4.170  66.609  1.00  0.00    -0.037 OA 
BRANCH  24  26
HETATM   26  C   UNL     1      -9.255   2.549  68.099  1.00  0.00    -0.205 C  
HETATM   27  N   UNL     1      -9.350   2.278  69.560  1.00  0.00    -0.113 NA 
HETATM   28  H2  UNL     1     -10.317   2.262  69.885  1.00  0.00     0.000 HD 
HETATM   29  H1  UNL     1      -8.855   1.415  69.787  1.00  0.00     0.000 HD 
BRANCH  26  30
HETATM   30  C   UNL     1      -7.819   2.579  67.609  1.00  0.00    -0.060 A  
HETATM   31  C   UNL     1      -6.905   3.466  68.202  1.00  0.00    -0.049 A  
HETATM   32  C   UNL     1      -5.580   3.527  67.765  1.00  0.00    -0.021 A  
HETATM   33  C   UNL     1      -5.147   2.697  66.733  1.00  0.00    -0.005 A  
HETATM   34  C   UNL     1      -6.034   1.796  66.149  1.00  0.00    -0.022 A  
HETATM   35  C   UNL     1      -7.358   1.731  66.589  1.00  0.00    -0.056 A  
ENDBRANCH  26  30
ENDBRANCH  24  26
ENDBRANCH   7  22
TORSDOF 10
ENDMDL
MODEL      234
REMARK 921   NORMALIZED FREE ENERGY PREDICTED BY IDOCK:   -3.08 KCAL/MOL
REMARK 922        TOTAL FREE ENERGY PREDICTED BY IDOCK:   -6.15 KCAL/MOL
REMARK 923 INTER-LIGAND FREE ENERGY PREDICTED BY IDOCK:   -5.57 KCAL/MOL
REMARK 924 INTRA-LIGAND FREE ENERGY PREDICTED BY IDOCK:   -0.58 KCAL/MOL
REMARK 927      BINDING AFFINITY PREDICTED BY RF-SCORE:    0.00 PKD
ROOT
HETATM    1  C   UNL     1      -7.049  11.223  68.550  1.00  0.00    -0.083 C  
HETATM    2  S   UNL     1      -8.889  11.138  68.376  1.00  0.00    -0.161 SA 
HETATM    3  C   UNL     1      -8.840   9.977  66.935  1.00  0.00    -0.131 C  
HETATM    4  C   UNL     1      -7.447   9.318  66.980  1.00  0.00    -0.091 C  
HETATM    5  C   UNL     1     -10.013   8.999  67.007  1.00  0.00    -0.295 C  
HETATM    6  C   UNL     1      -9.029  10.832  65.663  1.00  0.00    -0.205 C  
HETATM    7  C   UNL     1      -6.310  12.384  67.827  1.00  0.00    -0.109 C  
HETATM    8  N   UNL     1      -6.520  10.315  67.517  1.00  0.00    -0.065 N  
HETATM    9  O   UNL     1      -5.734  11.334  65.560  1.00  0.00    -0.123 OA 
HETATM   10  C   UNL     1      -6.034  11.325  66.732  1.00  0.00    -0.132 C  
ENDROOT
BRANCH   4  11
HETATM   11  C   UNL     1      -7.311   8.048  67.846  1.00  0.00    -0.093 C  
HETATM   12  O   UNL     1      -7.378   6.892  67.448  1.00  0.00    -0.087 OA 
BRANCH  11  13
HETATM   13  O   UNL     1      -7.201   8.383  69.165  1.00  0.00    -0.062 OA 
BRANCH  13  14
HETATM   14  C   UNL     1      -8.068   7.621  70.020  1.00  0.00    -0.120 C  
HETATM   15  C   UNL     1      -7.318   6.452  70.640  1.00  0.00    -0.079 C  
BRANCH  14  16
HETATM   16  O   UNL     1      -8.498   8.450  71.108  1.00  0.00    -0.123 OA 
BRANCH  16  17
HETATM   17  C   UNL     1      -9.846   8.530  71.209  1.00  0.00    -0.216 C  
HETATM   18  O   UNL     1     -10.550   9.363  70.654  1.00  0.00    -0.243 OA 
BRANCH  17  19
HETATM   19  O   UNL     1     -10.261   7.619  72.121  1.00  0.00    -0.192 OA 
BRANCH  19  20
HETATM   20  C   UNL     1     -11.386   6.827  71.712  1.00  0.00    -0.269 C  
HETATM   21  C   UNL     1     -10.996   6.013  70.490  1.00  0.00    -0.388 C  
ENDBRANCH  19  20
ENDBRANCH  17  19
ENDBRANCH  16  17
ENDBRANCH  14  16
ENDBRANCH  13  14
ENDBRANCH  11  13
ENDBRANCH   4  11
BRANCH   7  22
HETATM   22  N   UNL     1      -7.117  13.557  67.418  1.00  0.00    -0.302 N  
HETATM   23  H   UNL     1      -7.374  13.663  66.436  1.00  0.00     0.000 HD 
HETATM   24  C   UNL     1      -7.531  14.509  68.325  1.00  0.00    -0.120 C  
HETATM   25  O   UNL     1      -7.175  14.497  69.502  1.00  0.00    -0.147 OA 
BRANCH  24  26
HETATM   26  C   UNL     1      -8.463  15.593  67.735  1.00  0.00    -0.151 C  
HETATM   27  N   UNL     1      -9.226  15.035  66.585  1.00  0.00    -0.258 NA 
HETATM   28  H2  UNL     1      -9.735  14.187  66.838  1.00  0.00     0.000 HD 
HETATM   29  H1  UNL     1      -9.841  15.749  66.195  1.00  0.00     0.000 HD 
BRANCH  26  30
HETATM   30  C   UNL     1      -7.698  16.850  67.366  1.00  0.00    -0.193 A  
HETATM   31  C   UNL     1      -7.006  17.557  68.363  1.00  0.00    -0.211 A  
HETATM   32  C   UNL     1      -6.303  18.724  68.057  1.00  0.00    -0.216 A  
HETATM   33  C   UNL     1      -6.274  19.198  66.747  1.00  0.00    -0.185 A  
HETATM   34  C   UNL     1      -6.936  18.498  65.742  1.00  0.00    -0.287 A  
HETATM   35  C   UNL     1      -7.636  17.328  66.046  1.00  0.00    -0.226 A  
ENDBRANCH  26  30
ENDBRANCH  24  26
ENDBRANCH   7  22
TORSDOF 10
ENDMDL
MODEL      235
REMARK 921   NORMALIZED FREE ENERGY PREDICTED BY IDOCK:   -3.06 KCAL/MOL
REMARK 922        TOTAL FREE ENERGY PREDICTED BY IDOCK:   -6.12 KCAL/MOL
REMARK 923 INTER-LIGAND FREE ENERGY PREDICTED BY IDOCK:   -5.89 KCAL/MOL
REMARK 924 INTRA-LIGAND FREE ENERGY PREDICTED BY IDOCK:   -0.23 KCAL/MOL
REMARK 927      BINDING AFFINITY PREDICTED BY RF-SCORE:    0.00 PKD
ROOT
HETATM    1  C   UNL     1      -8.206   8.842  69.872  1.00  0.00    -0.118 C  
HETATM    2  S   UNL     1      -8.725   7.247  69.090  1.00  0.00    -0.136 SA 
HETATM    3  C   UNL     1      -7.004   6.574  68.989  1.00  0.00    -0.075 C  
HETATM    4  C   UNL     1      -6.181   7.382  70.013  1.00  0.00    -0.027 C  
HETATM    5  C   UNL     1      -7.015   5.063  69.225  1.00  0.00    -0.055 C  
HETATM    6  C   UNL     1      -6.512   6.812  67.545  1.00  0.00    -0.046 C  
HETATM    7  C   UNL     1      -7.944  10.053  68.933  1.00  0.00    -0.101 C  
HETATM    8  N   UNL     1      -6.747   8.730  70.047  1.00  0.00    -0.038 N  
HETATM    9  O   UNL     1      -5.436   9.834  68.451  1.00  0.00    -0.039 OA 
HETATM   10  C   UNL     1      -6.457   9.645  69.071  1.00  0.00    -0.045 C  
ENDROOT
BRANCH   4  11
HETATM   11  C   UNL     1      -6.169   6.850  71.462  1.00  0.00    -0.038 C  
HETATM   12  O   UNL     1      -5.527   5.891  71.874  1.00  0.00    -0.020 OA 
BRANCH  11  13
HETATM   13  O   UNL     1      -7.063   7.541  72.228  1.00  0.00    -0.065 OA 
BRANCH  13  14
HETATM   14  C   UNL     1      -7.062   7.137  73.607  1.00  0.00    -0.072 C  
HETATM   15  C   UNL     1      -6.725   8.313  74.511  1.00  0.00    -0.167 C  
BRANCH  14  16
HETATM   16  O   UNL     1      -8.382   6.710  73.970  1.00  0.00    -0.122 OA 
BRANCH  16  17
HETATM   17  C   UNL     1      -9.090   6.232  72.919  1.00  0.00    -0.130 C  
HETATM   18  O   UNL     1      -9.013   5.098  72.470  1.00  0.00    -0.129 OA 
BRANCH  17  19
HETATM   19  O   UNL     1      -9.794   7.256  72.380  1.00  0.00    -0.152 OA 
BRANCH  19  20
HETATM   20  C   UNL     1     -11.063   7.507  73.003  1.00  0.00    -0.362 C  
HETATM   21  C   UNL     1     -11.750   8.649  72.275  1.00  0.00    -0.428 C  
ENDBRANCH  19  20
ENDBRANCH  17  19
ENDBRANCH  16  17
ENDBRANCH  14  16
ENDBRANCH  13  14
ENDBRANCH  11  13
ENDBRANCH   4  11
BRANCH   7  22
HETATM   22  N   UNL     1      -8.518   9.996  67.569  1.00  0.00    -0.118 N  
HETATM   23  H   UNL     1      -8.968   9.135  67.257  1.00  0.00     0.000 HD 
HETATM   24  C   UNL     1      -8.461  11.072  66.709  1.00  0.00    -0.148 C  
HETATM   25  O   UNL     1      -7.849  12.103  66.982  1.00  0.00    -0.163 OA 
BRANCH  24  26
HETATM   26  C   UNL     1      -9.217  10.866  65.376  1.00  0.00    -0.207 C  
HETATM   27  N   UNL     1      -8.291  11.075  64.229  1.00  0.00    -0.357 NA 
HETATM   28  H2  UNL     1      -7.461  10.484  64.295  1.00  0.00     0.000 HD 
HETATM   29  H1  UNL     1      -8.789  10.939  63.349  1.00  0.00     0.000 HD 
BRANCH  26  30
HETATM   30  C   UNL     1     -10.451  11.746  65.289  1.00  0.00    -0.320 A  
HETATM   31  C   UNL     1     -11.150  11.839  64.073  1.00  0.00    -0.461 A  
HETATM   32  C   UNL     1     -12.281  12.649  63.958  1.00  0.00    -0.544 A  
HETATM   33  C   UNL     1     -12.736  13.373  65.058  1.00  0.00    -0.420 A  
HETATM   34  C   UNL     1     -12.069  13.275  66.277  1.00  0.00    -0.472 A  
HETATM   35  C   UNL     1     -10.940  12.461  66.395  1.00  0.00    -0.315 A  
ENDBRANCH  26  30
ENDBRANCH  24  26
ENDBRANCH   7  22
TORSDOF 10
ENDMDL
MODEL      236
REMARK 921   NORMALIZED FREE ENERGY PREDICTED BY IDOCK:   -3.03 KCAL/MOL
REMARK 922        TOTAL FREE ENERGY PREDICTED BY IDOCK:   -6.06 KCAL/MOL
REMARK 923 INTER-LIGAND FREE ENERGY PREDICTED BY IDOCK:   -5.35 KCAL/MOL
REMARK 924 INTRA-LIGAND FREE ENERGY PREDICTED BY IDOCK:   -0.71 KCAL/MOL
REMARK 927      BINDING AFFINITY PREDICTED BY RF-SCORE:    0.00 PKD
ROOT
HETATM    1  C   UNL     1      -9.937   8.488  67.295  1.00  0.00    -0.225 C  
HETATM    2  S   UNL     1      -8.682   9.005  68.553  1.00  0.00    -0.134 SA 
HETATM    3  C   UNL     1      -7.785  10.139  67.397  1.00  0.00    -0.095 C  
HETATM    4  C   UNL     1      -8.783  10.451  66.264  1.00  0.00    -0.153 C  
HETATM    5  C   UNL     1      -7.272  11.364  68.154  1.00  0.00    -0.082 C  
HETATM    6  C   UNL     1      -6.552   9.368  66.878  1.00  0.00    -0.068 C  
HETATM    7  C   UNL     1      -9.651   7.194  66.482  1.00  0.00    -0.144 C  
HETATM    8  N   UNL     1      -9.610   9.258  66.083  1.00  0.00    -0.239 N  
HETATM    9  O   UNL     1      -8.424   8.106  64.424  1.00  0.00    -0.094 OA 
HETATM   10  C   UNL     1      -9.145   8.172  65.393  1.00  0.00     0.110 C  
ENDROOT
BRANCH   4  11
HETATM   11  C   UNL     1      -9.736  11.644  66.492  1.00  0.00    -0.206 C  
HETATM   12  O   UNL     1     -10.752  11.636  67.176  1.00  0.00    -0.225 OA 
BRANCH  11  13
HETATM   13  O   UNL     1      -9.346  12.713  65.738  1.00  0.00    -0.107 OA 
BRANCH  13  14
HETATM   14  C   UNL     1      -9.633  13.979  66.355  1.00  0.00    -0.283 C  
HETATM   15  C   UNL     1      -8.611  14.292  67.437  1.00  0.00    -0.223 C  
BRANCH  14  16
HETATM   16  O   UNL     1      -9.514  15.016  65.372  1.00  0.00    -0.187 OA 
BRANCH  16  17
HETATM   17  C   UNL     1     -10.544  15.895  65.405  1.00  0.00    -0.419 C  
HETATM   18  O   UNL     1     -11.642  15.719  64.895  1.00  0.00    -0.223 OA 
BRANCH  17  19
HETATM   19  O   UNL     1     -10.109  17.039  65.983  1.00  0.00    -0.371 OA 
BRANCH  19  20
HETATM   20  C   UNL     1     -10.647  17.297  67.289  1.00  0.00    -0.283 C  
HETATM   21  C   UNL     1     -10.688  18.798  67.515  1.00  0.00    -0.474 C  
ENDBRANCH  19  20
ENDBRANCH  17  19
ENDBRANCH  16  17
ENDBRANCH  14  16
ENDBRANCH  13  14
ENDBRANCH  11  13
ENDBRANCH   4  11
BRANCH   7  22
HETATM   22  N   UNL     1      -8.652   6.249  67.032  1.00  0.00    -0.105 N  
HETATM   23  H   UNL     1      -7.687   6.559  67.147  1.00  0.00     0.000 HD 
HETATM   24  C   UNL     1      -8.989   4.962  67.394  1.00  0.00    -0.107 C  
HETATM   25  O   UNL     1     -10.107   4.491  67.190  1.00  0.00    -0.184 OA 
BRANCH  24  26
HETATM   26  C   UNL     1      -7.844   4.163  68.059  1.00  0.00    -0.078 C  
HETATM   27  N   UNL     1      -7.572   2.923  67.282  1.00  0.00    -0.069 NA 
HETATM   28  H2  UNL     1      -7.380   3.122  66.299  1.00  0.00     0.000 HD 
HETATM   29  H1  UNL     1      -6.816   2.396  67.720  1.00  0.00     0.000 HD 
BRANCH  26  30
HETATM   30  C   UNL     1      -8.136   3.877  69.521  1.00  0.00    -0.062 A  
HETATM   31  C   UNL     1      -7.401   4.543  70.516  1.00  0.00    -0.049 A  
HETATM   32  C   UNL     1      -7.638   4.292  71.869  1.00  0.00    -0.071 A  
HETATM   33  C   UNL     1      -8.617   3.376  72.249  1.00  0.00    -0.096 A  
HETATM   34  C   UNL     1      -9.369   2.723  71.276  1.00  0.00    -0.208 A  
HETATM   35  C   UNL     1      -9.137   2.977  69.922  1.00  0.00    -0.196 A  
ENDBRANCH  26  30
ENDBRANCH  24  26
ENDBRANCH   7  22
TORSDOF 10
ENDMDL
MODEL      237
REMARK 921   NORMALIZED FREE ENERGY PREDICTED BY IDOCK:   -3.02 KCAL/MOL
REMARK 922        TOTAL FREE ENERGY PREDICTED BY IDOCK:   -6.04 KCAL/MOL
REMARK 923 INTER-LIGAND FREE ENERGY PREDICTED BY IDOCK:   -5.15 KCAL/MOL
REMARK 924 INTRA-LIGAND FREE ENERGY PREDICTED BY IDOCK:   -0.90 KCAL/MOL
REMARK 927      BINDING AFFINITY PREDICTED BY RF-SCORE:    0.00 PKD
ROOT
HETATM    1  C   UNL     1      -8.575   9.754  68.557  1.00  0.00    -0.120 C  
HETATM    2  S   UNL     1      -9.506  10.044  66.984  1.00  0.00    -0.168 SA 
HETATM    3  C   UNL     1      -8.165   9.370  65.901  1.00  0.00    -0.115 C  
HETATM    4  C   UNL     1      -7.289   8.495  66.821  1.00  0.00    -0.082 C  
HETATM    5  C   UNL     1      -8.773   8.632  64.708  1.00  0.00    -0.099 C  
HETATM    6  C   UNL     1      -7.383  10.580  65.347  1.00  0.00    -0.084 C  
HETATM    7  C   UNL     1      -7.729  10.930  69.121  1.00  0.00    -0.127 C  
HETATM    8  N   UNL     1      -7.313   9.114  68.147  1.00  0.00    -0.079 N  
HETATM    9  O   UNL     1      -5.436  10.512  68.053  1.00  0.00    -0.038 OA 
HETATM   10  C   UNL     1      -6.545  10.209  68.432  1.00  0.00    -0.053 C  
ENDROOT
BRANCH   4  11
HETATM   11  C   UNL     1      -7.719   7.023  66.990  1.00  0.00    -0.107 C  
HETATM   12  O   UNL     1      -8.542   6.428  66.304  1.00  0.00    -0.128 OA 
BRANCH  11  13
HETATM   13  O   UNL     1      -7.125   6.478  68.091  1.00  0.00    -0.077 OA 
BRANCH  13  14
HETATM   14  C   UNL     1      -8.000   5.624  68.846  1.00  0.00    -0.097 C  
HETATM   15  C   UNL     1      -7.198   4.640  69.683  1.00  0.00    -0.051 C  
BRANCH  14  16
HETATM   16  O   UNL     1      -8.752   6.424  69.769  1.00  0.00    -0.136 OA 
BRANCH  16  17
HETATM   17  C   UNL     1     -10.090   6.308  69.599  1.00  0.00    -0.174 C  
HETATM   18  O   UNL     1     -10.651   5.420  68.973  1.00  0.00    -0.217 OA 
BRANCH  17  19
HETATM   19  O   UNL     1     -10.683   7.405  70.127  1.00  0.00    -0.232 OA 
BRANCH  19  20
HETATM   20  C   UNL     1     -10.816   7.388  71.557  1.00  0.00    -0.224 C  
HETATM   21  C   UNL     1     -10.901   8.819  72.059  1.00  0.00    -0.428 C  
ENDBRANCH  19  20
ENDBRANCH  17  19
ENDBRANCH  16  17
ENDBRANCH  14  16
ENDBRANCH  13  14
ENDBRANCH  11  13
ENDBRANCH   4  11
BRANCH   7  22
HETATM   22  N   UNL     1      -8.043  12.293  68.632  1.00  0.00    -0.301 N  
HETATM   23  H   UNL     1      -8.749  12.407  67.904  1.00  0.00     0.000 HD 
HETATM   24  C   UNL     1      -7.410  13.411  69.132  1.00  0.00     0.098 C  
HETATM   25  O   UNL     1      -6.482  13.338  69.936  1.00  0.00    -0.089 OA 
BRANCH  24  26
HETATM   26  C   UNL     1      -7.953  14.752  68.587  1.00  0.00    -0.143 C  
HETATM   27  N   UNL     1      -7.693  15.841  69.568  1.00  0.00    -0.213 NA 
HETATM   28  H2  UNL     1      -6.705  15.902  69.820  1.00  0.00     0.000 HD 
HETATM   29  H1  UNL     1      -8.051  16.726  69.210  1.00  0.00     0.000 HD 
BRANCH  26  30
HETATM   30  C   UNL     1      -9.421  14.651  68.212  1.00  0.00    -0.211 A  
HETATM   31  C   UNL     1     -10.400  15.041  69.141  1.00  0.00    -0.249 A  
HETATM   32  C   UNL     1     -11.758  14.949  68.830  1.00  0.00    -0.343 A  
HETATM   33  C   UNL     1     -12.159  14.473  67.583  1.00  0.00    -0.266 A  
HETATM   34  C   UNL     1     -11.201  14.103  66.643  1.00  0.00    -0.330 A  
HETATM   35  C   UNL     1      -9.842  14.199  66.951  1.00  0.00    -0.265 A  
ENDBRANCH  26  30
ENDBRANCH  24  26
ENDBRANCH   7  22
TORSDOF 10
ENDMDL
MODEL      238
REMARK 921   NORMALIZED FREE ENERGY PREDICTED BY IDOCK:   -2.97 KCAL/MOL
REMARK 922        TOTAL FREE ENERGY PREDICTED BY IDOCK:   -5.96 KCAL/MOL
REMARK 923 INTER-LIGAND FREE ENERGY PREDICTED BY IDOCK:   -6.00 KCAL/MOL
REMARK 924 INTRA-LIGAND FREE ENERGY PREDICTED BY IDOCK:    0.04 KCAL/MOL
REMARK 927      BINDING AFFINITY PREDICTED BY RF-SCORE:    0.00 PKD
ROOT
HETATM    1  C   UNL     1      -8.809  12.701  67.182  1.00  0.00    -0.204 C  
HETATM    2  S   UNL     1      -9.701  12.871  65.569  1.00  0.00     0.022 SA 
HETATM    3  C   UNL     1     -11.084  11.740  66.055  1.00  0.00    -0.312 C  
HETATM    4  C   UNL     1     -11.058  11.690  67.597  1.00  0.00    -0.255 C  
HETATM    5  C   UNL     1     -12.401  12.230  65.453  1.00  0.00    -0.168 C  
HETATM    6  C   UNL     1     -10.777  10.361  65.433  1.00  0.00     0.052 C  
HETATM    7  C   UNL     1      -7.696  11.620  67.279  1.00  0.00    -0.154 C  
HETATM    8  N   UNL     1      -9.659  11.822  68.004  1.00  0.00    -0.181 N  
HETATM    9  O   UNL     1      -8.991   9.581  68.139  1.00  0.00    -0.124 OA 
HETATM   10  C   UNL     1      -8.800  10.760  67.941  1.00  0.00    -0.132 C  
ENDROOT
BRANCH   4  11
HETATM   11  C   UNL     1     -11.860  12.782  68.336  1.00  0.00    -0.310 C  
HETATM   12  O   UNL     1     -12.513  13.677  67.813  1.00  0.00    -0.117 OA 
BRANCH  11  13
HETATM   13  O   UNL     1     -11.666  12.683  69.683  1.00  0.00    -0.303 OA 
BRANCH  13  14
HETATM   14  C   UNL     1     -12.293  13.740  70.428  1.00  0.00    -0.353 C  
HETATM   15  C   UNL     1     -12.945  13.194  71.689  1.00  0.00    -0.429 C  
BRANCH  14  16
HETATM   16  O   UNL     1     -11.288  14.667  70.859  1.00  0.00    -0.219 OA 
BRANCH  16  17
HETATM   17  C   UNL     1     -11.781  15.906  71.097  1.00  0.00    -0.442 C  
HETATM   18  O   UNL     1     -12.727  16.164  71.827  1.00  0.00    -0.398 OA 
BRANCH  17  19
HETATM   19  O   UNL     1     -11.132  16.784  70.295  1.00  0.00    -0.211 OA 
BRANCH  19  20
HETATM   20  C   UNL     1     -10.515  16.200  69.138  1.00  0.00    -0.265 C  
HETATM   21  C   UNL     1      -9.542  17.201  68.542  1.00  0.00    -0.288 C  
ENDBRANCH  19  20
ENDBRANCH  17  19
ENDBRANCH  16  17
ENDBRANCH  14  16
ENDBRANCH  13  14
ENDBRANCH  11  13
ENDBRANCH   4  11
BRANCH   7  22
HETATM   22  N   UNL     1      -7.133  11.103  66.010  1.00  0.00    -0.353 N  
HETATM   23  H   UNL     1      -7.550  11.400  65.127  1.00  0.00     0.000 HD 
HETATM   24  C   UNL     1      -6.063  10.234  65.987  1.00  0.00    -0.092 C  
HETATM   25  O   UNL     1      -5.578   9.760  67.013  1.00  0.00    -0.045 OA 
BRANCH  24  26
HETATM   26  C   UNL     1      -5.540   9.900  64.571  1.00  0.00    -0.090 C  
HETATM   27  N   UNL     1      -6.151  10.821  63.574  1.00  0.00    -0.376 NA 
HETATM   28  H2  UNL     1      -6.003  11.801  63.816  1.00  0.00     0.000 HD 
HETATM   29  H1  UNL     1      -5.807  10.601  62.639  1.00  0.00     0.000 HD 
BRANCH  26  30
HETATM   30  C   UNL     1      -5.761   8.440  64.222  1.00  0.00    -0.064 A  
HETATM   31  C   UNL     1      -5.466   7.987  62.925  1.00  0.00    -0.059 A  
HETATM   32  C   UNL     1      -5.671   6.652  62.569  1.00  0.00    -0.028 A  
HETATM   33  C   UNL     1      -6.166   5.748  63.506  1.00  0.00    -0.025 A  
HETATM   34  C   UNL     1      -6.444   6.175  64.802  1.00  0.00    -0.038 A  
HETATM   35  C   UNL     1      -6.235   7.509  65.161  1.00  0.00    -0.038 A  
ENDBRANCH  26  30
ENDBRANCH  24  26
ENDBRANCH   7  22
TORSDOF 10
ENDMDL
MODEL      239
REMARK 921   NORMALIZED FREE ENERGY PREDICTED BY IDOCK:   -2.93 KCAL/MOL
REMARK 922        TOTAL FREE ENERGY PREDICTED BY IDOCK:   -5.91 KCAL/MOL
REMARK 923 INTER-LIGAND FREE ENERGY PREDICTED BY IDOCK:   -6.30 KCAL/MOL
REMARK 924 INTRA-LIGAND FREE ENERGY PREDICTED BY IDOCK:    0.39 KCAL/MOL
REMARK 927      BINDING AFFINITY PREDICTED BY RF-SCORE:    0.00 PKD
ROOT
HETATM    1  C   UNL     1      -9.281   9.901  69.484  1.00  0.00    -0.223 C  
HETATM    2  S   UNL     1      -8.506   8.640  70.594  1.00  0.00    -0.175 SA 
HETATM    3  C   UNL     1      -7.924   7.568  69.202  1.00  0.00    -0.121 C  
HETATM    4  C   UNL     1      -7.907   8.476  67.956  1.00  0.00    -0.103 C  
HETATM    5  C   UNL     1      -6.576   6.936  69.552  1.00  0.00    -0.048 C  
HETATM    6  C   UNL     1      -8.948   6.420  69.060  1.00  0.00    -0.128 C  
HETATM    7  C   UNL     1     -10.795   9.747  69.164  1.00  0.00    -0.207 C  
HETATM    8  N   UNL     1      -8.999   9.437  68.114  1.00  0.00    -0.128 N  
HETATM    9  O   UNL     1     -10.757   8.340  67.021  1.00  0.00    -0.307 OA 
HETATM   10  C   UNL     1     -10.296   9.084  67.857  1.00  0.00    -0.235 C  
ENDROOT
BRANCH   4  11
HETATM   11  C   UNL     1      -6.615   9.283  67.708  1.00  0.00    -0.063 C  
HETATM   12  O   UNL     1      -5.599   9.247  68.391  1.00  0.00    -0.037 OA 
BRANCH  11  13
HETATM   13  O   UNL     1      -6.784  10.138  66.657  1.00  0.00    -0.074 OA 
BRANCH  13  14
HETATM   14  C   UNL     1      -6.971  11.504  67.060  1.00  0.00    -0.145 C  
HETATM   15  C   UNL     1      -8.394  11.958  66.775  1.00  0.00    -0.153 C  
BRANCH  14  16
HETATM   16  O   UNL     1      -6.790  11.602  68.480  1.00  0.00    -0.063 OA 
BRANCH  16  17
HETATM   17  C   UNL     1      -6.171  12.746  68.855  1.00  0.00    -0.085 C  
HETATM   18  O   UNL     1      -5.456  13.433  68.139  1.00  0.00    -0.088 OA 
BRANCH  17  19
HETATM   19  O   UNL     1      -6.376  12.926  70.182  1.00  0.00    -0.076 OA 
BRANCH  19  20
HETATM   20  C   UNL     1      -5.584  12.084  71.033  1.00  0.00    -0.019 C  
HETATM   21  C   UNL     1      -5.129  12.891  72.237  1.00  0.00     0.025 C  
ENDBRANCH  19  20
ENDBRANCH  17  19
ENDBRANCH  16  17
ENDBRANCH  14  16
ENDBRANCH  13  14
ENDBRANCH  11  13
ENDBRANCH   4  11
BRANCH   7  22
HETATM   22  N   UNL     1     -11.600   8.893  70.069  1.00  0.00    -0.457 N  
HETATM   23  H   UNL     1     -11.669   7.894  69.875  1.00  0.00     0.000 HD 
HETATM   24  C   UNL     1     -12.258   9.410  71.164  1.00  0.00    -0.323 C  
HETATM   25  O   UNL     1     -12.299  10.616  71.400  1.00  0.00    -0.362 OA 
BRANCH  24  26
HETATM   26  C   UNL     1     -12.946   8.350  72.056  1.00  0.00    -0.358 C  
HETATM   27  N   UNL     1     -13.802   9.021  73.073  1.00  0.00    -1.108 NA 
HETATM   28  H2  UNL     1     -14.475   9.658  72.646  1.00  0.00     0.000 HD 
HETATM   29  H1  UNL     1     -14.256   8.323  73.662  1.00  0.00     0.000 HD 
BRANCH  26  30
HETATM   30  C   UNL     1     -11.937   7.405  72.684  1.00  0.00    -0.098 A  
HETATM   31  C   UNL     1     -10.886   7.928  73.455  1.00  0.00    -0.011 A  
HETATM   32  C   UNL     1      -9.936   7.086  74.035  1.00  0.00    -0.353 A  
HETATM   33  C   UNL     1     -10.025   5.707  73.859  1.00  0.00    -0.203 A  
HETATM   34  C   UNL     1     -11.073   5.169  73.116  1.00  0.00    -0.391 A  
HETATM   35  C   UNL     1     -12.027   6.011  72.539  1.00  0.00    -0.176 A  
ENDBRANCH  26  30
ENDBRANCH  24  26
ENDBRANCH   7  22
TORSDOF 10
ENDMDL
MODEL      240
REMARK 921   NORMALIZED FREE ENERGY PREDICTED BY IDOCK:   -2.93 KCAL/MOL
REMARK 922        TOTAL FREE ENERGY PREDICTED BY IDOCK:   -5.90 KCAL/MOL
REMARK 923 INTER-LIGAND FREE ENERGY PREDICTED BY IDOCK:   -5.12 KCAL/MOL
REMARK 924 INTRA-LIGAND FREE ENERGY PREDICTED BY IDOCK:   -0.78 KCAL/MOL
REMARK 927      BINDING AFFINITY PREDICTED BY RF-SCORE:    0.00 PKD
ROOT
HETATM    1  C   UNL     1      -8.413   9.897  67.394  1.00  0.00    -0.118 C  
HETATM    2  S   UNL     1      -9.101  10.422  69.030  1.00  0.00    -0.186 SA 
HETATM    3  C   UNL     1     -10.807   9.802  68.670  1.00  0.00    -0.188 C  
HETATM    4  C   UNL     1     -10.644   8.777  67.529  1.00  0.00    -0.228 C  
HETATM    5  C   UNL     1     -11.445   9.245  69.943  1.00  0.00    -0.006 C  
HETATM    6  C   UNL     1     -11.645  11.021  68.229  1.00  0.00    -0.354 C  
HETATM    7  C   UNL     1      -8.395  10.948  66.249  1.00  0.00    -0.164 C  
HETATM    8  N   UNL     1      -9.531   9.237  66.698  1.00  0.00    -0.177 N  
HETATM    9  O   UNL     1     -10.641  10.526  65.088  1.00  0.00    -0.221 OA 
HETATM   10  C   UNL     1      -9.695  10.246  65.789  1.00  0.00    -0.238 C  
ENDROOT
BRANCH   4  11
HETATM   11  C   UNL     1     -10.340   7.323  67.945  1.00  0.00    -0.201 C  
HETATM   12  O   UNL     1     -11.130   6.537  68.455  1.00  0.00    -0.296 OA 
BRANCH  11  13
HETATM   13  O   UNL     1      -9.017   7.043  67.758  1.00  0.00    -0.123 OA 
BRANCH  13  14
HETATM   14  C   UNL     1      -8.785   5.738  67.202  1.00  0.00    -0.108 C  
HETATM   15  C   UNL     1      -9.085   5.729  65.711  1.00  0.00    -0.122 C  
BRANCH  14  16
HETATM   16  O   UNL     1      -7.395   5.413  67.339  1.00  0.00    -0.080 OA 
BRANCH  16  17
HETATM   17  C   UNL     1      -6.955   5.500  68.617  1.00  0.00    -0.060 C  
HETATM   18  O   UNL     1      -6.227   6.377  69.058  1.00  0.00    -0.031 OA 
BRANCH  17  19
HETATM   19  O   UNL     1      -7.355   4.389  69.281  1.00  0.00    -0.051 OA 
BRANCH  19  20
HETATM   20  C   UNL     1      -6.291   3.516  69.688  1.00  0.00    -0.029 C  
HETATM   21  C   UNL     1      -6.780   2.646  70.834  1.00  0.00    -0.032 C  
ENDBRANCH  19  20
ENDBRANCH  17  19
ENDBRANCH  16  17
ENDBRANCH  14  16
ENDBRANCH  13  14
ENDBRANCH  11  13
ENDBRANCH   4  11
BRANCH   7  22
HETATM   22  N   UNL     1      -8.518  12.375  66.631  1.00  0.00    -0.387 N  
HETATM   23  H   UNL     1      -9.434  12.821  66.587  1.00  0.00     0.000 HD 
HETATM   24  C   UNL     1      -7.431  13.115  67.043  1.00  0.00     0.189 C  
HETATM   25  O   UNL     1      -6.285  12.670  67.024  1.00  0.00    -0.250 OA 
BRANCH  24  26
HETATM   26  C   UNL     1      -7.774  14.548  67.513  1.00  0.00    -0.188 C  
HETATM   27  N   UNL     1      -6.830  14.970  68.585  1.00  0.00    -0.105 NA 
HETATM   28  H2  UNL     1      -5.856  14.885  68.292  1.00  0.00     0.000 HD 
HETATM   29  H1  UNL     1      -7.055  15.915  68.896  1.00  0.00     0.000 HD 
BRANCH  26  30
HETATM   30  C   UNL     1      -9.225  14.665  67.943  1.00  0.00    -0.197 A  
HETATM   31  C   UNL     1      -9.543  14.660  69.311  1.00  0.00    -0.018 A  
HETATM   32  C   UNL     1     -10.869  14.754  69.737  1.00  0.00    -0.222 A  
HETATM   33  C   UNL     1     -11.897  14.862  68.803  1.00  0.00    -0.328 A  
HETATM   34  C   UNL     1     -11.598  14.890  67.443  1.00  0.00    -0.347 A  
HETATM   35  C   UNL     1     -10.271  14.801  67.016  1.00  0.00    -0.253 A  
ENDBRANCH  26  30
ENDBRANCH  24  26
ENDBRANCH   7  22
TORSDOF 10
ENDMDL
MODEL      241
REMARK 921   NORMALIZED FREE ENERGY PREDICTED BY IDOCK:   -2.93 KCAL/MOL
REMARK 922        TOTAL FREE ENERGY PREDICTED BY IDOCK:   -5.90 KCAL/MOL
REMARK 923 INTER-LIGAND FREE ENERGY PREDICTED BY IDOCK:   -6.02 KCAL/MOL
REMARK 924 INTRA-LIGAND FREE ENERGY PREDICTED BY IDOCK:    0.12 KCAL/MOL
REMARK 927      BINDING AFFINITY PREDICTED BY RF-SCORE:    0.00 PKD
ROOT
HETATM    1  C   UNL     1      -9.267   9.417  67.397  1.00  0.00    -0.126 C  
HETATM    2  S   UNL     1     -11.069   9.791  67.589  1.00  0.00     0.111 SA 
HETATM    3  C   UNL     1     -10.786  11.434  68.394  1.00  0.00    -0.207 C  
HETATM    4  C   UNL     1      -9.346  11.838  68.018  1.00  0.00    -0.184 C  
HETATM    5  C   UNL     1     -11.864  12.427  67.957  1.00  0.00    -0.376 C  
HETATM    6  C   UNL     1     -10.943  11.223  69.915  1.00  0.00    -0.096 C  
HETATM    7  C   UNL     1      -8.581   8.586  68.518  1.00  0.00    -0.138 C  
HETATM    8  N   UNL     1      -8.568  10.603  67.923  1.00  0.00    -0.123 N  
HETATM    9  O   UNL     1      -7.714  10.412  70.095  1.00  0.00    -0.122 OA 
HETATM   10  C   UNL     1      -8.112   9.965  69.044  1.00  0.00    -0.111 C  
ENDROOT
BRANCH   4  11
HETATM   11  C   UNL     1      -9.168  12.601  66.688  1.00  0.00    -0.218 C  
HETATM   12  O   UNL     1      -9.491  13.762  66.473  1.00  0.00    -0.276 OA 
BRANCH  11  13
HETATM   13  O   UNL     1      -8.679  11.766  65.725  1.00  0.00    -0.039 OA 
BRANCH  13  14
HETATM   14  C   UNL     1      -9.676  11.342  64.781  1.00  0.00    -0.244 C  
HETATM   15  C   UNL     1     -10.757  12.401  64.631  1.00  0.00    -0.339 C  
BRANCH  14  16
HETATM   16  O   UNL     1      -9.067  11.199  63.490  1.00  0.00    -0.188 OA 
BRANCH  16  17
HETATM   17  C   UNL     1      -8.052  10.302  63.483  1.00  0.00    -0.152 C  
HETATM   18  O   UNL     1      -6.861  10.579  63.481  1.00  0.00    -0.063 OA 
BRANCH  17  19
HETATM   19  O   UNL     1      -8.581   9.062  63.350  1.00  0.00    -0.194 OA 
BRANCH  19  20
HETATM   20  C   UNL     1      -7.617   8.010  63.192  1.00  0.00    -0.126 C  
HETATM   21  C   UNL     1      -7.355   7.377  64.548  1.00  0.00    -0.087 C  
ENDBRANCH  19  20
ENDBRANCH  17  19
ENDBRANCH  16  17
ENDBRANCH  14  16
ENDBRANCH  13  14
ENDBRANCH  11  13
ENDBRANCH   4  11
BRANCH   7  22
HETATM   22  N   UNL     1      -9.456   7.801  69.419  1.00  0.00    -0.156 N  
HETATM   23  H   UNL     1     -10.465   7.821  69.270  1.00  0.00     0.000 HD 
HETATM   24  C   UNL     1      -8.946   7.046  70.453  1.00  0.00    -0.155 C  
HETATM   25  O   UNL     1      -7.753   7.056  70.751  1.00  0.00    -0.092 OA 
BRANCH  24  26
HETATM   26  C   UNL     1      -9.999   6.203  71.209  1.00  0.00    -0.182 C  
HETATM   27  N   UNL     1     -10.292   4.956  70.449  1.00  0.00    -0.223 NA 
HETATM   28  H2  UNL     1      -9.446   4.422  70.249  1.00  0.00     0.000 HD 
HETATM   29  H1  UNL     1     -10.987   4.400  70.947  1.00  0.00     0.000 HD 
BRANCH  26  30
HETATM   30  C   UNL     1     -11.252   7.006  71.506  1.00  0.00    -0.279 A  
HETATM   31  C   UNL     1     -11.168   8.139  72.333  1.00  0.00    -0.452 A  
HETATM   32  C   UNL     1     -12.304   8.891  72.634  1.00  0.00    -0.218 A  
HETATM   33  C   UNL     1     -13.542   8.527  72.109  1.00  0.00    -0.402 A  
HETATM   34  C   UNL     1     -13.641   7.420  71.271  1.00  0.00    -0.341 A  
HETATM   35  C   UNL     1     -12.504   6.669  70.964  1.00  0.00    -0.225 A  
ENDBRANCH  26  30
ENDBRANCH  24  26
ENDBRANCH   7  22
TORSDOF 10
ENDMDL
MODEL      242
REMARK 921   NORMALIZED FREE ENERGY PREDICTED BY IDOCK:   -2.88 KCAL/MOL
REMARK 922        TOTAL FREE ENERGY PREDICTED BY IDOCK:   -5.83 KCAL/MOL
REMARK 923 INTER-LIGAND FREE ENERGY PREDICTED BY IDOCK:   -6.01 KCAL/MOL
REMARK 924 INTRA-LIGAND FREE ENERGY PREDICTED BY IDOCK:    0.19 KCAL/MOL
REMARK 927      BINDING AFFINITY PREDICTED BY RF-SCORE:    0.00 PKD
ROOT
HETATM    1  C   UNL     1     -10.706   9.113  67.357  1.00  0.00    -0.177 C  
HETATM    2  S   UNL     1      -9.906   9.828  68.865  1.00  0.00    -0.182 SA 
HETATM    3  C   UNL     1      -8.825  10.989  67.913  1.00  0.00    -0.134 C  
HETATM    4  C   UNL     1      -9.488  11.133  66.528  1.00  0.00    -0.193 C  
HETATM    5  C   UNL     1      -8.656  12.301  68.681  1.00  0.00     0.019 C  
HETATM    6  C   UNL     1      -7.432  10.330  67.816  1.00  0.00    -0.088 C  
HETATM    7  C   UNL     1     -10.089   7.817  66.760  1.00  0.00    -0.270 C  
HETATM    8  N   UNL     1     -10.121   9.850  66.223  1.00  0.00    -0.246 N  
HETATM    9  O   UNL     1      -8.419   8.747  65.052  1.00  0.00    -0.161 OA 
HETATM   10  C   UNL     1      -9.386   8.785  65.777  1.00  0.00    -0.191 C  
ENDROOT
BRANCH   4  11
HETATM   11  C   UNL     1     -10.568  12.226  66.390  1.00  0.00    -0.242 C  
HETATM   12  O   UNL     1     -11.702  12.183  66.851  1.00  0.00    -0.483 OA 
BRANCH  11  13
HETATM   13  O   UNL     1     -10.123  13.234  65.584  1.00  0.00    -0.287 OA 
BRANCH  13  14
HETATM   14  C   UNL     1     -10.723  14.505  65.879  1.00  0.00    -0.305 C  
HETATM   15  C   UNL     1     -10.597  14.828  67.360  1.00  0.00    -0.268 C  
BRANCH  14  16
HETATM   16  O   UNL     1     -10.011  15.533  65.178  1.00  0.00    -0.316 OA 
BRANCH  16  17
HETATM   17  C   UNL     1      -9.849  16.659  65.913  1.00  0.00    -0.273 C  
HETATM   18  O   UNL     1     -10.743  17.267  66.484  1.00  0.00    -0.221 OA 
BRANCH  17  19
HETATM   19  O   UNL     1      -8.560  17.059  65.801  1.00  0.00    -0.517 OA 
BRANCH  19  20
HETATM   20  C   UNL     1      -7.800  16.990  67.018  1.00  0.00    -0.191 C  
HETATM   21  C   UNL     1      -6.785  18.119  67.027  1.00  0.00    -0.206 C  
ENDBRANCH  19  20
ENDBRANCH  17  19
ENDBRANCH  16  17
ENDBRANCH  14  16
ENDBRANCH  13  14
ENDBRANCH  11  13
ENDBRANCH   4  11
BRANCH   7  22
HETATM   22  N   UNL     1      -9.205   7.015  67.638  1.00  0.00    -0.121 N  
HETATM   23  H   UNL     1      -8.312   7.410  67.935  1.00  0.00     0.000 HD 
HETATM   24  C   UNL     1      -9.554   5.751  68.063  1.00  0.00    -0.119 C  
HETATM   25  O   UNL     1     -10.565   5.176  67.664  1.00  0.00    -0.117 OA 
BRANCH  24  26
HETATM   26  C   UNL     1      -8.563   5.118  69.068  1.00  0.00    -0.089 C  
HETATM   27  N   UNL     1      -9.206   3.966  69.757  1.00  0.00    -0.126 NA 
HETATM   28  H2  UNL     1      -9.572   3.280  69.096  1.00  0.00     0.000 HD 
HETATM   29  H1  UNL     1      -8.553   3.548  70.420  1.00  0.00     0.000 HD 
BRANCH  26  30
HETATM   30  C   UNL     1      -8.020   6.146  70.044  1.00  0.00    -0.111 A  
HETATM   31  C   UNL     1      -6.825   6.821  69.744  1.00  0.00    -0.054 A  
HETATM   32  C   UNL     1      -6.295   7.763  70.627  1.00  0.00    -0.037 A  
HETATM   33  C   UNL     1      -6.954   8.051  71.820  1.00  0.00    -0.069 A  
HETATM   34  C   UNL     1      -8.151   7.407  72.124  1.00  0.00    -0.107 A  
HETATM   35  C   UNL     1      -8.685   6.468  71.239  1.00  0.00    -0.130 A  
ENDBRANCH  26  30
ENDBRANCH  24  26
ENDBRANCH   7  22
TORSDOF 10
ENDMDL
MODEL      243
REMARK 921   NORMALIZED FREE ENERGY PREDICTED BY IDOCK:   -2.81 KCAL/MOL
REMARK 922        TOTAL FREE ENERGY PREDICTED BY IDOCK:   -5.72 KCAL/MOL
REMARK 923 INTER-LIGAND FREE ENERGY PREDICTED BY IDOCK:   -4.69 KCAL/MOL
REMARK 924 INTRA-LIGAND FREE ENERGY PREDICTED BY IDOCK:   -1.03 KCAL/MOL
REMARK 927      BINDING AFFINITY PREDICTED BY RF-SCORE:    0.00 PKD
ROOT
HETATM    1  C   UNL     1      -8.477   8.316  72.329  1.00  0.00    -0.187 C  
HETATM    2  S   UNL     1     -10.292   8.146  72.011  1.00  0.00    -0.280 SA 
HETATM    3  C   UNL     1     -10.148   6.454  71.275  1.00  0.00    -0.187 C  
HETATM    4  C   UNL     1      -8.796   5.900  71.770  1.00  0.00    -0.139 C  
HETATM    5  C   UNL     1     -11.364   5.609  71.656  1.00  0.00    -0.150 C  
HETATM    6  C   UNL     1     -10.169   6.627  69.741  1.00  0.00    -0.214 C  
HETATM    7  C   UNL     1      -7.618   9.021  71.241  1.00  0.00    -0.070 C  
HETATM    8  N   UNL     1      -7.886   7.039  71.890  1.00  0.00    -0.093 N  
HETATM    9  O   UNL     1      -6.862   7.052  69.784  1.00  0.00    -0.048 OA 
HETATM   10  C   UNL     1      -7.279   7.580  70.790  1.00  0.00    -0.067 C  
ENDROOT
BRANCH   4  11
HETATM   11  C   UNL     1      -8.806   5.170  73.130  1.00  0.00    -0.115 C  
HETATM   12  O   UNL     1      -9.534   5.425  74.081  1.00  0.00    -0.131 OA 
BRANCH  11  13
HETATM   13  O   UNL     1      -7.806   4.242  73.177  1.00  0.00    -0.083 OA 
BRANCH  13  14
HETATM   14  C   UNL     1      -7.416   3.760  71.880  1.00  0.00    -0.056 C  
HETATM   15  C   UNL     1      -5.907   3.842  71.709  1.00  0.00    -0.012 C  
BRANCH  14  16
HETATM   16  O   UNL     1      -7.762   2.372  71.774  1.00  0.00    -0.043 OA 
BRANCH  16  17
HETATM   17  C   UNL     1      -8.803   2.151  70.936  1.00  0.00    -0.069 C  
HETATM   18  O   UNL     1      -9.976   2.391  71.185  1.00  0.00    -0.097 OA 
BRANCH  17  19
HETATM   19  O   UNL     1      -8.338   1.508  69.839  1.00  0.00    -0.044 OA 
BRANCH  19  20
HETATM   20  C   UNL     1      -7.924   2.369  68.766  1.00  0.00    -0.052 C  
HETATM   21  C   UNL     1      -9.153   2.818  67.996  1.00  0.00    -0.228 C  
ENDBRANCH  19  20
ENDBRANCH  17  19
ENDBRANCH  16  17
ENDBRANCH  14  16
ENDBRANCH  13  14
ENDBRANCH  11  13
ENDBRANCH   4  11
BRANCH   7  22
HETATM   22  N   UNL     1      -8.327   9.869  70.255  1.00  0.00    -0.302 N  
HETATM   23  H   UNL     1      -9.347   9.890  70.263  1.00  0.00     0.000 HD 
HETATM   24  C   UNL     1      -7.649  10.630  69.327  1.00  0.00    -0.138 C  
HETATM   25  O   UNL     1      -6.427  10.576  69.197  1.00  0.00    -0.048 OA 
BRANCH  24  26
HETATM   26  C   UNL     1      -8.552  11.540  68.462  1.00  0.00    -0.140 C  
HETATM   27  N   UNL     1      -9.801  11.867  69.204  1.00  0.00    -0.396 NA 
HETATM   28  H2  UNL     1      -9.607  12.277  70.118  1.00  0.00     0.000 HD 
HETATM   29  H1  UNL     1     -10.397  12.467  68.633  1.00  0.00     0.000 HD 
BRANCH  26  30
HETATM   30  C   UNL     1      -8.831  10.924  67.103  1.00  0.00    -0.135 A  
HETATM   31  C   UNL     1      -9.971  11.321  66.385  1.00  0.00    -0.252 A  
HETATM   32  C   UNL     1     -10.261  10.765  65.138  1.00  0.00    -0.365 A  
HETATM   33  C   UNL     1      -9.412   9.808  64.586  1.00  0.00    -0.295 A  
HETATM   34  C   UNL     1      -8.266   9.419  65.274  1.00  0.00    -0.133 A  
HETATM   35  C   UNL     1      -7.972   9.979  66.519  1.00  0.00    -0.115 A  
ENDBRANCH  26  30
ENDBRANCH  24  26
ENDBRANCH   7  22
TORSDOF 10
ENDMDL
MODEL      244
REMARK 921   NORMALIZED FREE ENERGY PREDICTED BY IDOCK:   -2.81 KCAL/MOL
REMARK 922        TOTAL FREE ENERGY PREDICTED BY IDOCK:   -5.71 KCAL/MOL
REMARK 923 INTER-LIGAND FREE ENERGY PREDICTED BY IDOCK:   -6.29 KCAL/MOL
REMARK 924 INTRA-LIGAND FREE ENERGY PREDICTED BY IDOCK:    0.58 KCAL/MOL
REMARK 927      BINDING AFFINITY PREDICTED BY RF-SCORE:    0.00 PKD
ROOT
HETATM    1  C   UNL     1      -8.884  10.002  69.251  1.00  0.00    -0.178 C  
HETATM    2  S   UNL     1     -10.623   9.563  68.794  1.00  0.00    -0.192 SA 
HETATM    3  C   UNL     1     -10.129   8.135  67.725  1.00  0.00    -0.204 C  
HETATM    4  C   UNL     1      -8.703   7.754  68.172  1.00  0.00    -0.126 C  
HETATM    5  C   UNL     1     -11.158   7.010  67.841  1.00  0.00    -0.135 C  
HETATM    6  C   UNL     1     -10.156   8.635  66.264  1.00  0.00    -0.215 C  
HETATM    7  C   UNL     1      -8.164  11.081  68.394  1.00  0.00    -0.137 C  
HETATM    8  N   UNL     1      -8.042   8.991  68.588  1.00  0.00    -0.106 N  
HETATM    9  O   UNL     1      -7.003   9.665  66.600  1.00  0.00    -0.083 OA 
HETATM   10  C   UNL     1      -7.535   9.867  67.668  1.00  0.00    -0.090 C  
ENDROOT
BRANCH   4  11
HETATM   11  C   UNL     1      -8.591   6.754  69.342  1.00  0.00    -0.132 C  
HETATM   12  O   UNL     1      -8.163   5.608  69.275  1.00  0.00    -0.095 OA 
BRANCH  11  13
HETATM   13  O   UNL     1      -9.133   7.287  70.476  1.00  0.00    -0.156 OA 
BRANCH  13  14
HETATM   14  C   UNL     1      -9.396   6.310  71.495  1.00  0.00    -0.148 C  
HETATM   15  C   UNL     1      -8.242   6.241  72.483  1.00  0.00    -0.106 C  
BRANCH  14  16
HETATM   16  O   UNL     1     -10.549   6.715  72.246  1.00  0.00    -0.207 OA 
BRANCH  16  17
HETATM   17  C   UNL     1     -10.698   6.022  73.400  1.00  0.00    -0.262 C  
HETATM   18  O   UNL     1     -10.514   6.468  74.523  1.00  0.00    -0.275 OA 
BRANCH  17  19
HETATM   19  O   UNL     1     -10.959   4.730  73.089  1.00  0.00    -0.250 OA 
BRANCH  19  20
HETATM   20  C   UNL     1     -10.737   3.797  74.158  1.00  0.00    -0.192 C  
HETATM   21  C   UNL     1      -9.411   3.092  73.927  1.00  0.00    -0.116 C  
ENDBRANCH  19  20
ENDBRANCH  17  19
ENDBRANCH  16  17
ENDBRANCH  14  16
ENDBRANCH  13  14
ENDBRANCH  11  13
ENDBRANCH   4  11
BRANCH   7  22
HETATM   22  N   UNL     1      -9.011  11.974  67.569  1.00  0.00    -0.168 N  
HETATM   23  H   UNL     1     -10.001  11.753  67.456  1.00  0.00     0.000 HD 
HETATM   24  C   UNL     1      -8.500  13.095  66.950  1.00  0.00    -0.070 C  
HETATM   25  O   UNL     1      -7.300  13.365  66.961  1.00  0.00     0.022 OA 
BRANCH  24  26
HETATM   26  C   UNL     1      -9.557  13.968  66.233  1.00  0.00    -0.265 C  
HETATM   27  N   UNL     1      -9.691  13.539  64.814  1.00  0.00    -0.529 NA 
HETATM   28  H2  UNL     1      -9.897  12.543  64.732  1.00  0.00     0.000 HD 
HETATM   29  H1  UNL     1     -10.387  14.115  64.340  1.00  0.00     0.000 HD 
BRANCH  26  30
HETATM   30  C   UNL     1      -9.243  15.447  66.363  1.00  0.00    -0.339 A  
HETATM   31  C   UNL     1     -10.284  16.385  66.264  1.00  0.00    -0.341 A  
HETATM   32  C   UNL     1     -10.027  17.754  66.367  1.00  0.00    -0.345 A  
HETATM   33  C   UNL     1      -8.725  18.205  66.578  1.00  0.00    -0.286 A  
HETATM   34  C   UNL     1      -7.685  17.288  66.701  1.00  0.00    -0.298 A  
HETATM   35  C   UNL     1      -7.942  15.919  66.603  1.00  0.00    -0.270 A  
ENDBRANCH  26  30
ENDBRANCH  24  26
ENDBRANCH   7  22
TORSDOF 10
ENDMDL
MODEL      245
REMARK 921   NORMALIZED FREE ENERGY PREDICTED BY IDOCK:   -2.80 KCAL/MOL
REMARK 922        TOTAL FREE ENERGY PREDICTED BY IDOCK:   -5.70 KCAL/MOL
REMARK 923 INTER-LIGAND FREE ENERGY PREDICTED BY IDOCK:   -6.38 KCAL/MOL
REMARK 924 INTRA-LIGAND FREE ENERGY PREDICTED BY IDOCK:    0.68 KCAL/MOL
REMARK 927      BINDING AFFINITY PREDICTED BY RF-SCORE:    0.00 PKD
ROOT
HETATM    1  C   UNL     1      -9.566   8.899  69.600  1.00  0.00    -0.169 C  
HETATM    2  S   UNL     1      -8.145   9.886  68.940  1.00  0.00    -0.113 SA 
HETATM    3  C   UNL     1      -8.996  10.309  67.352  1.00  0.00    -0.135 C  
HETATM    4  C   UNL     1     -10.501  10.104  67.619  1.00  0.00    -0.245 C  
HETATM    5  C   UNL     1      -8.612  11.722  66.910  1.00  0.00    -0.177 C  
HETATM    6  C   UNL     1      -8.465   9.331  66.282  1.00  0.00    -0.133 C  
HETATM    7  C   UNL     1      -9.554   7.365  69.354  1.00  0.00    -0.155 C  
HETATM    8  N   UNL     1     -10.618   9.002  68.574  1.00  0.00    -0.190 N  
HETATM    9  O   UNL     1     -10.842   7.158  67.147  1.00  0.00    -0.333 OA 
HETATM   10  C   UNL     1     -10.496   7.700  68.172  1.00  0.00    -0.181 C  
ENDROOT
BRANCH   4  11
HETATM   11  C   UNL     1     -11.269  11.307  68.205  1.00  0.00    -0.286 C  
HETATM   12  O   UNL     1     -11.214  11.705  69.362  1.00  0.00    -0.250 OA 
BRANCH  11  13
HETATM   13  O   UNL     1     -12.116  11.829  67.270  1.00  0.00    -0.595 OA 
BRANCH  13  14
HETATM   14  C   UNL     1     -11.683  13.100  66.758  1.00  0.00    -0.385 C  
HETATM   15  C   UNL     1     -12.331  13.384  65.411  1.00  0.00    -0.522 C  
BRANCH  14  16
HETATM   16  O   UNL     1     -12.123  14.137  67.646  1.00  0.00    -0.378 OA 
BRANCH  16  17
HETATM   17  C   UNL     1     -11.129  14.988  67.995  1.00  0.00    -0.300 C  
HETATM   18  O   UNL     1     -10.412  14.875  68.980  1.00  0.00    -0.233 OA 
BRANCH  17  19
HETATM   19  O   UNL     1     -11.152  16.042  67.145  1.00  0.00    -0.242 OA 
BRANCH  19  20
HETATM   20  C   UNL     1     -10.067  16.969  67.305  1.00  0.00    -0.295 C  
HETATM   21  C   UNL     1     -10.524  18.343  66.848  1.00  0.00    -0.419 C  
ENDBRANCH  19  20
ENDBRANCH  17  19
ENDBRANCH  16  17
ENDBRANCH  14  16
ENDBRANCH  13  14
ENDBRANCH  11  13
ENDBRANCH   4  11
BRANCH   7  22
HETATM   22  N   UNL     1      -8.257   6.740  69.003  1.00  0.00    -0.117 N  
HETATM   23  H   UNL     1      -7.426   6.990  69.540  1.00  0.00     0.000 HD 
HETATM   24  C   UNL     1      -8.141   5.830  67.973  1.00  0.00    -0.104 C  
HETATM   25  O   UNL     1      -9.078   5.560  67.224  1.00  0.00    -0.112 OA 
BRANCH  24  26
HETATM   26  C   UNL     1      -6.737   5.196  67.834  1.00  0.00    -0.055 C  
HETATM   27  N   UNL     1      -5.779   6.199  67.293  1.00  0.00    -0.015 NA 
HETATM   28  H2  UNL     1      -5.761   7.052  67.853  1.00  0.00     0.000 HD 
HETATM   29  H1  UNL     1      -4.853   5.781  67.201  1.00  0.00     0.000 HD 
BRANCH  26  30
HETATM   30  C   UNL     1      -6.775   3.927  67.004  1.00  0.00    -0.047 A  
HETATM   31  C   UNL     1      -7.154   2.716  67.608  1.00  0.00    -0.049 A  
HETATM   32  C   UNL     1      -7.187   1.529  66.874  1.00  0.00    -0.047 A  
HETATM   33  C   UNL     1      -6.849   1.535  65.522  1.00  0.00    -0.031 A  
HETATM   34  C   UNL     1      -6.492   2.729  64.902  1.00  0.00    -0.031 A  
HETATM   35  C   UNL     1      -6.464   3.918  65.634  1.00  0.00    -0.033 A  
ENDBRANCH  26  30
ENDBRANCH  24  26
ENDBRANCH   7  22
TORSDOF 10
ENDMDL
MODEL      246
REMARK 921   NORMALIZED FREE ENERGY PREDICTED BY IDOCK:   -2.76 KCAL/MOL
REMARK 922        TOTAL FREE ENERGY PREDICTED BY IDOCK:   -5.64 KCAL/MOL
REMARK 923 INTER-LIGAND FREE ENERGY PREDICTED BY IDOCK:   -5.07 KCAL/MOL
REMARK 924 INTRA-LIGAND FREE ENERGY PREDICTED BY IDOCK:   -0.57 KCAL/MOL
REMARK 927      BINDING AFFINITY PREDICTED BY RF-SCORE:    0.00 PKD
ROOT
HETATM    1  C   UNL     1      -9.954   7.153  68.042  1.00  0.00    -0.158 C  
HETATM    2  S   UNL     1      -8.800   6.726  66.659  1.00  0.00    -0.142 SA 
HETATM    3  C   UNL     1      -7.451   6.135  67.780  1.00  0.00    -0.089 C  
HETATM    4  C   UNL     1      -8.137   5.820  69.125  1.00  0.00    -0.101 C  
HETATM    5  C   UNL     1      -6.718   4.954  67.143  1.00  0.00    -0.055 C  
HETATM    6  C   UNL     1      -6.436   7.291  67.911  1.00  0.00    -0.049 C  
HETATM    7  C   UNL     1      -9.944   8.618  68.562  1.00  0.00    -0.183 C  
HETATM    8  N   UNL     1      -9.241   6.768  69.273  1.00  0.00    -0.142 N  
HETATM    9  O   UNL     1      -8.216   8.511  70.453  1.00  0.00    -0.102 OA 
HETATM   10  C   UNL     1      -9.020   8.058  69.671  1.00  0.00    -0.145 C  
ENDROOT
BRANCH   4  11
HETATM   11  C   UNL     1      -8.720   4.401  69.286  1.00  0.00    -0.087 C  
HETATM   12  O   UNL     1      -9.736   3.972  68.752  1.00  0.00    -0.153 OA 
BRANCH  11  13
HETATM   13  O   UNL     1      -7.997   3.692  70.201  1.00  0.00    -0.047 OA 
BRANCH  13  14
HETATM   14  C   UNL     1      -8.608   3.651  71.501  1.00  0.00    -0.084 C  
HETATM   15  C   UNL     1      -7.701   2.946  72.498  1.00  0.00    -0.054 C  
BRANCH  14  16
HETATM   16  O   UNL     1      -8.774   4.992  71.982  1.00  0.00    -0.126 OA 
BRANCH  16  17
HETATM   17  C   UNL     1      -9.622   5.073  73.035  1.00  0.00    -0.142 C  
HETATM   18  O   UNL     1     -10.784   4.692  73.041  1.00  0.00    -0.203 OA 
BRANCH  17  19
HETATM   19  O   UNL     1      -9.004   5.758  74.027  1.00  0.00    -0.125 OA 
BRANCH  19  20
HETATM   20  C   UNL     1      -9.687   6.947  74.453  1.00  0.00    -0.229 C  
HETATM   21  C   UNL     1      -9.458   8.040  73.424  1.00  0.00    -0.307 C  
ENDBRANCH  19  20
ENDBRANCH  17  19
ENDBRANCH  16  17
ENDBRANCH  14  16
ENDBRANCH  13  14
ENDBRANCH  11  13
ENDBRANCH   4  11
BRANCH   7  22
HETATM   22  N   UNL     1      -9.357   9.653  67.679  1.00  0.00    -0.127 N  
HETATM   23  H   UNL     1      -8.513   9.431  67.150  1.00  0.00     0.000 HD 
HETATM   24  C   UNL     1      -9.920  10.905  67.551  1.00  0.00    -0.174 C  
HETATM   25  O   UNL     1     -10.876  11.271  68.232  1.00  0.00    -0.180 OA 
BRANCH  24  26
HETATM   26  C   UNL     1      -9.239  11.807  66.494  1.00  0.00    -0.201 C  
HETATM   27  N   UNL     1      -9.878  13.152  66.488  1.00  0.00    -0.260 NA 
HETATM   28  H2  UNL     1      -9.878  13.579  67.414  1.00  0.00     0.000 HD 
HETATM   29  H1  UNL     1      -9.429  13.747  65.791  1.00  0.00     0.000 HD 
BRANCH  26  30
HETATM   30  C   UNL     1      -9.239  11.160  65.121  1.00  0.00    -0.209 A  
HETATM   31  C   UNL     1      -8.502   9.983  64.911  1.00  0.00    -0.173 A  
HETATM   32  C   UNL     1      -8.472   9.372  63.656  1.00  0.00    -0.203 A  
HETATM   33  C   UNL     1      -9.186   9.923  62.593  1.00  0.00    -0.297 A  
HETATM   34  C   UNL     1      -9.940  11.077  62.790  1.00  0.00    -0.193 A  
HETATM   35  C   UNL     1      -9.974  11.687  64.046  1.00  0.00    -0.328 A  
ENDBRANCH  26  30
ENDBRANCH  24  26
ENDBRANCH   7  22
TORSDOF 10
ENDMDL
MODEL      247
REMARK 921   NORMALIZED FREE ENERGY PREDICTED BY IDOCK:   -2.75 KCAL/MOL
REMARK 922        TOTAL FREE ENERGY PREDICTED BY IDOCK:   -5.63 KCAL/MOL
REMARK 923 INTER-LIGAND FREE ENERGY PREDICTED BY IDOCK:   -4.50 KCAL/MOL
REMARK 924 INTRA-LIGAND FREE ENERGY PREDICTED BY IDOCK:   -1.13 KCAL/MOL
REMARK 927      BINDING AFFINITY PREDICTED BY RF-SCORE:    0.00 PKD
ROOT
HETATM    1  C   UNL     1      -9.910  12.398  67.589  1.00  0.00    -0.198 C  
HETATM    2  S   UNL     1     -11.320  12.193  68.770  1.00  0.00    -0.313 SA 
HETATM    3  C   UNL     1     -11.245  13.938  69.382  1.00  0.00    -0.224 C  
HETATM    4  C   UNL     1     -10.484  14.727  68.297  1.00  0.00    -0.241 C  
HETATM    5  C   UNL     1     -12.654  14.454  69.677  1.00  0.00    -0.102 C  
HETATM    6  C   UNL     1     -10.473  13.914  70.719  1.00  0.00     2.387 C  
HETATM    7  C   UNL     1      -8.490  12.008  68.088  1.00  0.00    -0.171 C  
HETATM    8  N   UNL     1      -9.506  13.810  67.711  1.00  0.00    -0.209 N  
HETATM    9  O   UNL     1      -7.616  14.226  69.030  1.00  0.00    -0.126 OA 
HETATM   10  C   UNL     1      -8.330  13.525  68.350  1.00  0.00    -0.140 C  
ENDROOT
BRANCH   4  11
HETATM   11  C   UNL     1     -11.329  15.302  67.141  1.00  0.00    -0.247 C  
HETATM   12  O   UNL     1     -12.157  14.690  66.478  1.00  0.00    -0.340 OA 
BRANCH  11  13
HETATM   13  O   UNL     1     -10.958  16.589  66.877  1.00  0.00    -0.152 OA 
BRANCH  13  14
HETATM   14  C   UNL     1     -10.127  16.714  65.711  1.00  0.00    -0.277 C  
HETATM   15  C   UNL     1     -10.975  16.946  64.471  1.00  0.00     0.455 C  
BRANCH  14  16
HETATM   16  O   UNL     1      -9.292  17.871  65.854  1.00  0.00    -0.520 OA 
BRANCH  16  17
HETATM   17  C   UNL     1      -8.062  17.578  66.340  1.00  0.00    -0.274 C  
HETATM   18  O   UNL     1      -7.810  17.285  67.501  1.00  0.00    -0.177 OA 
BRANCH  17  19
HETATM   19  O   UNL     1      -7.155  17.787  65.357  1.00  0.00    -0.382 OA 
BRANCH  19  20
HETATM   20  C   UNL     1      -6.710  19.145  65.227  1.00  0.00    -0.198 C  
HETATM   21  C   UNL     1      -5.351  19.282  65.892  1.00  0.00    -0.171 C  
ENDBRANCH  19  20
ENDBRANCH  17  19
ENDBRANCH  16  17
ENDBRANCH  14  16
ENDBRANCH  13  14
ENDBRANCH  11  13
ENDBRANCH   4  11
BRANCH   7  22
HETATM   22  N   UNL     1      -8.402  11.124  69.274  1.00  0.00    -0.379 N  
HETATM   23  H   UNL     1      -8.208  11.537  70.186  1.00  0.00     0.000 HD 
HETATM   24  C   UNL     1      -8.575   9.759  69.179  1.00  0.00    -0.153 C  
HETATM   25  O   UNL     1      -8.712   9.185  68.100  1.00  0.00    -0.128 OA 
BRANCH  24  26
HETATM   26  C   UNL     1      -8.567   9.017  70.536  1.00  0.00    -0.201 C  
HETATM   27  N   UNL     1      -7.620   7.870  70.482  1.00  0.00    -0.080 NA 
HETATM   28  H2  UNL     1      -6.684   8.159  70.198  1.00  0.00     0.000 HD 
HETATM   29  H1  UNL     1      -7.615   7.380  71.377  1.00  0.00     0.000 HD 
BRANCH  26  30
HETATM   30  C   UNL     1      -9.964   8.595  70.952  1.00  0.00    -0.257 A  
HETATM   31  C   UNL     1     -10.219   7.245  71.246  1.00  0.00    -0.198 A  
HETATM   32  C   UNL     1     -11.497   6.823  71.620  1.00  0.00    -0.322 A  
HETATM   33  C   UNL     1     -12.537   7.744  71.713  1.00  0.00    -0.356 A  
HETATM   34  C   UNL     1     -12.297   9.090  71.446  1.00  0.00    -0.380 A  
HETATM   35  C   UNL     1     -11.019   9.514  71.077  1.00  0.00    -0.424 A  
ENDBRANCH  26  30
ENDBRANCH  24  26
ENDBRANCH   7  22
TORSDOF 10
ENDMDL
MODEL      248
REMARK 921   NORMALIZED FREE ENERGY PREDICTED BY IDOCK:   -2.69 KCAL/MOL
REMARK 922        TOTAL FREE ENERGY PREDICTED BY IDOCK:   -5.52 KCAL/MOL
REMARK 923 INTER-LIGAND FREE ENERGY PREDICTED BY IDOCK:   -5.98 KCAL/MOL
REMARK 924 INTRA-LIGAND FREE ENERGY PREDICTED BY IDOCK:    0.46 KCAL/MOL
REMARK 927      BINDING AFFINITY PREDICTED BY RF-SCORE:    0.00 PKD
ROOT
HETATM    1  C   UNL     1      -8.631  10.287  67.098  1.00  0.00    -0.126 C  
HETATM    2  S   UNL     1     -10.464  10.381  66.861  1.00  0.00    -0.224 SA 
HETATM    3  C   UNL     1     -10.713  11.639  68.196  1.00  0.00    -0.213 C  
HETATM    4  C   UNL     1      -9.334  12.295  68.411  1.00  0.00    -0.162 C  
HETATM    5  C   UNL     1     -11.829  12.608  67.805  1.00  0.00    -0.381 C  
HETATM    6  C   UNL     1     -11.185  10.874  69.452  1.00  0.00    -0.335 C  
HETATM    7  C   UNL     1      -8.082   9.180  68.041  1.00  0.00    -0.105 C  
HETATM    8  N   UNL     1      -8.327  11.265  68.157  1.00  0.00    -0.136 N  
HETATM    9  O   UNL     1      -7.998  10.385  70.302  1.00  0.00    -0.063 OA 
HETATM   10  C   UNL     1      -8.036  10.313  69.095  1.00  0.00    -0.135 C  
ENDROOT
BRANCH   4  11
HETATM   11  C   UNL     1      -8.997  13.503  67.511  1.00  0.00    -0.210 C  
HETATM   12  O   UNL     1      -7.906  13.749  67.010  1.00  0.00    -0.071 OA 
BRANCH  11  13
HETATM   13  O   UNL     1     -10.072  14.339  67.417  1.00  0.00    -0.243 OA 
BRANCH  13  14
HETATM   14  C   UNL     1      -9.859  15.611  68.051  1.00  0.00    -0.209 C  
HETATM   15  C   UNL     1      -9.093  15.441  69.353  1.00  0.00    -0.258 C  
BRANCH  14  16
HETATM   16  O   UNL     1      -9.040  16.426  67.201  1.00  0.00    -0.200 OA 
BRANCH  16  17
HETATM   17  C   UNL     1      -9.755  17.104  66.271  1.00  0.00    -0.278 C  
HETATM   18  O   UNL     1     -10.283  18.194  66.440  1.00  0.00    -0.363 OA 
BRANCH  17  19
HETATM   19  O   UNL     1      -9.887  16.316  65.178  1.00  0.00    -0.410 OA 
BRANCH  19  20
HETATM   20  C   UNL     1     -11.132  16.462  64.477  1.00  0.00    -0.093 C  
HETATM   21  C   UNL     1     -12.023  15.278  64.808  1.00  0.00    -0.184 C  
ENDBRANCH  19  20
ENDBRANCH  17  19
ENDBRANCH  16  17
ENDBRANCH  14  16
ENDBRANCH  13  14
ENDBRANCH  11  13
ENDBRANCH   4  11
BRANCH   7  22
HETATM   22  N   UNL     1      -8.975   8.037  68.344  1.00  0.00    -0.133 N  
HETATM   23  H   UNL     1      -9.828   8.203  68.877  1.00  0.00     0.000 HD 
HETATM   24  C   UNL     1      -8.685   6.756  67.925  1.00  0.00    -0.120 C  
HETATM   25  O   UNL     1      -7.628   6.468  67.366  1.00  0.00    -0.096 OA 
BRANCH  24  26
HETATM   26  C   UNL     1      -9.790   5.718  68.230  1.00  0.00    -0.139 C  
HETATM   27  N   UNL     1     -10.292   5.904  69.619  1.00  0.00    -0.222 NA 
HETATM   28  H2  UNL     1     -10.607   6.859  69.787  1.00  0.00     0.000 HD 
HETATM   29  H1  UNL     1     -11.021   5.219  69.821  1.00  0.00     0.000 HD 
BRANCH  26  30
HETATM   30  C   UNL     1      -9.314   4.300  67.972  1.00  0.00    -0.200 A  
HETATM   31  C   UNL     1      -8.934   3.490  69.056  1.00  0.00    -0.182 A  
HETATM   32  C   UNL     1      -8.481   2.186  68.851  1.00  0.00    -0.088 A  
HETATM   33  C   UNL     1      -8.406   1.667  67.560  1.00  0.00    -0.080 A  
HETATM   34  C   UNL     1      -8.799   2.448  66.476  1.00  0.00    -0.135 A  
HETATM   35  C   UNL     1      -9.257   3.751  66.680  1.00  0.00    -0.188 A  
ENDBRANCH  26  30
ENDBRANCH  24  26
ENDBRANCH   7  22
TORSDOF 10
ENDMDL
MODEL      249
REMARK 921   NORMALIZED FREE ENERGY PREDICTED BY IDOCK:   -2.60 KCAL/MOL
REMARK 922        TOTAL FREE ENERGY PREDICTED BY IDOCK:   -5.39 KCAL/MOL
REMARK 923 INTER-LIGAND FREE ENERGY PREDICTED BY IDOCK:   -5.87 KCAL/MOL
REMARK 924 INTRA-LIGAND FREE ENERGY PREDICTED BY IDOCK:    0.49 KCAL/MOL
REMARK 927      BINDING AFFINITY PREDICTED BY RF-SCORE:    0.00 PKD
ROOT
HETATM    1  C   UNL     1      -9.027  13.203  68.700  1.00  0.00     0.049 C  
HETATM    2  S   UNL     1     -10.663  13.198  69.565  1.00  0.00     0.425 SA 
HETATM    3  C   UNL     1     -11.228  11.617  68.785  1.00  0.00    -0.245 C  
HETATM    4  C   UNL     1      -9.946  10.913  68.297  1.00  0.00    -0.175 C  
HETATM    5  C   UNL     1     -12.063  10.809  69.779  1.00  0.00    -0.389 C  
HETATM    6  C   UNL     1     -12.153  12.001  67.610  1.00  0.00     0.054 C  
HETATM    7  C   UNL     1      -8.920  13.994  67.366  1.00  0.00    -0.206 C  
HETATM    8  N   UNL     1      -9.005  11.963  67.905  1.00  0.00    -0.172 N  
HETATM    9  O   UNL     1      -9.482  12.199  65.624  1.00  0.00    -0.209 OA 
HETATM   10  C   UNL     1      -9.125  12.609  66.705  1.00  0.00    -0.193 C  
ENDROOT
BRANCH   4  11
HETATM   11  C   UNL     1      -9.226  10.005  69.317  1.00  0.00    -0.203 C  
HETATM   12  O   UNL     1      -9.762   9.331  70.188  1.00  0.00    -0.187 OA 
BRANCH  11  13
HETATM   13  O   UNL     1      -7.873  10.126  69.186  1.00  0.00    -0.098 OA 
BRANCH  13  14
HETATM   14  C   UNL     1      -7.263   9.002  68.530  1.00  0.00    -0.073 C  
HETATM   15  C   UNL     1      -6.659   8.049  69.549  1.00  0.00    -0.038 C  
BRANCH  14  16
HETATM   16  O   UNL     1      -8.274   8.262  67.832  1.00  0.00    -0.125 OA 
BRANCH  16  17
HETATM   17  C   UNL     1      -7.768   7.465  66.861  1.00  0.00    -0.110 C  
HETATM   18  O   UNL     1      -6.768   6.769  66.965  1.00  0.00    -0.055 OA 
BRANCH  17  19
HETATM   19  O   UNL     1      -8.483   7.668  65.729  1.00  0.00    -0.135 OA 
BRANCH  19  20
HETATM   20  C   UNL     1      -7.948   8.670  64.851  1.00  0.00    -0.138 C  
HETATM   21  C   UNL     1      -9.086   9.541  64.348  1.00  0.00    -0.234 C  
ENDBRANCH  19  20
ENDBRANCH  17  19
ENDBRANCH  16  17
ENDBRANCH  14  16
ENDBRANCH  13  14
ENDBRANCH  11  13
ENDBRANCH   4  11
BRANCH   7  22
HETATM   22  N   UNL     1      -9.958  15.014  67.091  1.00  0.00    -0.236 N  
HETATM   23  H   UNL     1     -10.637  15.237  67.819  1.00  0.00     0.000 HD 
HETATM   24  C   UNL     1     -10.034  15.669  65.881  1.00  0.00    -0.351 C  
HETATM   25  O   UNL     1      -9.313  15.379  64.928  1.00  0.00     0.309 OA 
BRANCH  24  26
HETATM   26  C   UNL     1     -11.105  16.783  65.822  1.00  0.00     0.201 C  
HETATM   27  N   UNL     1     -11.513  17.021  64.410  1.00  0.00    -0.951 NA 
HETATM   28  H2  UNL     1     -11.826  16.163  63.952  1.00  0.00     0.000 HD 
HETATM   29  H1  UNL     1     -12.220  17.755  64.370  1.00  0.00     0.000 HD 
BRANCH  26  30
HETATM   30  C   UNL     1     -10.634  18.052  66.508  1.00  0.00    -0.263 A  
HETATM   31  C   UNL     1     -10.174  19.128  65.732  1.00  0.00    -0.270 A  
HETATM   32  C   UNL     1      -9.722  20.304  66.334  1.00  0.00    -0.488 A  
HETATM   33  C   UNL     1      -9.730  20.425  67.722  1.00  0.00    -0.487 A  
HETATM   34  C   UNL     1     -10.203  19.376  68.507  1.00  0.00    -0.492 A  
HETATM   35  C   UNL     1     -10.660  18.201  67.905  1.00  0.00    -0.389 A  
ENDBRANCH  26  30
ENDBRANCH  24  26
ENDBRANCH   7  22
TORSDOF 10
ENDMDL
MODEL      250
REMARK 921   NORMALIZED FREE ENERGY PREDICTED BY IDOCK:   -2.60 KCAL/MOL
REMARK 922        TOTAL FREE ENERGY PREDICTED BY IDOCK:   -5.38 KCAL/MOL
REMARK 923 INTER-LIGAND FREE ENERGY PREDICTED BY IDOCK:   -5.70 KCAL/MOL
REMARK 924 INTRA-LIGAND FREE ENERGY PREDICTED BY IDOCK:    0.32 KCAL/MOL
REMARK 927      BINDING AFFINITY PREDICTED BY RF-SCORE:    0.00 PKD
ROOT
HETATM    1  C   UNL     1     -11.097  14.451  68.582  1.00  0.00    -0.251 C  
HETATM    2  S   UNL     1     -11.946  14.822  66.980  1.00  0.00    -0.078 SA 
HETATM    3  C   UNL     1     -10.934  13.619  66.004  1.00  0.00    -0.286 C  
HETATM    4  C   UNL     1     -10.348  12.634  67.036  1.00  0.00    -0.232 C  
HETATM    5  C   UNL     1     -11.791  12.970  64.916  1.00  0.00    -0.404 C  
HETATM    6  C   UNL     1      -9.828  14.431  65.296  1.00  0.00    -0.216 C  
HETATM    7  C   UNL     1      -9.899  15.354  68.988  1.00  0.00    -0.234 C  
HETATM    8  N   UNL     1     -10.123  13.391  68.267  1.00  0.00    -0.243 N  
HETATM    9  O   UNL     1      -7.903  14.087  67.997  1.00  0.00    -0.125 OA 
HETATM   10  C   UNL     1      -9.034  14.209  68.407  1.00  0.00    -0.189 C  
ENDROOT
BRANCH   4  11
HETATM   11  C   UNL     1     -11.220  11.413  67.398  1.00  0.00    -0.305 C  
HETATM   12  O   UNL     1     -12.029  10.860  66.663  1.00  0.00     0.310 OA 
BRANCH  11  13
HETATM   13  O   UNL     1     -11.044  11.076  68.708  1.00  0.00    -0.200 OA 
BRANCH  13  14
HETATM   14  C   UNL     1     -10.232   9.904  68.890  1.00  0.00    -0.196 C  
HETATM   15  C   UNL     1     -10.776   8.743  68.071  1.00  0.00    -0.151 C  
BRANCH  14  16
HETATM   16  O   UNL     1      -8.913  10.168  68.394  1.00  0.00    -0.119 OA 
BRANCH  16  17
HETATM   17  C   UNL     1      -8.002   9.253  68.804  1.00  0.00    -0.099 C  
HETATM   18  O   UNL     1      -7.702   9.024  69.967  1.00  0.00    -0.067 OA 
BRANCH  17  19
HETATM   19  O   UNL     1      -7.398   8.732  67.709  1.00  0.00    -0.086 OA 
BRANCH  19  20
HETATM   20  C   UNL     1      -6.973   7.368  67.847  1.00  0.00    -0.072 C  
HETATM   21  C   UNL     1      -7.014   6.701  66.483  1.00  0.00    -0.066 C  
ENDBRANCH  19  20
ENDBRANCH  17  19
ENDBRANCH  16  17
ENDBRANCH  14  16
ENDBRANCH  13  14
ENDBRANCH  11  13
ENDBRANCH   4  11
BRANCH   7  22
HETATM   22  N   UNL     1      -9.779  16.671  68.320  1.00  0.00    -0.237 N  
HETATM   23  H   UNL     1     -10.436  16.911  67.577  1.00  0.00     0.000 HD 
HETATM   24  C   UNL     1      -8.806  17.582  68.673  1.00  0.00    -0.255 C  
HETATM   25  O   UNL     1      -7.923  17.320  69.488  1.00  0.00     0.156 OA 
BRANCH  24  26
HETATM   26  C   UNL     1      -8.913  18.945  67.951  1.00  0.00    -0.297 C  
HETATM   27  N   UNL     1     -10.232  19.056  67.269  1.00  0.00    -0.372 NA 
HETATM   28  H2  UNL     1     -11.009  18.901  67.912  1.00  0.00     0.000 HD 
HETATM   29  H1  UNL     1     -10.303  19.955  66.793  1.00  0.00     0.000 HD 
BRANCH  26  30
HETATM   30  C   UNL     1      -7.751  19.168  67.001  1.00  0.00    -0.259 A  
HETATM   31  C   UNL     1      -6.505  18.581  67.281  1.00  0.00    -0.202 A  
HETATM   32  C   UNL     1      -5.414  18.778  66.432  1.00  0.00    -0.172 A  
HETATM   33  C   UNL     1      -5.553  19.559  65.286  1.00  0.00    -0.203 A  
HETATM   34  C   UNL     1      -6.785  20.131  64.982  1.00  0.00    -0.313 A  
HETATM   35  C   UNL     1      -7.879  19.930  65.827  1.00  0.00    -0.234 A  
ENDBRANCH  26  30
ENDBRANCH  24  26
ENDBRANCH   7  22
TORSDOF 10
ENDMDL
MODEL      251
REMARK 921   NORMALIZED FREE ENERGY PREDICTED BY IDOCK:   -2.59 KCAL/MOL
REMARK 922        TOTAL FREE ENERGY PREDICTED BY IDOCK:   -5.37 KCAL/MOL
REMARK 923 INTER-LIGAND FREE ENERGY PREDICTED BY IDOCK:   -7.45 KCAL/MOL
REMARK 924 INTRA-LIGAND FREE ENERGY PREDICTED BY IDOCK:    2.08 KCAL/MOL
REMARK 927      BINDING AFFINITY PREDICTED BY RF-SCORE:    0.00 PKD
ROOT
HETATM    1  C   UNL     1      -9.051  14.402  65.861  1.00  0.00     0.230 C  
HETATM    2  S   UNL     1      -9.382  13.620  67.506  1.00  0.00    -0.234 SA 
HETATM    3  C   UNL     1     -11.117  13.136  67.083  1.00  0.00    -0.279 C  
HETATM    4  C   UNL     1     -11.188  13.143  65.543  1.00  0.00    -0.281 C  
HETATM    5  C   UNL     1     -11.462  11.795  67.733  1.00  0.00    -0.381 C  
HETATM    6  C   UNL     1     -12.046  14.201  67.704  1.00  0.00    -0.337 C  
HETATM    7  C   UNL     1      -9.291  15.932  65.730  1.00  0.00    -0.245 C  
HETATM    8  N   UNL     1     -10.283  14.196  65.080  1.00  0.00    -0.400 N  
HETATM    9  O   UNL     1     -11.727  16.034  64.937  1.00  0.00    -0.053 OA 
HETATM   10  C   UNL     1     -10.650  15.513  65.118  1.00  0.00    -0.431 C  
ENDROOT
BRANCH   4  11
HETATM   11  C   UNL     1     -10.783  11.838  64.826  1.00  0.00    -0.302 C  
HETATM   12  O   UNL     1     -11.439  11.246  63.978  1.00  0.00    -0.241 OA 
BRANCH  11  13
HETATM   13  O   UNL     1      -9.613  11.358  65.341  1.00  0.00    -0.220 OA 
BRANCH  13  14
HETATM   14  C   UNL     1      -9.382   9.974  65.034  1.00  0.00    -0.256 C  
HETATM   15  C   UNL     1      -8.395   9.836  63.885  1.00  0.00    -0.173 C  
BRANCH  14  16
HETATM   16  O   UNL     1      -8.777   9.338  66.168  1.00  0.00    -0.138 OA 
BRANCH  16  17
HETATM   17  C   UNL     1      -7.769  10.065  66.705  1.00  0.00    -0.103 C  
HETATM   18  O   UNL     1      -7.870  10.815  67.666  1.00  0.00    -0.107 OA 
BRANCH  17  19
HETATM   19  O   UNL     1      -6.673   9.916  65.923  1.00  0.00    -0.086 OA 
BRANCH  19  20
HETATM   20  C   UNL     1      -5.628  10.871  66.163  1.00  0.00    -0.134 C  
HETATM   21  C   UNL     1      -6.226  12.096  66.833  1.00  0.00    -0.011 C  
ENDBRANCH  19  20
ENDBRANCH  17  19
ENDBRANCH  16  17
ENDBRANCH  14  16
ENDBRANCH  13  14
ENDBRANCH  11  13
ENDBRANCH   4  11
BRANCH   7  22
HETATM   22  N   UNL     1      -9.349  16.724  66.981  1.00  0.00    -0.228 N  
HETATM   23  H   UNL     1      -9.065  16.287  67.857  1.00  0.00     0.000 HD 
HETATM   24  C   UNL     1      -9.776  18.035  66.993  1.00  0.00    -0.303 C  
HETATM   25  O   UNL     1     -10.226  18.592  65.994  1.00  0.00    -0.479 OA 
BRANCH  24  26
HETATM   26  C   UNL     1      -9.654  18.734  68.368  1.00  0.00    -0.365 C  
HETATM   27  N   UNL     1     -10.819  19.636  68.583  1.00  0.00    -0.186 NA 
HETATM   28  H2  UNL     1     -11.707  19.145  68.480  1.00  0.00     0.000 HD 
HETATM   29  H1  UNL     1     -10.739  20.097  69.489  1.00  0.00     0.000 HD 
BRANCH  26  30
HETATM   30  C   UNL     1      -8.328  19.458  68.513  1.00  0.00    -0.399 A  
HETATM   31  C   UNL     1      -8.024  20.524  67.650  1.00  0.00    -0.254 A  
HETATM   32  C   UNL     1      -6.807  21.202  67.751  1.00  0.00    -0.229 A  
HETATM   33  C   UNL     1      -5.879  20.829  68.721  1.00  0.00    -0.389 A  
HETATM   34  C   UNL     1      -6.173  19.789  69.599  1.00  0.00    -0.365 A  
HETATM   35  C   UNL     1      -7.392  19.114  69.502  1.00  0.00    -0.071 A  
ENDBRANCH  26  30
ENDBRANCH  24  26
ENDBRANCH   7  22
TORSDOF 10
ENDMDL
MODEL      252
REMARK 921   NORMALIZED FREE ENERGY PREDICTED BY IDOCK:   -2.57 KCAL/MOL
REMARK 922        TOTAL FREE ENERGY PREDICTED BY IDOCK:   -5.33 KCAL/MOL
REMARK 923 INTER-LIGAND FREE ENERGY PREDICTED BY IDOCK:   -4.89 KCAL/MOL
REMARK 924 INTRA-LIGAND FREE ENERGY PREDICTED BY IDOCK:   -0.44 KCAL/MOL
REMARK 927      BINDING AFFINITY PREDICTED BY RF-SCORE:    0.00 PKD
ROOT
HETATM    1  C   UNL     1     -10.637   6.277  69.580  1.00  0.00    -0.264 C  
HETATM    2  S   UNL     1      -9.198   6.305  70.745  1.00  0.00    -0.154 SA 
HETATM    3  C   UNL     1      -8.922   8.127  70.582  1.00  0.00    -0.149 C  
HETATM    4  C   UNL     1     -10.249   8.703  70.047  1.00  0.00    -0.194 C  
HETATM    5  C   UNL     1      -8.465   8.712  71.919  1.00  0.00    -0.210 C  
HETATM    6  C   UNL     1      -7.767   8.320  69.576  1.00  0.00    -0.101 C  
HETATM    7  C   UNL     1     -10.349   5.953  68.087  1.00  0.00    -0.210 C  
HETATM    8  N   UNL     1     -10.838   7.681  69.181  1.00  0.00    -0.132 N  
HETATM    9  O   UNL     1      -9.984   8.284  67.086  1.00  0.00    -0.191 OA 
HETATM   10  C   UNL     1     -10.388   7.489  67.903  1.00  0.00    -0.210 C  
ENDROOT
BRANCH   4  11
HETATM   11  C   UNL     1     -11.311   9.085  71.099  1.00  0.00    -0.307 C  
HETATM   12  O   UNL     1     -11.565   8.467  72.127  1.00  0.00    -0.322 OA 
BRANCH  11  13
HETATM   13  O   UNL     1     -12.020  10.175  70.684  1.00  0.00    -0.289 OA 
BRANCH  13  14
HETATM   14  C   UNL     1     -11.270  11.046  69.822  1.00  0.00    -0.268 C  
HETATM   15  C   UNL     1     -12.059  11.362  68.561  1.00  0.00    -0.168 C  
BRANCH  14  16
HETATM   16  O   UNL     1     -11.057  12.296  70.491  1.00  0.00     0.774 OA 
BRANCH  16  17
HETATM   17  C   UNL     1     -12.211  12.940  70.786  1.00  0.00    -0.260 C  
HETATM   18  O   UNL     1     -13.011  12.603  71.648  1.00  0.00    -0.374 OA 
BRANCH  17  19
HETATM   19  O   UNL     1     -12.385  13.937  69.885  1.00  0.00    -0.332 OA 
BRANCH  19  20
HETATM   20  C   UNL     1     -12.674  15.221  70.457  1.00  0.00    -0.390 C  
HETATM   21  C   UNL     1     -11.366  15.914  70.796  1.00  0.00    -0.424 C  
ENDBRANCH  19  20
ENDBRANCH  17  19
ENDBRANCH  16  17
ENDBRANCH  14  16
ENDBRANCH  13  14
ENDBRANCH  11  13
ENDBRANCH   4  11
BRANCH   7  22
HETATM   22  N   UNL     1      -9.065   5.285  67.769  1.00  0.00    -0.109 N  
HETATM   23  H   UNL     1      -8.202   5.658  68.164  1.00  0.00     0.000 HD 
HETATM   24  C   UNL     1      -9.005   4.174  66.954  1.00  0.00    -0.127 C  
HETATM   25  O   UNL     1      -9.991   3.733  66.366  1.00  0.00    -0.124 OA 
BRANCH  24  26
HETATM   26  C   UNL     1      -7.597   3.546  66.834  1.00  0.00    -0.079 C  
HETATM   27  N   UNL     1      -7.588   2.524  65.751  1.00  0.00    -0.074 NA 
HETATM   28  H2  UNL     1      -7.915   2.905  64.863  1.00  0.00     0.000 HD 
HETATM   29  H1  UNL     1      -6.660   2.108  65.671  1.00  0.00     0.000 HD 
BRANCH  26  30
HETATM   30  C   UNL     1      -7.118   2.986  68.161  1.00  0.00    -0.049 A  
HETATM   31  C   UNL     1      -5.945   3.495  68.743  1.00  0.00    -0.024 A  
HETATM   32  C   UNL     1      -5.472   2.992  69.956  1.00  0.00    -0.016 A  
HETATM   33  C   UNL     1      -6.167   1.978  70.611  1.00  0.00    -0.023 A  
HETATM   34  C   UNL     1      -7.343   1.476  70.059  1.00  0.00    -0.036 A  
HETATM   35  C   UNL     1      -7.820   1.982  68.847  1.00  0.00    -0.052 A  
ENDBRANCH  26  30
ENDBRANCH  24  26
ENDBRANCH   7  22
TORSDOF 10
ENDMDL
MODEL      253
REMARK 921   NORMALIZED FREE ENERGY PREDICTED BY IDOCK:   -2.52 KCAL/MOL
REMARK 922        TOTAL FREE ENERGY PREDICTED BY IDOCK:   -5.25 KCAL/MOL
REMARK 923 INTER-LIGAND FREE ENERGY PREDICTED BY IDOCK:   -5.74 KCAL/MOL
REMARK 924 INTRA-LIGAND FREE ENERGY PREDICTED BY IDOCK:    0.49 KCAL/MOL
REMARK 927      BINDING AFFINITY PREDICTED BY RF-SCORE:    0.00 PKD
ROOT
HETATM    1  C   UNL     1      -9.566   9.341  70.861  1.00  0.00    -0.269 C  
HETATM    2  S   UNL     1      -8.682   9.666  69.268  1.00  0.00    -0.172 SA 
HETATM    3  C   UNL     1     -10.230   9.697  68.253  1.00  0.00    -0.186 C  
HETATM    4  C   UNL     1     -11.376   9.962  69.252  1.00  0.00    -0.067 C  
HETATM    5  C   UNL     1     -10.105  10.732  67.134  1.00  0.00    -0.243 C  
HETATM    6  C   UNL     1     -10.360   8.311  67.587  1.00  0.00    -0.313 C  
HETATM    7  C   UNL     1      -9.718   7.861  71.312  1.00  0.00    -0.157 C  
HETATM    8  N   UNL     1     -10.998   9.325  70.513  1.00  0.00    -0.248 N  
HETATM    9  O   UNL     1     -11.976   7.209  70.288  1.00  0.00    -0.198 OA 
HETATM   10  C   UNL     1     -11.132   7.976  70.694  1.00  0.00    -0.262 C  
ENDROOT
BRANCH   4  11
HETATM   11  C   UNL     1     -11.696  11.440  69.558  1.00  0.00    -0.348 C  
HETATM   12  O   UNL     1     -11.903  11.920  70.666  1.00  0.00    -0.280 OA 
BRANCH  11  13
HETATM   13  O   UNL     1     -11.820  12.149  68.398  1.00  0.00    -0.319 OA 
BRANCH  13  14
HETATM   14  C   UNL     1     -11.601  13.559  68.567  1.00  0.00    -0.333 C  
HETATM   15  C   UNL     1     -12.405  14.090  69.743  1.00  0.00    -0.344 C  
BRANCH  14  16
HETATM   16  O   UNL     1     -10.220  13.783  68.885  1.00  0.00    -0.201 OA 
BRANCH  16  17
HETATM   17  C   UNL     1      -9.679  14.812  68.191  1.00  0.00    -0.217 C  
HETATM   18  O   UNL     1     -10.204  15.384  67.246  1.00  0.00    -0.247 OA 
BRANCH  17  19
HETATM   19  O   UNL     1      -8.417  15.010  68.640  1.00  0.00    -0.152 OA 
BRANCH  19  20
HETATM   20  C   UNL     1      -7.393  14.867  67.643  1.00  0.00    -0.187 C  
HETATM   21  C   UNL     1      -7.016  13.400  67.534  1.00  0.00    -0.153 C  
ENDBRANCH  19  20
ENDBRANCH  17  19
ENDBRANCH  16  17
ENDBRANCH  14  16
ENDBRANCH  13  14
ENDBRANCH  11  13
ENDBRANCH   4  11
BRANCH   7  22
HETATM   22  N   UNL     1      -8.811   6.863  70.697  1.00  0.00    -0.150 N  
HETATM   23  H   UNL     1      -9.146   6.311  69.907  1.00  0.00     0.000 HD 
HETATM   24  C   UNL     1      -7.528   6.661  71.161  1.00  0.00    -0.084 C  
HETATM   25  O   UNL     1      -7.096   7.219  72.167  1.00  0.00    -0.066 OA 
BRANCH  24  26
HETATM   26  C   UNL     1      -6.693   5.668  70.319  1.00  0.00    -0.048 C  
HETATM   27  N   UNL     1      -5.241   5.914  70.538  1.00  0.00    -0.012 NA 
HETATM   28  H2  UNL     1      -4.992   5.882  71.528  1.00  0.00     0.000 HD 
HETATM   29  H1  UNL     1      -4.689   5.259  69.984  1.00  0.00     0.000 HD 
BRANCH  26  30
HETATM   30  C   UNL     1      -7.073   5.719  68.851  1.00  0.00    -0.073 A  
HETATM   31  C   UNL     1      -6.581   6.760  68.045  1.00  0.00    -0.059 A  
HETATM   32  C   UNL     1      -6.922   6.842  66.694  1.00  0.00    -0.066 A  
HETATM   33  C   UNL     1      -7.754   5.880  66.124  1.00  0.00    -0.102 A  
HETATM   34  C   UNL     1      -8.233   4.829  66.903  1.00  0.00    -0.107 A  
HETATM   35  C   UNL     1      -7.888   4.744  68.254  1.00  0.00    -0.081 A  
ENDBRANCH  26  30
ENDBRANCH  24  26
ENDBRANCH   7  22
TORSDOF 10
ENDMDL
MODEL      254
REMARK 921   NORMALIZED FREE ENERGY PREDICTED BY IDOCK:   -2.36 KCAL/MOL
REMARK 922        TOTAL FREE ENERGY PREDICTED BY IDOCK:   -4.99 KCAL/MOL
REMARK 923 INTER-LIGAND FREE ENERGY PREDICTED BY IDOCK:   -5.59 KCAL/MOL
REMARK 924 INTRA-LIGAND FREE ENERGY PREDICTED BY IDOCK:    0.59 KCAL/MOL
REMARK 927      BINDING AFFINITY PREDICTED BY RF-SCORE:    0.00 PKD
ROOT
HETATM    1  C   UNL     1      -9.421   9.364  70.384  1.00  0.00    -0.268 C  
HETATM    2  S   UNL     1      -8.010  10.275  69.608  1.00  0.00    -0.118 SA 
HETATM    3  C   UNL     1      -8.869  10.507  67.985  1.00  0.00    -0.131 C  
HETATM    4  C   UNL     1     -10.372  10.326  68.281  1.00  0.00    -0.181 C  
HETATM    5  C   UNL     1      -8.495  11.861  67.381  1.00  0.00    -0.166 C  
HETATM    6  C   UNL     1      -8.337   9.414  67.033  1.00  0.00    -0.127 C  
HETATM    7  C   UNL     1      -9.401   7.811  70.317  1.00  0.00    -0.156 C  
HETATM    8  N   UNL     1     -10.478   9.341  69.358  1.00  0.00    -0.214 N  
HETATM    9  O   UNL     1     -10.697   7.344  68.155  1.00  0.00    -0.186 OA 
HETATM   10  C   UNL     1     -10.351   8.002  69.109  1.00  0.00    -0.220 C  
ENDROOT
BRANCH   4  11
HETATM   11  C   UNL     1     -11.144  11.585  68.727  1.00  0.00    -0.233 C  
HETATM   12  O   UNL     1     -11.073  12.125  69.825  1.00  0.00    -0.075 OA 
BRANCH  11  13
HETATM   13  O   UNL     1     -12.015  11.977  67.752  1.00  0.00    -0.538 OA 
BRANCH  13  14
HETATM   14  C   UNL     1     -11.586  13.153  67.046  1.00  0.00    -0.359 C  
HETATM   15  C   UNL     1     -12.277  13.249  65.695  1.00  0.00    -0.514 C  
BRANCH  14  16
HETATM   16  O   UNL     1     -11.982  14.314  67.788  1.00  0.00    -0.371 OA 
BRANCH  16  17
HETATM   17  C   UNL     1     -10.963  15.183  67.992  1.00  0.00    -0.295 C  
HETATM   18  O   UNL     1      -9.941  14.943  68.618  1.00  0.00    -0.211 OA 
BRANCH  17  19
HETATM   19  O   UNL     1     -11.327  16.390  67.495  1.00  0.00    -0.100 OA 
BRANCH  19  20
HETATM   20  C   UNL     1     -10.293  17.386  67.515  1.00  0.00    -0.351 C  
HETATM   21  C   UNL     1     -10.919  18.737  67.813  1.00  0.00    -0.204 C  
ENDBRANCH  19  20
ENDBRANCH  17  19
ENDBRANCH  16  17
ENDBRANCH  14  16
ENDBRANCH  13  14
ENDBRANCH  11  13
ENDBRANCH   4  11
BRANCH   7  22
HETATM   22  N   UNL     1      -8.102   7.157  70.035  1.00  0.00    -0.125 N  
HETATM   23  H   UNL     1      -7.254   7.542  70.450  1.00  0.00     0.000 HD 
HETATM   24  C   UNL     1      -8.008   6.043  69.228  1.00  0.00    -0.103 C  
HETATM   25  O   UNL     1      -8.973   5.587  68.617  1.00  0.00    -0.113 OA 
BRANCH  24  26
HETATM   26  C   UNL     1      -6.590   5.430  69.147  1.00  0.00    -0.051 C  
HETATM   27  N   UNL     1      -6.166   5.317  67.725  1.00  0.00    -0.036 NA 
HETATM   28  H2  UNL     1      -6.226   6.211  67.236  1.00  0.00     0.000 HD 
HETATM   29  H1  UNL     1      -5.231   4.913  67.671  1.00  0.00     0.000 HD 
BRANCH  26  30
HETATM   30  C   UNL     1      -6.510   4.103  69.881  1.00  0.00    -0.032 A  
HETATM   31  C   UNL     1      -7.570   3.187  69.771  1.00  0.00    -0.044 A  
HETATM   32  C   UNL     1      -7.531   1.964  70.442  1.00  0.00    -0.036 A  
HETATM   33  C   UNL     1      -6.430   1.634  71.229  1.00  0.00    -0.019 A  
HETATM   34  C   UNL     1      -5.361   2.521  71.332  1.00  0.00    -0.004 A  
HETATM   35  C   UNL     1      -5.396   3.743  70.657  1.00  0.00    -0.004 A  
ENDBRANCH  26  30
ENDBRANCH  24  26
ENDBRANCH   7  22
TORSDOF 10
ENDMDL
MODEL      255
REMARK 921   NORMALIZED FREE ENERGY PREDICTED BY IDOCK:   -2.33 KCAL/MOL
REMARK 922        TOTAL FREE ENERGY PREDICTED BY IDOCK:   -4.95 KCAL/MOL
REMARK 923 INTER-LIGAND FREE ENERGY PREDICTED BY IDOCK:   -4.40 KCAL/MOL
REMARK 924 INTRA-LIGAND FREE ENERGY PREDICTED BY IDOCK:   -0.55 KCAL/MOL
REMARK 927      BINDING AFFINITY PREDICTED BY RF-SCORE:    0.00 PKD
ROOT
HETATM    1  C   UNL     1      -7.242   7.947  66.938  1.00  0.00    -0.089 C  
HETATM    2  S   UNL     1      -8.467   7.987  68.325  1.00  0.00    -0.123 SA 
HETATM    3  C   UNL     1      -9.827   7.217  67.333  1.00  0.00    -0.159 C  
HETATM    4  C   UNL     1      -9.131   6.508  66.154  1.00  0.00    -0.124 C  
HETATM    5  C   UNL     1     -10.673   6.304  68.220  1.00  0.00    -0.356 C  
HETATM    6  C   UNL     1     -10.739   8.367  66.852  1.00  0.00    -0.163 C  
HETATM    7  C   UNL     1      -7.116   9.217  66.051  1.00  0.00    -0.090 C  
HETATM    8  N   UNL     1      -7.948   7.300  65.818  1.00  0.00    -0.115 N  
HETATM    9  O   UNL     1      -8.791   8.736  64.171  1.00  0.00    -0.067 OA 
HETATM   10  C   UNL     1      -8.051   8.450  65.084  1.00  0.00    -0.147 C  
ENDROOT
BRANCH   4  11
HETATM   11  C   UNL     1      -8.661   5.058  66.401  1.00  0.00    -0.114 C  
HETATM   12  O   UNL     1      -9.043   4.063  65.797  1.00  0.00    -0.129 OA 
BRANCH  11  13
HETATM   13  O   UNL     1      -7.815   5.010  67.470  1.00  0.00    -0.094 OA 
BRANCH  13  14
HETATM   14  C   UNL     1      -6.485   4.590  67.125  1.00  0.00    -0.042 C  
HETATM   15  C   UNL     1      -5.517   4.889  68.259  1.00  0.00    -0.015 C  
BRANCH  14  16
HETATM   16  O   UNL     1      -6.475   3.167  66.947  1.00  0.00    -0.035 OA 
BRANCH  16  17
HETATM   17  C   UNL     1      -5.835   2.782  65.817  1.00  0.00    -0.019 C  
HETATM   18  O   UNL     1      -5.426   1.653  65.584  1.00  0.00    -0.008 OA 
BRANCH  17  19
HETATM   19  O   UNL     1      -5.619   3.880  65.054  1.00  0.00    -0.013 OA 
BRANCH  19  20
HETATM   20  C   UNL     1      -6.246   3.850  63.763  1.00  0.00    -0.022 C  
HETATM   21  C   UNL     1      -6.276   5.259  63.199  1.00  0.00    -0.021 C  
ENDBRANCH  19  20
ENDBRANCH  17  19
ENDBRANCH  16  17
ENDBRANCH  14  16
ENDBRANCH  13  14
ENDBRANCH  11  13
ENDBRANCH   4  11
BRANCH   7  22
HETATM   22  N   UNL     1      -7.641  10.489  66.601  1.00  0.00    -0.114 N  
HETATM   23  H   UNL     1      -8.647  10.656  66.589  1.00  0.00     0.000 HD 
HETATM   24  C   UNL     1      -6.808  11.453  67.129  1.00  0.00    -0.124 C  
HETATM   25  O   UNL     1      -5.583  11.361  67.085  1.00  0.00    -0.061 OA 
BRANCH  24  26
HETATM   26  C   UNL     1      -7.544  12.656  67.764  1.00  0.00    -0.141 C  
HETATM   27  N   UNL     1      -7.282  12.697  69.229  1.00  0.00    -0.320 NA 
HETATM   28  H2  UNL     1      -6.283  12.704  69.438  1.00  0.00     0.000 HD 
HETATM   29  H1  UNL     1      -7.767  13.490  69.648  1.00  0.00     0.000 HD 
BRANCH  26  30
HETATM   30  C   UNL     1      -9.027  12.639  67.443  1.00  0.00    -0.190 A  
HETATM   31  C   UNL     1      -9.922  12.034  68.341  1.00  0.00    -0.209 A  
HETATM   32  C   UNL     1     -11.291  11.991  68.068  1.00  0.00    -0.358 A  
HETATM   33  C   UNL     1     -11.788  12.560  66.897  1.00  0.00    -0.404 A  
HETATM   34  C   UNL     1     -10.917  13.183  66.006  1.00  0.00    -0.295 A  
HETATM   35  C   UNL     1      -9.549  13.230  66.280  1.00  0.00    -0.244 A  
ENDBRANCH  26  30
ENDBRANCH  24  26
ENDBRANCH   7  22
TORSDOF 10
ENDMDL
MODEL      256
REMARK 921   NORMALIZED FREE ENERGY PREDICTED BY IDOCK:   -2.33 KCAL/MOL
REMARK 922        TOTAL FREE ENERGY PREDICTED BY IDOCK:   -4.95 KCAL/MOL
REMARK 923 INTER-LIGAND FREE ENERGY PREDICTED BY IDOCK:   -5.43 KCAL/MOL
REMARK 924 INTRA-LIGAND FREE ENERGY PREDICTED BY IDOCK:    0.48 KCAL/MOL
REMARK 927      BINDING AFFINITY PREDICTED BY RF-SCORE:    0.00 PKD
ROOT
HETATM    1  C   UNL     1      -9.165  13.551  68.805  1.00  0.00     0.082 C  
HETATM    2  S   UNL     1     -10.869  13.522  69.527  1.00  0.00     0.224 SA 
HETATM    3  C   UNL     1     -11.329  11.914  68.735  1.00  0.00    -0.274 C  
HETATM    4  C   UNL     1      -9.993  11.232  68.373  1.00  0.00    -0.197 C  
HETATM    5  C   UNL     1     -12.227  11.105  69.671  1.00  0.00    -0.360 C  
HETATM    6  C   UNL     1     -12.158  12.253  67.478  1.00  0.00    -0.022 C  
HETATM    7  C   UNL     1      -8.962  14.319  67.469  1.00  0.00    -0.196 C  
HETATM    8  N   UNL     1      -9.047  12.297  68.041  1.00  0.00    -0.185 N  
HETATM    9  O   UNL     1      -9.332  12.478  65.723  1.00  0.00    -0.129 OA 
HETATM   10  C   UNL     1      -9.078  12.917  66.822  1.00  0.00    -0.211 C  
ENDROOT
BRANCH   4  11
HETATM   11  C   UNL     1      -9.343  10.362  69.469  1.00  0.00    -0.127 C  
HETATM   12  O   UNL     1      -9.911   9.884  70.444  1.00  0.00    -0.259 OA 
BRANCH  11  13
HETATM   13  O   UNL     1      -7.997  10.267  69.263  1.00  0.00    -0.123 OA 
BRANCH  13  14
HETATM   14  C   UNL     1      -7.612   9.079  68.554  1.00  0.00    -0.093 C  
HETATM   15  C   UNL     1      -6.195   9.210  68.018  1.00  0.00    -0.051 C  
BRANCH  14  16
HETATM   16  O   UNL     1      -7.601   7.972  69.466  1.00  0.00    -0.096 OA 
BRANCH  16  17
HETATM   17  C   UNL     1      -8.614   7.099  69.248  1.00  0.00    -0.137 C  
HETATM   18  O   UNL     1      -8.716   6.359  68.280  1.00  0.00    -0.118 OA 
BRANCH  17  19
HETATM   19  O   UNL     1      -9.546   7.280  70.214  1.00  0.00    -0.166 OA 
BRANCH  19  20
HETATM   20  C   UNL     1     -10.272   6.096  70.579  1.00  0.00    -0.199 C  
HETATM   21  C   UNL     1      -9.329   5.141  71.289  1.00  0.00    -0.192 C  
ENDBRANCH  19  20
ENDBRANCH  17  19
ENDBRANCH  16  17
ENDBRANCH  14  16
ENDBRANCH  13  14
ENDBRANCH  11  13
ENDBRANCH   4  11
BRANCH   7  22
HETATM   22  N   UNL     1      -9.996  15.308  67.085  1.00  0.00    -0.232 N  
HETATM   23  H   UNL     1     -10.749  15.516  67.741  1.00  0.00     0.000 HD 
HETATM   24  C   UNL     1      -9.970  15.955  65.868  1.00  0.00    -0.349 C  
HETATM   25  O   UNL     1      -9.151  15.680  64.993  1.00  0.00     0.508 OA 
BRANCH  24  26
HETATM   26  C   UNL     1     -11.060  17.037  65.696  1.00  0.00     0.217 C  
HETATM   27  N   UNL     1     -11.395  17.196  64.253  1.00  0.00    -0.947 NA 
HETATM   28  H2  UNL     1     -11.662  16.310  63.823  1.00  0.00     0.000 HD 
HETATM   29  H1  UNL     1     -12.114  17.910  64.139  1.00  0.00     0.000 HD 
BRANCH  26  30
HETATM   30  C   UNL     1     -10.656  18.350  66.342  1.00  0.00    -0.342 A  
HETATM   31  C   UNL     1     -10.376  19.463  65.532  1.00  0.00    -0.098 A  
HETATM   32  C   UNL     1      -9.990  20.680  66.096  1.00  0.00     0.037 A  
HETATM   33  C   UNL     1      -9.883  20.806  67.479  1.00  0.00    -0.409 A  
HETATM   34  C   UNL     1     -10.177  19.719  68.299  1.00  0.00    -0.569 A  
HETATM   35  C   UNL     1     -10.569  18.502  67.736  1.00  0.00    -0.422 A  
ENDBRANCH  26  30
ENDBRANCH  24  26
ENDBRANCH   7  22
TORSDOF 10
ENDMDL
MODEL      257
REMARK 921   NORMALIZED FREE ENERGY PREDICTED BY IDOCK:   -2.32 KCAL/MOL
REMARK 922        TOTAL FREE ENERGY PREDICTED BY IDOCK:   -4.93 KCAL/MOL
REMARK 923 INTER-LIGAND FREE ENERGY PREDICTED BY IDOCK:   -6.16 KCAL/MOL
REMARK 924 INTRA-LIGAND FREE ENERGY PREDICTED BY IDOCK:    1.23 KCAL/MOL
REMARK 927      BINDING AFFINITY PREDICTED BY RF-SCORE:    0.00 PKD
ROOT
HETATM    1  C   UNL     1      -8.784  14.980  69.207  1.00  0.00    -0.161 C  
HETATM    2  S   UNL     1     -10.124  15.684  68.142  1.00  0.00    -0.224 SA 
HETATM    3  C   UNL     1      -9.768  14.565  66.712  1.00  0.00    -0.260 C  
HETATM    4  C   UNL     1      -8.983  13.375  67.300  1.00  0.00    -0.221 C  
HETATM    5  C   UNL     1     -11.069  14.186  66.003  1.00  0.00    -0.314 C  
HETATM    6  C   UNL     1      -8.916  15.374  65.709  1.00  0.00     0.107 C  
HETATM    7  C   UNL     1      -7.401  15.687  69.187  1.00  0.00    -0.187 C  
HETATM    8  N   UNL     1      -8.183  13.898  68.408  1.00  0.00    -0.151 N  
HETATM    9  O   UNL     1      -6.167  14.415  67.334  1.00  0.00    -0.334 OA 
HETATM   10  C   UNL     1      -7.016  14.575  68.181  1.00  0.00    -0.122 C  
ENDROOT
BRANCH   4  11
HETATM   11  C   UNL     1      -9.820  12.200  67.848  1.00  0.00    -0.199 C  
HETATM   12  O   UNL     1     -10.506  12.214  68.863  1.00  0.00    -0.199 OA 
BRANCH  11  13
HETATM   13  O   UNL     1      -9.617  11.081  67.093  1.00  0.00    -0.167 OA 
BRANCH  13  14
HETATM   14  C   UNL     1      -8.529  10.268  67.562  1.00  0.00    -0.118 C  
HETATM   15  C   UNL     1      -8.999   9.323  68.657  1.00  0.00    -0.132 C  
BRANCH  14  16
HETATM   16  O   UNL     1      -8.065   9.443  66.485  1.00  0.00    -0.110 OA 
BRANCH  16  17
HETATM   17  C   UNL     1      -7.949   8.138  66.832  1.00  0.00    -0.104 C  
HETATM   18  O   UNL     1      -8.245   7.665  67.920  1.00  0.00    -0.121 OA 
BRANCH  17  19
HETATM   19  O   UNL     1      -7.337   7.481  65.818  1.00  0.00    -0.067 OA 
BRANCH  19  20
HETATM   20  C   UNL     1      -6.837   8.324  64.769  1.00  0.00    -0.067 C  
HETATM   21  C   UNL     1      -7.754   8.205  63.564  1.00  0.00    -0.143 C  
ENDBRANCH  19  20
ENDBRANCH  17  19
ENDBRANCH  16  17
ENDBRANCH  14  16
ENDBRANCH  13  14
ENDBRANCH  11  13
ENDBRANCH   4  11
BRANCH   7  22
HETATM   22  N   UNL     1      -7.352  17.078  68.678  1.00  0.00    -0.217 N  
HETATM   23  H   UNL     1      -7.769  17.288  67.771  1.00  0.00     0.000 HD 
HETATM   24  C   UNL     1      -6.761  18.096  69.396  1.00  0.00    -0.167 C  
HETATM   25  O   UNL     1      -6.154  17.896  70.446  1.00  0.00    -0.077 OA 
BRANCH  24  26
HETATM   26  C   UNL     1      -6.914  19.498  68.762  1.00  0.00    -0.336 C  
HETATM   27  N   UNL     1      -6.675  20.549  69.789  1.00  0.00    -0.057 NA 
HETATM   28  H2  UNL     1      -5.773  20.434  70.252  1.00  0.00     0.000 HD 
HETATM   29  H1  UNL     1      -6.776  21.474  69.372  1.00  0.00     0.000 HD 
BRANCH  26  30
HETATM   30  C   UNL     1      -8.256  19.659  68.072  1.00  0.00    -0.347 A  
HETATM   31  C   UNL     1      -9.418  19.810  68.847  1.00  0.00    -0.310 A  
HETATM   32  C   UNL     1     -10.669  19.948  68.243  1.00  0.00    -0.112 A  
HETATM   33  C   UNL     1     -10.778  19.943  66.854  1.00  0.00    -0.471 A  
HETATM   34  C   UNL     1      -9.634  19.816  66.069  1.00  0.00    -0.425 A  
HETATM   35  C   UNL     1      -8.381  19.683  66.673  1.00  0.00    -0.349 A  
ENDBRANCH  26  30
ENDBRANCH  24  26
ENDBRANCH   7  22
TORSDOF 10
ENDMDL
MODEL      258
REMARK 921   NORMALIZED FREE ENERGY PREDICTED BY IDOCK:   -2.28 KCAL/MOL
REMARK 922        TOTAL FREE ENERGY PREDICTED BY IDOCK:   -4.87 KCAL/MOL
REMARK 923 INTER-LIGAND FREE ENERGY PREDICTED BY IDOCK:   -6.76 KCAL/MOL
REMARK 924 INTRA-LIGAND FREE ENERGY PREDICTED BY IDOCK:    1.89 KCAL/MOL
REMARK 927      BINDING AFFINITY PREDICTED BY RF-SCORE:    0.00 PKD
ROOT
HETATM    1  C   UNL     1     -11.328  14.412  68.073  1.00  0.00    -0.294 C  
HETATM    2  S   UNL     1     -12.305  15.257  66.748  1.00  0.00     1.105 SA 
HETATM    3  C   UNL     1     -11.310  14.541  65.361  1.00  0.00    -0.341 C  
HETATM    4  C   UNL     1     -10.607  13.302  65.951  1.00  0.00    -0.281 C  
HETATM    5  C   UNL     1     -12.211  14.254  64.160  1.00  0.00    -0.410 C  
HETATM    6  C   UNL     1     -10.296  15.623  64.930  1.00  0.00    -0.164 C  
HETATM    7  C   UNL     1     -10.147  15.197  68.709  1.00  0.00    -0.226 C  
HETATM    8  N   UNL     1     -10.330  13.597  67.357  1.00  0.00    -0.243 N  
HETATM    9  O   UNL     1      -8.170  14.494  67.236  1.00  0.00    -0.192 OA 
HETATM   10  C   UNL     1      -9.274  14.387  67.720  1.00  0.00    -0.192 C  
ENDROOT
BRANCH   4  11
HETATM   11  C   UNL     1     -11.393  11.975  65.904  1.00  0.00    -0.337 C  
HETATM   12  O   UNL     1     -12.106  11.589  64.985  1.00  0.00    -0.019 OA 
BRANCH  11  13
HETATM   13  O   UNL     1     -11.269  11.308  67.089  1.00  0.00    -0.293 OA 
BRANCH  13  14
HETATM   14  C   UNL     1     -10.330  10.222  67.034  1.00  0.00    -0.243 C  
HETATM   15  C   UNL     1      -9.506  10.160  68.311  1.00  0.00    -0.147 C  
BRANCH  14  16
HETATM   16  O   UNL     1     -11.050   8.984  66.956  1.00  0.00     0.053 OA 
BRANCH  16  17
HETATM   17  C   UNL     1     -10.247   7.899  67.069  1.00  0.00    -0.312 C  
HETATM   18  O   UNL     1      -9.304   7.635  66.336  1.00  0.00    -0.181 OA 
BRANCH  17  19
HETATM   19  O   UNL     1     -10.744   7.102  68.044  1.00  0.00    -0.207 OA 
BRANCH  19  20
HETATM   20  C   UNL     1      -9.769   6.286  68.711  1.00  0.00    -0.128 C  
HETATM   21  C   UNL     1     -10.300   5.907  70.082  1.00  0.00    -0.305 C  
ENDBRANCH  19  20
ENDBRANCH  17  19
ENDBRANCH  16  17
ENDBRANCH  14  16
ENDBRANCH  13  14
ENDBRANCH  11  13
ENDBRANCH   4  11
BRANCH   7  22
HETATM   22  N   UNL     1     -10.137  16.669  68.541  1.00  0.00    -0.252 N  
HETATM   23  H   UNL     1     -10.938  17.210  68.868  1.00  0.00     0.000 HD 
HETATM   24  C   UNL     1      -9.076  17.329  67.957  1.00  0.00    -0.249 C  
HETATM   25  O   UNL     1      -8.127  16.733  67.452  1.00  0.00    -0.164 OA 
BRANCH  24  26
HETATM   26  C   UNL     1      -9.192  18.871  67.978  1.00  0.00    -0.307 C  
HETATM   27  N   UNL     1      -9.886  19.344  66.748  1.00  0.00    -0.336 NA 
HETATM   28  H2  UNL     1     -10.793  18.893  66.623  1.00  0.00     0.000 HD 
HETATM   29  H1  UNL     1      -9.962  20.361  66.761  1.00  0.00     0.000 HD 
BRANCH  26  30
HETATM   30  C   UNL     1      -7.839  19.532  68.169  1.00  0.00    -0.347 A  
HETATM   31  C   UNL     1      -6.989  19.083  69.193  1.00  0.00    -0.346 A  
HETATM   32  C   UNL     1      -5.744  19.679  69.402  1.00  0.00    -0.265 A  
HETATM   33  C   UNL     1      -5.326  20.728  68.585  1.00  0.00    -0.347 A  
HETATM   34  C   UNL     1      -6.147  21.171  67.551  1.00  0.00    -0.420 A  
HETATM   35  C   UNL     1      -7.391  20.573  67.338  1.00  0.00    -0.371 A  
ENDBRANCH  26  30
ENDBRANCH  24  26
ENDBRANCH   7  22
TORSDOF 10
ENDMDL
MODEL      259
REMARK 921   NORMALIZED FREE ENERGY PREDICTED BY IDOCK:   -2.15 KCAL/MOL
REMARK 922        TOTAL FREE ENERGY PREDICTED BY IDOCK:   -4.67 KCAL/MOL
REMARK 923 INTER-LIGAND FREE ENERGY PREDICTED BY IDOCK:   -4.06 KCAL/MOL
REMARK 924 INTRA-LIGAND FREE ENERGY PREDICTED BY IDOCK:   -0.61 KCAL/MOL
REMARK 927      BINDING AFFINITY PREDICTED BY RF-SCORE:    0.00 PKD
ROOT
HETATM    1  C   UNL     1      -8.915   8.326  72.116  1.00  0.00    -0.209 C  
HETATM    2  S   UNL     1     -10.549   7.534  71.757  1.00  0.00    -0.208 SA 
HETATM    3  C   UNL     1      -9.811   5.906  71.275  1.00  0.00    -0.176 C  
HETATM    4  C   UNL     1      -8.399   5.890  71.894  1.00  0.00    -0.119 C  
HETATM    5  C   UNL     1     -10.721   4.762  71.726  1.00  0.00    -0.045 C  
HETATM    6  C   UNL     1      -9.761   5.875  69.732  1.00  0.00    -0.202 C  
HETATM    7  C   UNL     1      -8.241   9.136  70.973  1.00  0.00    -0.137 C  
HETATM    8  N   UNL     1      -7.914   7.270  71.886  1.00  0.00    -0.091 N  
HETATM    9  O   UNL     1      -6.778   7.362  69.839  1.00  0.00    -0.045 OA 
HETATM   10  C   UNL     1      -7.423   7.842  70.744  1.00  0.00    -0.070 C  
ENDROOT
BRANCH   4  11
HETATM   11  C   UNL     1      -8.286   5.369  73.342  1.00  0.00    -0.114 C  
HETATM   12  O   UNL     1      -9.049   5.628  74.265  1.00  0.00    -0.121 OA 
BRANCH  11  13
HETATM   13  O   UNL     1      -7.142   4.640  73.496  1.00  0.00    -0.068 OA 
BRANCH  13  14
HETATM   14  C   UNL     1      -6.567   4.215  72.250  1.00  0.00    -0.022 C  
HETATM   15  C   UNL     1      -5.125   4.685  72.136  1.00  0.00    -0.004 C  
BRANCH  14  16
HETATM   16  O   UNL     1      -6.530   2.781  72.217  1.00  0.00    -0.014 OA 
BRANCH  16  17
HETATM   17  C   UNL     1      -7.365   2.253  71.290  1.00  0.00    -0.033 C  
HETATM   18  O   UNL     1      -8.583   2.198  71.382  1.00  0.00    -0.060 OA 
BRANCH  17  19
HETATM   19  O   UNL     1      -6.614   1.690  70.314  1.00  0.00    -0.024 OA 
BRANCH  19  20
HETATM   20  C   UNL     1      -6.219   2.586  69.265  1.00  0.00    -0.025 C  
HETATM   21  C   UNL     1      -7.379   2.756  68.300  1.00  0.00    -0.049 C  
ENDBRANCH  19  20
ENDBRANCH  17  19
ENDBRANCH  16  17
ENDBRANCH  14  16
ENDBRANCH  13  14
ENDBRANCH  11  13
ENDBRANCH   4  11
BRANCH   7  22
HETATM   22  N   UNL     1      -9.101   9.578  69.850  1.00  0.00    -0.200 N  
HETATM   23  H   UNL     1      -9.934   9.035  69.621  1.00  0.00     0.000 HD 
HETATM   24  C   UNL     1      -8.807  10.700  69.106  1.00  0.00    -0.122 C  
HETATM   25  O   UNL     1      -7.770  11.342  69.262  1.00  0.00    -0.066 OA 
BRANCH  24  26
HETATM   26  C   UNL     1      -9.881  11.071  68.056  1.00  0.00    -0.171 C  
HETATM   27  N   UNL     1      -9.605  10.363  66.776  1.00  0.00    -0.167 NA 
HETATM   28  H2  UNL     1      -9.528   9.354  66.906  1.00  0.00     0.000 HD 
HETATM   29  H1  UNL     1     -10.313  10.607  66.083  1.00  0.00     0.000 HD 
BRANCH  26  30
HETATM   30  C   UNL     1      -9.991  12.574  67.874  1.00  0.00    -0.212 A  
HETATM   31  C   UNL     1     -11.237  13.201  68.041  1.00  0.00    -0.308 A  
HETATM   32  C   UNL     1     -11.373  14.580  67.868  1.00  0.00    -0.329 A  
HETATM   33  C   UNL     1     -10.265  15.354  67.531  1.00  0.00    -0.244 A  
HETATM   34  C   UNL     1      -9.018  14.752  67.382  1.00  0.00    -0.200 A  
HETATM   35  C   UNL     1      -8.879  13.374  67.560  1.00  0.00    -0.210 A  
ENDBRANCH  26  30
ENDBRANCH  24  26
ENDBRANCH   7  22
TORSDOF 10
ENDMDL
MODEL      260
REMARK 921   NORMALIZED FREE ENERGY PREDICTED BY IDOCK:   -2.05 KCAL/MOL
REMARK 922        TOTAL FREE ENERGY PREDICTED BY IDOCK:   -4.51 KCAL/MOL
REMARK 923 INTER-LIGAND FREE ENERGY PREDICTED BY IDOCK:   -4.55 KCAL/MOL
REMARK 924 INTRA-LIGAND FREE ENERGY PREDICTED BY IDOCK:    0.05 KCAL/MOL
REMARK 927      BINDING AFFINITY PREDICTED BY RF-SCORE:    0.00 PKD
ROOT
HETATM    1  C   UNL     1     -10.548  11.748  67.161  1.00  0.00    -0.231 C  
HETATM    2  S   UNL     1      -9.954  11.763  68.914  1.00  0.00     0.050 SA 
HETATM    3  C   UNL     1      -8.244  12.318  68.478  1.00  0.00    -0.096 C  
HETATM    4  C   UNL     1      -8.356  12.949  67.075  1.00  0.00    -0.107 C  
HETATM    5  C   UNL     1      -7.702  13.255  69.559  1.00  0.00     0.737 C  
HETATM    6  C   UNL     1      -7.350  11.059  68.469  1.00  0.00    -0.101 C  
HETATM    7  C   UNL     1     -10.466  10.403  66.385  1.00  0.00    -0.177 C  
HETATM    8  N   UNL     1      -9.403  12.217  66.361  1.00  0.00    -0.224 N  
HETATM    9  O   UNL     1      -8.161  10.555  65.274  1.00  0.00    -0.158 OA 
HETATM   10  C   UNL     1      -9.156  10.991  65.806  1.00  0.00    -0.202 C  
ENDROOT
BRANCH   4  11
HETATM   11  C   UNL     1      -8.721  14.447  67.019  1.00  0.00    -0.223 C  
HETATM   12  O   UNL     1      -8.802  15.207  67.977  1.00  0.00    -0.166 OA 
BRANCH  11  13
HETATM   13  O   UNL     1      -9.046  14.809  65.744  1.00  0.00    -0.080 OA 
BRANCH  13  14
HETATM   14  C   UNL     1     -10.379  15.332  65.623  1.00  0.00    -0.366 C  
HETATM   15  C   UNL     1     -10.357  16.852  65.571  1.00  0.00    -0.196 C  
BRANCH  14  16
HETATM   16  O   UNL     1     -10.944  14.891  64.381  1.00  0.00    -0.247 OA 
BRANCH  16  17
HETATM   17  C   UNL     1     -12.259  14.581  64.480  1.00  0.00    -0.465 C  
HETATM   18  O   UNL     1     -13.030  15.021  65.321  1.00  0.00     0.079 OA 
BRANCH  17  19
HETATM   19  O   UNL     1     -12.537  13.612  63.575  1.00  0.00    -0.754 OA 
BRANCH  19  20
HETATM   20  C   UNL     1     -12.225  12.278  64.005  1.00  0.00    -0.475 C  
HETATM   21  C   UNL     1     -11.816  11.455  62.796  1.00  0.00     0.829 C  
ENDBRANCH  19  20
ENDBRANCH  17  19
ENDBRANCH  16  17
ENDBRANCH  14  16
ENDBRANCH  13  14
ENDBRANCH  11  13
ENDBRANCH   4  11
BRANCH   7  22
HETATM   22  N   UNL     1     -10.334   9.161  67.182  1.00  0.00    -0.260 N  
HETATM   23  H   UNL     1     -10.742   9.128  68.117  1.00  0.00     0.000 HD 
HETATM   24  C   UNL     1      -9.677   8.051  66.697  1.00  0.00    -0.243 C  
HETATM   25  O   UNL     1      -9.079   8.056  65.623  1.00  0.00    -0.114 OA 
BRANCH  24  26
HETATM   26  C   UNL     1      -9.745   6.813  67.621  1.00  0.00    -0.126 C  
HETATM   27  N   UNL     1     -11.165   6.485  67.927  1.00  0.00    -0.569 NA 
HETATM   28  H2  UNL     1     -11.721   6.363  67.080  1.00  0.00     0.000 HD 
HETATM   29  H1  UNL     1     -11.211   5.669  68.537  1.00  0.00     0.000 HD 
BRANCH  26  30
HETATM   30  C   UNL     1      -8.913   7.003  68.876  1.00  0.00    -0.129 A  
HETATM   31  C   UNL     1      -9.540   7.402  70.068  1.00  0.00    -0.168 A  
HETATM   32  C   UNL     1      -8.799   7.597  71.235  1.00  0.00    -0.139 A  
HETATM   33  C   UNL     1      -7.422   7.389  71.232  1.00  0.00    -0.081 A  
HETATM   34  C   UNL     1      -6.787   6.972  70.064  1.00  0.00    -0.057 A  
HETATM   35  C   UNL     1      -7.527   6.772  68.897  1.00  0.00    -0.096 A  
ENDBRANCH  26  30
ENDBRANCH  24  26
ENDBRANCH   7  22
TORSDOF 10
ENDMDL
MODEL      261
REMARK 921   NORMALIZED FREE ENERGY PREDICTED BY IDOCK:   -1.74 KCAL/MOL
REMARK 922        TOTAL FREE ENERGY PREDICTED BY IDOCK:   -4.02 KCAL/MOL
REMARK 923 INTER-LIGAND FREE ENERGY PREDICTED BY IDOCK:   -6.93 KCAL/MOL
REMARK 924 INTRA-LIGAND FREE ENERGY PREDICTED BY IDOCK:    2.91 KCAL/MOL
REMARK 927      BINDING AFFINITY PREDICTED BY RF-SCORE:    0.00 PKD
ROOT
HETATM    1  C   UNL     1     -11.244  14.922  68.287  1.00  0.00    -0.294 C  
HETATM    2  S   UNL     1     -11.711  15.524  66.601  1.00  0.00     0.425 SA 
HETATM    3  C   UNL     1     -10.766  14.203  65.714  1.00  0.00    -0.299 C  
HETATM    4  C   UNL     1     -10.558  13.076  66.747  1.00  0.00    -0.262 C  
HETATM    5  C   UNL     1     -11.512  13.781  64.448  1.00  0.00    -0.392 C  
HETATM    6  C   UNL     1      -9.425  14.829  65.272  1.00  0.00     0.267 C  
HETATM    7  C   UNL     1     -10.000  15.564  68.962  1.00  0.00    -0.233 C  
HETATM    8  N   UNL     1     -10.430  13.716  68.056  1.00  0.00    -0.242 N  
HETATM    9  O   UNL     1      -8.111  13.998  68.222  1.00  0.00    -0.132 OA 
HETATM   10  C   UNL     1      -9.259  14.308  68.444  1.00  0.00    -0.196 C  
ENDROOT
BRANCH   4  11
HETATM   11  C   UNL     1     -11.681  12.024  66.855  1.00  0.00    -0.266 C  
HETATM   12  O   UNL     1     -12.489  11.737  65.980  1.00  0.00     0.171 OA 
BRANCH  11  13
HETATM   13  O   UNL     1     -11.725  11.504  68.116  1.00  0.00    -0.426 OA 
BRANCH  13  14
HETATM   14  C   UNL     1     -11.459  10.093  68.160  1.00  0.00     0.041 C  
HETATM   15  C   UNL     1     -10.491   9.695  67.057  1.00  0.00    -0.302 C  
BRANCH  14  16
HETATM   16  O   UNL     1     -10.813   9.777  69.401  1.00  0.00    -0.226 OA 
BRANCH  16  17
HETATM   17  C   UNL     1     -11.500  10.220  70.481  1.00  0.00    -0.343 C  
HETATM   18  O   UNL     1     -11.567  11.384  70.849  1.00  0.00    -0.020 OA 
BRANCH  17  19
HETATM   19  O   UNL     1     -11.988   9.146  71.146  1.00  0.00    -0.288 OA 
BRANCH  19  20
HETATM   20  C   UNL     1     -13.102   9.425  72.007  1.00  0.00    -0.433 C  
HETATM   21  C   UNL     1     -14.186   8.391  71.757  1.00  0.00    -0.536 C  
ENDBRANCH  19  20
ENDBRANCH  17  19
ENDBRANCH  16  17
ENDBRANCH  14  16
ENDBRANCH  13  14
ENDBRANCH  11  13
ENDBRANCH   4  11
BRANCH   7  22
HETATM   22  N   UNL     1      -9.533  16.868  68.434  1.00  0.00    -0.250 N  
HETATM   23  H   UNL     1     -10.091  17.703  68.613  1.00  0.00     0.000 HD 
HETATM   24  C   UNL     1      -8.366  16.983  67.708  1.00  0.00    -0.196 C  
HETATM   25  O   UNL     1      -7.699  16.007  67.372  1.00  0.00    -0.140 OA 
BRANCH  24  26
HETATM   26  C   UNL     1      -7.981  18.436  67.345  1.00  0.00    -0.238 C  
HETATM   27  N   UNL     1      -7.478  18.493  65.944  1.00  0.00    -0.470 NA 
HETATM   28  H2  UNL     1      -8.146  18.096  65.282  1.00  0.00     0.000 HD 
HETATM   29  H1  UNL     1      -7.224  19.451  65.704  1.00  0.00     0.000 HD 
BRANCH  26  30
HETATM   30  C   UNL     1      -6.991  19.019  68.337  1.00  0.00    -0.290 A  
HETATM   31  C   UNL     1      -6.713  20.396  68.309  1.00  0.00    -0.313 A  
HETATM   32  C   UNL     1      -5.799  20.960  69.201  1.00  0.00    -0.305 A  
HETATM   33  C   UNL     1      -5.154  20.158  70.140  1.00  0.00    -0.249 A  
HETATM   34  C   UNL     1      -5.433  18.795  70.196  1.00  0.00    -0.234 A  
HETATM   35  C   UNL     1      -6.351  18.230  69.308  1.00  0.00    -0.259 A  
ENDBRANCH  26  30
ENDBRANCH  24  26
ENDBRANCH   7  22
TORSDOF 10
ENDMDL
MODEL      262
REMARK 921   NORMALIZED FREE ENERGY PREDICTED BY IDOCK:   -1.24 KCAL/MOL
REMARK 922        TOTAL FREE ENERGY PREDICTED BY IDOCK:   -3.22 KCAL/MOL
REMARK 923 INTER-LIGAND FREE ENERGY PREDICTED BY IDOCK:   -4.78 KCAL/MOL
REMARK 924 INTRA-LIGAND FREE ENERGY PREDICTED BY IDOCK:    1.56 KCAL/MOL
REMARK 927      BINDING AFFINITY PREDICTED BY RF-SCORE:    0.00 PKD
ROOT
HETATM    1  C   UNL     1      -8.154  10.292  69.086  1.00  0.00    -0.138 C  
HETATM    2  S   UNL     1      -7.839   9.182  67.638  1.00  0.00    -0.096 SA 
HETATM    3  C   UNL     1      -9.632   8.973  67.230  1.00  0.00    -0.159 C  
HETATM    4  C   UNL     1     -10.352  10.160  67.902  1.00  0.00    -0.194 C  
HETATM    5  C   UNL     1      -9.820   8.886  65.715  1.00  0.00    -0.106 C  
HETATM    6  C   UNL     1     -10.076   7.621  67.828  1.00  0.00    -0.237 C  
HETATM    7  C   UNL     1      -8.247   9.634  70.491  1.00  0.00    -0.098 C  
HETATM    8  N   UNL     1      -9.616  10.466  69.129  1.00  0.00    -0.206 N  
HETATM    9  O   UNL     1     -10.758   9.162  70.705  1.00  0.00    -0.219 OA 
HETATM   10  C   UNL     1      -9.776   9.710  70.258  1.00  0.00    -0.259 C  
ENDROOT
BRANCH   4  11
HETATM   11  C   UNL     1     -10.447  11.464  67.083  1.00  0.00    -0.224 C  
HETATM   12  O   UNL     1      -9.505  12.150  66.705  1.00  0.00    -0.211 OA 
BRANCH  11  13
HETATM   13  O   UNL     1     -11.753  11.821  66.908  1.00  0.00    -0.557 OA 
BRANCH  13  14
HETATM   14  C   UNL     1     -12.245  12.696  67.936  1.00  0.00     0.115 C  
HETATM   15  C   UNL     1     -12.457  11.932  69.234  1.00  0.00     0.192 C  
BRANCH  14  16
HETATM   16  O   UNL     1     -11.257  13.698  68.211  1.00  0.00    -0.248 OA 
BRANCH  16  17
HETATM   17  C   UNL     1     -11.500  14.867  67.572  1.00  0.00    -0.348 C  
HETATM   18  O   UNL     1     -11.110  15.156  66.450  1.00  0.00    -0.339 OA 
BRANCH  17  19
HETATM   19  O   UNL     1     -12.133  15.699  68.433  1.00  0.00    -0.195 OA 
BRANCH  19  20
HETATM   20  C   UNL     1     -11.533  15.790  69.734  1.00  0.00    -0.349 C  
HETATM   21  C   UNL     1     -12.631  15.938  70.773  1.00  0.00    -0.268 C  
ENDBRANCH  19  20
ENDBRANCH  17  19
ENDBRANCH  16  17
ENDBRANCH  14  16
ENDBRANCH  13  14
ENDBRANCH  11  13
ENDBRANCH   4  11
BRANCH   7  22
HETATM   22  N   UNL     1      -7.673   8.277  70.649  1.00  0.00    -0.079 N  
HETATM   23  H   UNL     1      -8.153   7.603  71.245  1.00  0.00     0.000 HD 
HETATM   24  C   UNL     1      -6.508   7.901  70.015  1.00  0.00    -0.033 C  
HETATM   25  O   UNL     1      -5.827   8.691  69.364  1.00  0.00    -0.034 OA 
BRANCH  24  26
HETATM   26  C   UNL     1      -6.130   6.413  70.203  1.00  0.00    -0.034 C  
HETATM   27  N   UNL     1      -6.873   5.572  69.225  1.00  0.00    -0.059 NA 
HETATM   28  H2  UNL     1      -6.730   5.885  68.264  1.00  0.00     0.000 HD 
HETATM   29  H1  UNL     1      -6.624   4.591  69.349  1.00  0.00     0.000 HD 
BRANCH  26  30
HETATM   30  C   UNL     1      -6.342   5.957  71.635  1.00  0.00    -0.048 A  
HETATM   31  C   UNL     1      -7.457   5.163  71.950  1.00  0.00    -0.094 A  
HETATM   32  C   UNL     1      -7.686   4.738  73.260  1.00  0.00    -0.092 A  
HETATM   33  C   UNL     1      -6.800   5.095  74.275  1.00  0.00    -0.077 A  
HETATM   34  C   UNL     1      -5.677   5.863  73.977  1.00  0.00    -0.052 A  
HETATM   35  C   UNL     1      -5.445   6.285  72.666  1.00  0.00    -0.036 A  
ENDBRANCH  26  30
ENDBRANCH  24  26
ENDBRANCH   7  22
TORSDOF 10
ENDMDL
MODEL      263
REMARK 921   NORMALIZED FREE ENERGY PREDICTED BY IDOCK:   -1.13 KCAL/MOL
REMARK 922        TOTAL FREE ENERGY PREDICTED BY IDOCK:   -3.05 KCAL/MOL
REMARK 923 INTER-LIGAND FREE ENERGY PREDICTED BY IDOCK:   -6.27 KCAL/MOL
REMARK 924 INTRA-LIGAND FREE ENERGY PREDICTED BY IDOCK:    3.22 KCAL/MOL
REMARK 927      BINDING AFFINITY PREDICTED BY RF-SCORE:    0.00 PKD
ROOT
HETATM    1  C   UNL     1     -11.024  15.019  68.316  1.00  0.00    -0.271 C  
HETATM    2  S   UNL     1     -11.675  15.647  66.701  1.00  0.00     0.560 SA 
HETATM    3  C   UNL     1     -10.737  14.416  65.685  1.00  0.00    -0.320 C  
HETATM    4  C   UNL     1     -10.372  13.271  66.651  1.00  0.00    -0.274 C  
HETATM    5  C   UNL     1     -11.568  13.991  64.474  1.00  0.00    -0.403 C  
HETATM    6  C   UNL     1      -9.480  15.137  65.152  1.00  0.00     0.362 C  
HETATM    7  C   UNL     1      -9.763  15.714  68.903  1.00  0.00    -0.220 C  
HETATM    8  N   UNL     1     -10.165  13.874  67.968  1.00  0.00    -0.240 N  
HETATM    9  O   UNL     1      -7.860  14.291  67.940  1.00  0.00    -0.125 OA 
HETATM   10  C   UNL     1      -9.000  14.523  68.274  1.00  0.00    -0.184 C  
ENDROOT
BRANCH   4  11
HETATM   11  C   UNL     1     -11.418  12.148  66.817  1.00  0.00    -0.356 C  
HETATM   12  O   UNL     1     -12.256  11.814  65.989  1.00  0.00    -0.322 OA 
BRANCH  11  13
HETATM   13  O   UNL     1     -11.354  11.623  68.075  1.00  0.00    -0.249 OA 
BRANCH  13  14
HETATM   14  C   UNL     1     -10.894  10.262  68.101  1.00  0.00    -0.265 C  
HETATM   15  C   UNL     1      -9.922  10.003  66.960  1.00  0.00    -0.257 C  
BRANCH  14  16
HETATM   16  O   UNL     1     -10.165  10.037  69.315  1.00  0.00    -0.188 OA 
BRANCH  16  17
HETATM   17  C   UNL     1      -8.890   9.633  69.098  1.00  0.00    -0.157 C  
HETATM   18  O   UNL     1      -8.548   8.500  68.791  1.00  0.00    -0.129 OA 
BRANCH  17  19
HETATM   19  O   UNL     1      -8.061  10.660  69.401  1.00  0.00    -0.151 OA 
BRANCH  19  20
HETATM   20  C   UNL     1      -6.751  10.568  68.821  1.00  0.00    -0.054 C  
HETATM   21  C   UNL     1      -5.832  11.551  69.525  1.00  0.00    -0.077 C  
ENDBRANCH  19  20
ENDBRANCH  17  19
ENDBRANCH  16  17
ENDBRANCH  14  16
ENDBRANCH  13  14
ENDBRANCH  11  13
ENDBRANCH   4  11
BRANCH   7  22
HETATM   22  N   UNL     1      -9.422  17.060  68.386  1.00  0.00    -0.260 N  
HETATM   23  H   UNL     1     -10.004  17.854  68.653  1.00  0.00     0.000 HD 
HETATM   24  C   UNL     1      -8.342  17.269  67.556  1.00  0.00    -0.196 C  
HETATM   25  O   UNL     1      -7.660  16.345  67.116  1.00  0.00    -0.152 OA 
BRANCH  24  26
HETATM   26  C   UNL     1      -8.074  18.754  67.217  1.00  0.00    -0.244 C  
HETATM   27  N   UNL     1      -7.650  18.882  65.795  1.00  0.00    -0.483 NA 
HETATM   28  H2  UNL     1      -8.323  18.458  65.156  1.00  0.00     0.000 HD 
HETATM   29  H1  UNL     1      -7.473  19.861  65.571  1.00  0.00     0.000 HD 
BRANCH  26  30
HETATM   30  C   UNL     1      -7.075  19.376  68.175  1.00  0.00    -0.310 A  
HETATM   31  C   UNL     1      -6.710  20.724  68.016  1.00  0.00    -0.308 A  
HETATM   32  C   UNL     1      -5.785  21.322  68.874  1.00  0.00    -0.112 A  
HETATM   33  C   UNL     1      -5.215  20.584  69.909  1.00  0.00    -0.333 A  
HETATM   34  C   UNL     1      -5.581  19.253  70.095  1.00  0.00    -0.259 A  
HETATM   35  C   UNL     1      -6.510  18.656  69.241  1.00  0.00    -0.289 A  
ENDBRANCH  26  30
ENDBRANCH  24  26
ENDBRANCH   7  22
TORSDOF 10
ENDMDL
MODEL      264
REMARK 921   NORMALIZED FREE ENERGY PREDICTED BY IDOCK:   -0.65 KCAL/MOL
REMARK 922        TOTAL FREE ENERGY PREDICTED BY IDOCK:   -2.29 KCAL/MOL
REMARK 923 INTER-LIGAND FREE ENERGY PREDICTED BY IDOCK:   -6.01 KCAL/MOL
REMARK 924 INTRA-LIGAND FREE ENERGY PREDICTED BY IDOCK:    3.72 KCAL/MOL
REMARK 927      BINDING AFFINITY PREDICTED BY RF-SCORE:    0.00 PKD
ROOT
HETATM    1  C   UNL     1     -10.669  17.206  68.732  1.00  0.00    -0.289 C  
HETATM    2  S   UNL     1     -11.130  16.242  67.222  1.00  0.00     0.040 SA 
HETATM    3  C   UNL     1     -10.914  14.594  68.037  1.00  0.00    -0.267 C  
HETATM    4  C   UNL     1     -10.993  14.866  69.553  1.00  0.00    -0.273 C  
HETATM    5  C   UNL     1     -11.954  13.605  67.509  1.00  0.00    -0.393 C  
HETATM    6  C   UNL     1      -9.524  14.066  67.622  1.00  0.00    -0.210 C  
HETATM    7  C   UNL     1      -9.183  17.640  68.885  1.00  0.00    -0.143 C  
HETATM    8  N   UNL     1     -10.425  16.196  69.777  1.00  0.00    -0.293 N  
HETATM    9  O   UNL     1      -8.180  15.686  70.207  1.00  0.00     0.460 OA 
HETATM   10  C   UNL     1      -9.071  16.394  69.797  1.00  0.00     0.507 C  
ENDROOT
BRANCH   4  11
HETATM   11  C   UNL     1     -12.401  14.853  70.184  1.00  0.00    -0.327 C  
HETATM   12  O   UNL     1     -12.941  15.786  70.765  1.00  0.00    -0.479 OA 
BRANCH  11  13
HETATM   13  O   UNL     1     -12.948  13.605  70.096  1.00  0.00    -0.030 OA 
BRANCH  13  14
HETATM   14  C   UNL     1     -12.604  12.754  71.201  1.00  0.00    -0.271 C  
HETATM   15  C   UNL     1     -13.581  12.946  72.350  1.00  0.00    -0.577 C  
BRANCH  14  16
HETATM   16  O   UNL     1     -12.722  11.385  70.791  1.00  0.00    -0.314 OA 
BRANCH  16  17
HETATM   17  C   UNL     1     -11.526  10.809  70.523  1.00  0.00    -0.275 C  
HETATM   18  O   UNL     1     -10.743  11.171  69.656  1.00  0.00    -0.198 OA 
BRANCH  17  19
HETATM   19  O   UNL     1     -11.407   9.698  71.288  1.00  0.00    -0.344 OA 
BRANCH  19  20
HETATM   20  C   UNL     1     -12.649   9.059  71.618  1.00  0.00    -0.348 C  
HETATM   21  C   UNL     1     -12.607   7.621  71.131  1.00  0.00    -0.257 C  
ENDBRANCH  19  20
ENDBRANCH  17  19
ENDBRANCH  16  17
ENDBRANCH  14  16
ENDBRANCH  13  14
ENDBRANCH  11  13
ENDBRANCH   4  11
BRANCH   7  22
HETATM   22  N   UNL     1      -8.343  17.639  67.665  1.00  0.00    -0.223 N  
HETATM   23  H   UNL     1      -8.465  18.385  66.979  1.00  0.00     0.000 HD 
HETATM   24  C   UNL     1      -7.402  16.659  67.429  1.00  0.00    -0.161 C  
HETATM   25  O   UNL     1      -7.272  15.680  68.161  1.00  0.00    -0.108 OA 
BRANCH  24  26
HETATM   26  C   UNL     1      -6.541  16.891  66.166  1.00  0.00     0.219 C  
HETATM   27  N   UNL     1      -5.133  16.485  66.430  1.00  0.00    -0.210 NA 
HETATM   28  H2  UNL     1      -5.068  15.524  66.768  1.00  0.00     0.000 HD 
HETATM   29  H1  UNL     1      -4.564  16.638  65.597  1.00  0.00     0.000 HD 
BRANCH  26  30
HETATM   30  C   UNL     1      -6.646  18.321  65.669  1.00  0.00    -0.298 A  
HETATM   31  C   UNL     1      -5.792  18.762  64.645  1.00  0.00    -0.254 A  
HETATM   32  C   UNL     1      -5.857  20.075  64.175  1.00  0.00    -0.312 A  
HETATM   33  C   UNL     1      -6.781  20.966  64.716  1.00  0.00    -0.092 A  
HETATM   34  C   UNL     1      -7.651  20.539  65.717  1.00  0.00     0.014 A  
HETATM   35  C   UNL     1      -7.590  19.225  66.184  1.00  0.00    -0.303 A  
ENDBRANCH  26  30
ENDBRANCH  24  26
ENDBRANCH   7  22
TORSDOF 10
ENDMDL
MODEL      265
REMARK 921   NORMALIZED FREE ENERGY PREDICTED BY IDOCK:   -0.58 KCAL/MOL
REMARK 922        TOTAL FREE ENERGY PREDICTED BY IDOCK:   -2.18 KCAL/MOL
REMARK 923 INTER-LIGAND FREE ENERGY PREDICTED BY IDOCK:   -3.78 KCAL/MOL
REMARK 924 INTRA-LIGAND FREE ENERGY PREDICTED BY IDOCK:    1.59 KCAL/MOL
REMARK 927      BINDING AFFINITY PREDICTED BY RF-SCORE:    0.00 PKD
ROOT
HETATM    1  C   UNL     1      -9.428  14.768  66.295  1.00  0.00    -0.303 C  
HETATM    2  S   UNL     1     -11.261  15.000  66.411  1.00  0.00    -0.266 SA 
HETATM    3  C   UNL     1     -11.157  16.240  67.782  1.00  0.00    -0.227 C  
HETATM    4  C   UNL     1      -9.717  16.790  67.737  1.00  0.00    -0.248 C  
HETATM    5  C   UNL     1     -12.251  17.296  67.620  1.00  0.00     2.627 C  
HETATM    6  C   UNL     1     -11.440  15.482  69.097  1.00  0.00    -0.356 C  
HETATM    7  C   UNL     1      -8.797  13.602  67.106  1.00  0.00    -0.230 C  
HETATM    8  N   UNL     1      -8.857  15.696  67.287  1.00  0.00    -0.189 N  
HETATM    9  O   UNL     1      -8.197  14.743  69.322  1.00  0.00    -0.142 OA 
HETATM   10  C   UNL     1      -8.467  14.703  68.143  1.00  0.00    -0.156 C  
ENDROOT
BRANCH   4  11
HETATM   11  C   UNL     1      -9.466  17.991  66.802  1.00  0.00    -0.293 C  
HETATM   12  O   UNL     1     -10.045  18.218  65.746  1.00  0.00    -0.560 OA 
BRANCH  11  13
HETATM   13  O   UNL     1      -8.421  18.739  67.261  1.00  0.00    -0.265 OA 
BRANCH  13  14
HETATM   14  C   UNL     1      -8.680  19.359  68.531  1.00  0.00    -0.367 C  
HETATM   15  C   UNL     1      -9.256  18.350  69.513  1.00  0.00     0.509 C  
BRANCH  14  16
HETATM   16  O   UNL     1      -7.440  19.810  69.093  1.00  0.00    -0.326 OA 
BRANCH  16  17
HETATM   17  C   UNL     1      -6.359  19.223  68.526  1.00  0.00    -0.247 C  
HETATM   18  O   UNL     1      -5.539  19.785  67.814  1.00  0.00    -0.188 OA 
BRANCH  17  19
HETATM   19  O   UNL     1      -6.416  17.893  68.777  1.00  0.00    -0.211 OA 
BRANCH  19  20
HETATM   20  C   UNL     1      -5.244  17.157  68.396  1.00  0.00    -0.128 C  
HETATM   21  C   UNL     1      -5.531  16.413  67.103  1.00  0.00    -0.100 C  
ENDBRANCH  19  20
ENDBRANCH  17  19
ENDBRANCH  16  17
ENDBRANCH  14  16
ENDBRANCH  13  14
ENDBRANCH  11  13
ENDBRANCH   4  11
BRANCH   7  22
HETATM   22  N   UNL     1      -9.700  12.519  67.561  1.00  0.00    -0.193 N  
HETATM   23  H   UNL     1     -10.622  12.432  67.134  1.00  0.00     0.000 HD 
HETATM   24  C   UNL     1      -9.330  11.627  68.545  1.00  0.00    -0.167 C  
HETATM   25  O   UNL     1      -8.277  11.735  69.170  1.00  0.00     0.089 OA 
BRANCH  24  26
HETATM   26  C   UNL     1     -10.353  10.497  68.801  1.00  0.00    -0.191 C  
HETATM   27  N   UNL     1     -11.650  11.078  69.247  1.00  0.00    -0.285 NA 
HETATM   28  H2  UNL     1     -12.004  11.773  68.589  1.00  0.00     0.000 HD 
HETATM   29  H1  UNL     1     -12.326  10.332  69.416  1.00  0.00     0.000 HD 
BRANCH  26  30
HETATM   30  C   UNL     1      -9.817   9.465  69.777  1.00  0.00    -0.218 A  
HETATM   31  C   UNL     1      -8.904   8.497  69.327  1.00  0.00    -0.142 A  
HETATM   32  C   UNL     1      -8.401   7.528  70.197  1.00  0.00    -0.134 A  
HETATM   33  C   UNL     1      -8.799   7.515  71.533  1.00  0.00    -0.133 A  
HETATM   34  C   UNL     1      -9.687   8.480  72.001  1.00  0.00    -0.377 A  
HETATM   35  C   UNL     1     -10.186   9.454  71.132  1.00  0.00    -0.361 A  
ENDBRANCH  26  30
ENDBRANCH  24  26
ENDBRANCH   7  22
TORSDOF 10
ENDMDL
MODEL      266
REMARK 921   NORMALIZED FREE ENERGY PREDICTED BY IDOCK:   -0.42 KCAL/MOL
REMARK 922        TOTAL FREE ENERGY PREDICTED BY IDOCK:   -1.93 KCAL/MOL
REMARK 923 INTER-LIGAND FREE ENERGY PREDICTED BY IDOCK:   -3.78 KCAL/MOL
REMARK 924 INTRA-LIGAND FREE ENERGY PREDICTED BY IDOCK:    1.85 KCAL/MOL
REMARK 927      BINDING AFFINITY PREDICTED BY RF-SCORE:    0.00 PKD
ROOT
HETATM    1  C   UNL     1      -7.454   7.133  66.618  1.00  0.00    -0.088 C  
HETATM    2  S   UNL     1      -8.270   6.946  68.269  1.00  0.00    -0.123 SA 
HETATM    3  C   UNL     1      -9.981   6.853  67.569  1.00  0.00    -0.149 C  
HETATM    4  C   UNL     1      -9.803   6.461  66.088  1.00  0.00     0.103 C  
HETATM    5  C   UNL     1     -10.833   5.883  68.389  1.00  0.00    -0.322 C  
HETATM    6  C   UNL     1     -10.606   8.256  67.719  1.00  0.00    -0.236 C  
HETATM    7  C   UNL     1      -7.169   8.576  66.114  1.00  0.00    -0.081 C  
HETATM    8  N   UNL     1      -8.549   7.063  65.635  1.00  0.00    -0.140 N  
HETATM    9  O   UNL     1      -9.290   9.113  64.777  1.00  0.00    -0.124 OA 
HETATM   10  C   UNL     1      -8.478   8.390  65.308  1.00  0.00    -0.171 C  
ENDROOT
BRANCH   4  11
HETATM   11  C   UNL     1      -9.729   4.951  65.777  1.00  0.00    -0.169 C  
HETATM   12  O   UNL     1     -10.336   4.366  64.888  1.00  0.00    -0.180 OA 
BRANCH  11  13
HETATM   13  O   UNL     1      -8.956   4.314  66.704  1.00  0.00    -0.113 OA 
BRANCH  13  14
HETATM   14  C   UNL     1      -7.667   3.927  66.199  1.00  0.00    -0.089 C  
HETATM   15  C   UNL     1      -7.172   2.670  66.898  1.00  0.00    -0.057 C  
BRANCH  14  16
HETATM   16  O   UNL     1      -7.788   3.598  64.809  1.00  0.00    -0.080 OA 
BRANCH  16  17
HETATM   17  C   UNL     1      -6.631   3.764  64.125  1.00  0.00    -0.042 C  
HETATM   18  O   UNL     1      -5.665   4.407  64.511  1.00  0.00    -0.013 OA 
BRANCH  17  19
HETATM   19  O   UNL     1      -6.777   3.206  62.899  1.00  0.00    -0.028 OA 
BRANCH  19  20
HETATM   20  C   UNL     1      -7.026   1.793  62.907  1.00  0.00    -0.027 C  
HETATM   21  C   UNL     1      -8.527   1.558  62.941  1.00  0.00    -0.061 C  
ENDBRANCH  19  20
ENDBRANCH  17  19
ENDBRANCH  16  17
ENDBRANCH  14  16
ENDBRANCH  13  14
ENDBRANCH  11  13
ENDBRANCH   4  11
BRANCH   7  22
HETATM   22  N   UNL     1      -7.167   9.663  67.121  1.00  0.00    -0.086 N  
HETATM   23  H   UNL     1      -7.779  10.466  66.983  1.00  0.00     0.000 HD 
HETATM   24  C   UNL     1      -6.360   9.618  68.238  1.00  0.00    -0.056 C  
HETATM   25  O   UNL     1      -5.527   8.731  68.415  1.00  0.00    -0.037 OA 
BRANCH  24  26
HETATM   26  C   UNL     1      -6.581  10.781  69.234  1.00  0.00    -0.074 C  
HETATM   27  N   UNL     1      -6.983  10.242  70.562  1.00  0.00    -0.358 NA 
HETATM   28  H2  UNL     1      -6.314   9.557  70.915  1.00  0.00     0.000 HD 
HETATM   29  H1  UNL     1      -7.130  11.008  71.219  1.00  0.00     0.000 HD 
BRANCH  26  30
HETATM   30  C   UNL     1      -7.574  11.796  68.698  1.00  0.00    -0.125 A  
HETATM   31  C   UNL     1      -8.848  11.368  68.289  1.00  0.00    -0.167 A  
HETATM   32  C   UNL     1      -9.779  12.276  67.780  1.00  0.00    -0.199 A  
HETATM   33  C   UNL     1      -9.454  13.628  67.680  1.00  0.00    -0.221 A  
HETATM   34  C   UNL     1      -8.203  14.072  68.101  1.00  0.00    -0.155 A  
HETATM   35  C   UNL     1      -7.273  13.166  68.615  1.00  0.00    -0.106 A  
ENDBRANCH  26  30
ENDBRANCH  24  26
ENDBRANCH   7  22
TORSDOF 10
ENDMDL
MODEL      267
REMARK 921   NORMALIZED FREE ENERGY PREDICTED BY IDOCK:    0.28 KCAL/MOL
REMARK 922        TOTAL FREE ENERGY PREDICTED BY IDOCK:   -0.82 KCAL/MOL
REMARK 923 INTER-LIGAND FREE ENERGY PREDICTED BY IDOCK:   -2.36 KCAL/MOL
REMARK 924 INTRA-LIGAND FREE ENERGY PREDICTED BY IDOCK:    1.54 KCAL/MOL
REMARK 927      BINDING AFFINITY PREDICTED BY RF-SCORE:    0.00 PKD
ROOT
HETATM    1  C   UNL     1      -9.418  14.355  65.646  1.00  0.00    -0.010 C  
HETATM    2  S   UNL     1     -10.086  13.483  67.135  1.00  0.00    -0.248 SA 
HETATM    3  C   UNL     1     -11.542  12.773  66.240  1.00  0.00    -0.379 C  
HETATM    4  C   UNL     1     -11.173  12.820  64.743  1.00  0.00    -0.305 C  
HETATM    5  C   UNL     1     -11.861  11.377  66.777  1.00  0.00     0.337 C  
HETATM    6  C   UNL     1     -12.752  13.678  66.559  1.00  0.00    -0.043 C  
HETATM    7  C   UNL     1      -9.828  15.840  65.436  1.00  0.00    -0.177 C  
HETATM    8  N   UNL     1     -10.334  14.003  64.547  1.00  0.00    -0.332 N  
HETATM    9  O   UNL     1     -11.927  15.624  63.980  1.00  0.00    -0.548 OA 
HETATM   10  C   UNL     1     -10.883  15.254  64.466  1.00  0.00    -0.119 C  
ENDROOT
BRANCH   4  11
HETATM   11  C   UNL     1     -10.398  11.607  64.185  1.00  0.00    -0.337 C  
HETATM   12  O   UNL     1     -10.699  10.950  63.196  1.00  0.00    -0.119 OA 
BRANCH  11  13
HETATM   13  O   UNL     1      -9.358  11.289  65.010  1.00  0.00    -0.221 OA 
BRANCH  13  14
HETATM   14  C   UNL     1      -8.850   9.961  64.798  1.00  0.00    -0.202 C  
HETATM   15  C   UNL     1      -7.577  10.001  63.968  1.00  0.00    -0.139 C  
BRANCH  14  16
HETATM   16  O   UNL     1      -8.492   9.390  66.064  1.00  0.00    -0.119 OA 
BRANCH  16  17
HETATM   17  C   UNL     1      -7.689  10.196  66.798  1.00  0.00    -0.105 C  
HETATM   18  O   UNL     1      -8.067  10.988  67.650  1.00  0.00    -0.113 OA 
BRANCH  17  19
HETATM   19  O   UNL     1      -6.421  10.064  66.341  1.00  0.00    -0.069 OA 
BRANCH  19  20
HETATM   20  C   UNL     1      -5.536  11.135  66.701  1.00  0.00    -0.116 C  
HETATM   21  C   UNL     1      -6.341  12.417  66.826  1.00  0.00     0.372 C  
ENDBRANCH  19  20
ENDBRANCH  17  19
ENDBRANCH  16  17
ENDBRANCH  14  16
ENDBRANCH  13  14
ENDBRANCH  11  13
ENDBRANCH   4  11
BRANCH   7  22
HETATM   22  N   UNL     1     -10.352  16.576  66.610  1.00  0.00    -0.299 N  
HETATM   23  H   UNL     1     -11.311  16.924  66.589  1.00  0.00     0.000 HD 
HETATM   24  C   UNL     1      -9.581  16.803  67.730  1.00  0.00    -0.241 C  
HETATM   25  O   UNL     1      -8.391  16.500  67.784  1.00  0.00    -0.167 OA 
BRANCH  24  26
HETATM   26  C   UNL     1     -10.335  17.481  68.899  1.00  0.00    -0.338 C  
HETATM   27  N   UNL     1      -9.449  18.476  69.565  1.00  0.00     0.258 NA 
HETATM   28  H2  UNL     1      -9.074  19.157  68.904  1.00  0.00     0.000 HD 
HETATM   29  H1  UNL     1      -9.946  18.923  70.335  1.00  0.00     0.000 HD 
BRANCH  26  30
HETATM   30  C   UNL     1     -10.892  16.460  69.873  1.00  0.00    -0.333 A  
HETATM   31  C   UNL     1     -10.058  15.439  70.359  1.00  0.00     0.069 A  
HETATM   32  C   UNL     1     -10.545  14.479  71.247  1.00  0.00     1.430 A  
HETATM   33  C   UNL     1     -11.872  14.527  71.670  1.00  0.00    -0.244 A  
HETATM   34  C   UNL     1     -12.707  15.544  71.216  1.00  0.00    -0.526 A  
HETATM   35  C   UNL     1     -12.220  16.509  70.331  1.00  0.00     1.020 A  
ENDBRANCH  26  30
ENDBRANCH  24  26
ENDBRANCH   7  22
TORSDOF 10
ENDMDL
MODEL      268
REMARK 921   NORMALIZED FREE ENERGY PREDICTED BY IDOCK:    1.81 KCAL/MOL
REMARK 922        TOTAL FREE ENERGY PREDICTED BY IDOCK:    1.60 KCAL/MOL
REMARK 923 INTER-LIGAND FREE ENERGY PREDICTED BY IDOCK:   -4.02 KCAL/MOL
REMARK 924 INTRA-LIGAND FREE ENERGY PREDICTED BY IDOCK:    5.63 KCAL/MOL
REMARK 927      BINDING AFFINITY PREDICTED BY RF-SCORE:    0.00 PKD
ROOT
HETATM    1  C   UNL     1      -9.584  12.148  66.367  1.00  0.00    -0.234 C  
HETATM    2  S   UNL     1     -10.331  10.666  67.186  1.00  0.00    -0.240 SA 
HETATM    3  C   UNL     1     -10.273  11.399  68.884  1.00  0.00    -0.168 C  
HETATM    4  C   UNL     1     -10.157  12.923  68.674  1.00  0.00    -0.128 C  
HETATM    5  C   UNL     1     -11.493  10.956  69.691  1.00  0.00    -0.377 C  
HETATM    6  C   UNL     1      -9.023  10.820  69.581  1.00  0.00     0.259 C  
HETATM    7  C   UNL     1      -8.044  12.153  66.154  1.00  0.00     0.485 C  
HETATM    8  N   UNL     1      -9.383  13.127  67.450  1.00  0.00    -0.205 N  
HETATM    9  O   UNL     1      -7.203  13.297  68.288  1.00  0.00    -0.087 OA 
HETATM   10  C   UNL     1      -8.020  13.008  67.444  1.00  0.00    -0.172 C  
ENDROOT
BRANCH   4  11
HETATM   11  C   UNL     1     -11.480  13.701  68.520  1.00  0.00    -0.312 C  
HETATM   12  O   UNL     1     -12.526  13.264  68.056  1.00  0.00    -0.012 OA 
BRANCH  11  13
HETATM   13  O   UNL     1     -11.310  15.005  68.888  1.00  0.00    -0.265 OA 
BRANCH  13  14
HETATM   14  C   UNL     1     -11.963  15.337  70.124  1.00  0.00    -0.338 C  
HETATM   15  C   UNL     1     -13.428  15.668  69.884  1.00  0.00     1.107 C  
BRANCH  14  16
HETATM   16  O   UNL     1     -11.941  14.193  70.988  1.00  0.00    -0.333 OA 
BRANCH  16  17
HETATM   17  C   UNL     1     -12.955  14.190  71.885  1.00  0.00    -0.360 C  
HETATM   18  O   UNL     1     -13.517  13.193  72.316  1.00  0.00    -0.527 OA 
BRANCH  17  19
HETATM   19  O   UNL     1     -13.317  15.473  72.123  1.00  0.00    -0.402 OA 
BRANCH  19  20
HETATM   20  C   UNL     1     -12.686  16.075  73.263  1.00  0.00    -0.537 C  
HETATM   21  C   UNL     1     -11.882  15.016  73.996  1.00  0.00    -0.251 C  
ENDBRANCH  19  20
ENDBRANCH  17  19
ENDBRANCH  16  17
ENDBRANCH  14  16
ENDBRANCH  13  14
ENDBRANCH  11  13
ENDBRANCH   4  11
BRANCH   7  22
HETATM   22  N   UNL     1      -7.342  10.850  66.215  1.00  0.00    -0.178 N  
HETATM   23  H   UNL     1      -6.336  10.838  66.382  1.00  0.00     0.000 HD 
HETATM   24  C   UNL     1      -8.009   9.655  66.052  1.00  0.00    -0.108 C  
HETATM   25  O   UNL     1      -9.200   9.600  65.749  1.00  0.00    -0.177 OA 
BRANCH  24  26
HETATM   26  C   UNL     1      -7.133   8.399  66.268  1.00  0.00    -0.077 C  
HETATM   27  N   UNL     1      -5.902   8.762  67.022  1.00  0.00    -0.045 NA 
HETATM   28  H2  UNL     1      -6.117   9.235  67.900  1.00  0.00     0.000 HD 
HETATM   29  H1  UNL     1      -5.323   7.934  67.164  1.00  0.00     0.000 HD 
BRANCH  26  30
HETATM   30  C   UNL     1      -6.822   7.700  64.957  1.00  0.00    -0.051 A  
HETATM   31  C   UNL     1      -5.492   7.373  64.646  1.00  0.00    -0.033 A  
HETATM   32  C   UNL     1      -5.173   6.741  63.442  1.00  0.00    -0.027 A  
HETATM   33  C   UNL     1      -6.179   6.419  62.534  1.00  0.00    -0.030 A  
HETATM   34  C   UNL     1      -7.506   6.717  62.836  1.00  0.00    -0.079 A  
HETATM   35  C   UNL     1      -7.827   7.345  64.041  1.00  0.00    -0.120 A  
ENDBRANCH  26  30
ENDBRANCH  24  26
ENDBRANCH   7  22
TORSDOF 10
ENDMDL
MODEL      269
REMARK 921   NORMALIZED FREE ENERGY PREDICTED BY IDOCK:    2.75 KCAL/MOL
REMARK 922        TOTAL FREE ENERGY PREDICTED BY IDOCK:    3.10 KCAL/MOL
REMARK 923 INTER-LIGAND FREE ENERGY PREDICTED BY IDOCK:   -2.17 KCAL/MOL
REMARK 924 INTRA-LIGAND FREE ENERGY PREDICTED BY IDOCK:    5.27 KCAL/MOL
REMARK 927      BINDING AFFINITY PREDICTED BY RF-SCORE:    0.00 PKD
ROOT
HETATM    1  C   UNL     1      -8.819  12.818  67.410  1.00  0.00    -0.190 C  
HETATM    2  S   UNL     1      -9.908  11.383  67.835  1.00  0.00    -0.184 SA 
HETATM    3  C   UNL     1     -11.175  12.420  68.698  1.00  0.00    -0.271 C  
HETATM    4  C   UNL     1     -10.959  13.857  68.180  1.00  0.00    -0.249 C  
HETATM    5  C   UNL     1     -12.574  11.855  68.452  1.00  0.00     1.246 C  
HETATM    6  C   UNL     1     -10.893  12.309  70.212  1.00  0.00     1.355 C  
HETATM    7  C   UNL     1      -7.661  13.158  68.390  1.00  0.00    -0.138 C  
HETATM    8  N   UNL     1      -9.527  14.005  67.920  1.00  0.00    -0.203 N  
HETATM    9  O   UNL     1      -8.760  14.859  69.961  1.00  0.00     0.190 OA 
HETATM   10  C   UNL     1      -8.641  14.224  68.939  1.00  0.00    -0.030 C  
ENDROOT
BRANCH   4  11
HETATM   11  C   UNL     1     -11.707  14.244  66.887  1.00  0.00    -0.408 C  
HETATM   12  O   UNL     1     -12.534  13.559  66.298  1.00  0.00    -0.396 OA 
BRANCH  11  13
HETATM   13  O   UNL     1     -11.247  15.439  66.413  1.00  0.00    -0.282 OA 
BRANCH  13  14
HETATM   14  C   UNL     1      -9.814  15.540  66.419  1.00  0.00    -0.278 C  
HETATM   15  C   UNL     1      -9.222  14.837  65.207  1.00  0.00     0.836 C  
BRANCH  14  16
HETATM   16  O   UNL     1      -9.442  16.920  66.310  1.00  0.00    -0.265 OA 
BRANCH  16  17
HETATM   17  C   UNL     1      -9.954  17.685  67.304  1.00  0.00    -0.322 C  
HETATM   18  O   UNL     1     -11.128  18.011  67.414  1.00  0.00    -0.190 OA 
BRANCH  17  19
HETATM   19  O   UNL     1      -8.930  18.124  68.074  1.00  0.00    -0.269 OA 
BRANCH  19  20
HETATM   20  C   UNL     1      -8.882  19.547  68.257  1.00  0.00    -0.335 C  
HETATM   21  C   UNL     1     -10.263  20.038  68.657  1.00  0.00    -0.443 C  
ENDBRANCH  19  20
ENDBRANCH  17  19
ENDBRANCH  16  17
ENDBRANCH  14  16
ENDBRANCH  13  14
ENDBRANCH  11  13
ENDBRANCH   4  11
BRANCH   7  22
HETATM   22  N   UNL     1      -7.238  12.103  69.339  1.00  0.00    -0.330 N  
HETATM   23  H   UNL     1      -7.134  12.338  70.327  1.00  0.00     0.000 HD 
HETATM   24  C   UNL     1      -6.980  10.813  68.927  1.00  0.00    -0.077 C  
HETATM   25  O   UNL     1      -6.988  10.485  67.742  1.00  0.00    -0.076 OA 
BRANCH  24  26
HETATM   26  C   UNL     1      -6.668   9.825  70.075  1.00  0.00    -0.089 C  
HETATM   27  N   UNL     1      -5.231   9.437  70.034  1.00  0.00    -0.032 NA 
HETATM   28  H2  UNL     1      -4.615  10.250  70.050  1.00  0.00     0.000 HD 
HETATM   29  H1  UNL     1      -5.025   8.785  70.791  1.00  0.00     0.000 HD 
BRANCH  26  30
HETATM   30  C   UNL     1      -7.592   8.621  70.045  1.00  0.00    -0.068 A  
HETATM   31  C   UNL     1      -7.045   7.328  70.090  1.00  0.00    -0.065 A  
HETATM   32  C   UNL     1      -7.868   6.201  70.052  1.00  0.00    -0.106 A  
HETATM   33  C   UNL     1      -9.252   6.348  69.977  1.00  0.00    -0.159 A  
HETATM   34  C   UNL     1      -9.812   7.623  69.954  1.00  0.00    -0.184 A  
HETATM   35  C   UNL     1      -8.990   8.751  69.997  1.00  0.00    -0.162 A  
ENDBRANCH  26  30
ENDBRANCH  24  26
ENDBRANCH   7  22
TORSDOF 10
ENDMDL
MODEL      270
REMARK 921   NORMALIZED FREE ENERGY PREDICTED BY IDOCK:    2.95 KCAL/MOL
REMARK 922        TOTAL FREE ENERGY PREDICTED BY IDOCK:    3.42 KCAL/MOL
REMARK 923 INTER-LIGAND FREE ENERGY PREDICTED BY IDOCK:    2.96 KCAL/MOL
REMARK 924 INTRA-LIGAND FREE ENERGY PREDICTED BY IDOCK:    0.46 KCAL/MOL
REMARK 927      BINDING AFFINITY PREDICTED BY RF-SCORE:    0.00 PKD
ROOT
HETATM    1  C   UNL     1      -9.727  11.412  67.731  1.00  0.00    -0.175 C  
HETATM    2  S   UNL     1     -11.349  10.557  67.481  1.00  0.00     0.087 SA 
HETATM    3  C   UNL     1     -11.855  10.697  69.256  1.00  0.00    -0.237 C  
HETATM    4  C   UNL     1     -10.992  11.831  69.846  1.00  0.00     0.238 C  
HETATM    5  C   UNL     1     -13.364  10.923  69.356  1.00  0.00     1.952 C  
HETATM    6  C   UNL     1     -11.547   9.338  69.920  1.00  0.00     0.076 C  
HETATM    7  C   UNL     1      -8.480  10.524  68.005  1.00  0.00    -0.120 C  
HETATM    8  N   UNL     1      -9.704  11.790  69.154  1.00  0.00     0.150 N  
HETATM    9  O   UNL     1      -8.453  10.400  70.565  1.00  0.00     0.328 OA 
HETATM   10  C   UNL     1      -8.749  10.869  69.490  1.00  0.00     0.255 C  
ENDROOT
BRANCH   4  11
HETATM   11  C   UNL     1     -11.547  13.264  69.706  1.00  0.00    -0.227 C  
HETATM   12  O   UNL     1     -12.607  13.677  70.160  1.00  0.00    -0.262 OA 
BRANCH  11  13
HETATM   13  O   UNL     1     -10.730  14.012  68.908  1.00  0.00    -0.249 OA 
BRANCH  13  14
HETATM   14  C   UNL     1     -11.428  15.037  68.182  1.00  0.00    -0.339 C  
HETATM   15  C   UNL     1     -10.821  16.403  68.466  1.00  0.00    -0.339 C  
BRANCH  14  16
HETATM   16  O   UNL     1     -11.268  14.806  66.776  1.00  0.00    -0.332 OA 
BRANCH  16  17
HETATM   17  C   UNL     1      -9.969  14.770  66.391  1.00  0.00    -0.277 C  
HETATM   18  O   UNL     1      -9.011  15.017  67.110  1.00  0.00    -0.194 OA 
BRANCH  17  19
HETATM   19  O   UNL     1      -9.926  14.540  65.058  1.00  0.00    -0.341 OA 
BRANCH  19  20
HETATM   20  C   UNL     1     -11.070  15.009  64.328  1.00  0.00     0.084 C  
HETATM   21  C   UNL     1     -11.044  14.409  62.934  1.00  0.00     4.460 C  
ENDBRANCH  19  20
ENDBRANCH  17  19
ENDBRANCH  16  17
ENDBRANCH  14  16
ENDBRANCH  13  14
ENDBRANCH  11  13
ENDBRANCH   4  11
BRANCH   7  22
HETATM   22  N   UNL     1      -8.567   9.092  67.636  1.00  0.00    -0.117 N  
HETATM   23  H   UNL     1      -9.262   8.504  68.095  1.00  0.00     0.000 HD 
HETATM   24  C   UNL     1      -7.735   8.532  66.689  1.00  0.00    -0.090 C  
HETATM   25  O   UNL     1      -6.812   9.157  66.170  1.00  0.00    -0.082 OA 
BRANCH  24  26
HETATM   26  C   UNL     1      -8.053   7.057  66.351  1.00  0.00    -0.112 C  
HETATM   27  N   UNL     1      -8.535   6.951  64.946  1.00  0.00    -0.338 NA 
HETATM   28  H2  UNL     1      -7.877   7.363  64.284  1.00  0.00     0.000 HD 
HETATM   29  H1  UNL     1      -8.745   5.978  64.722  1.00  0.00     0.000 HD 
BRANCH  26  30
HETATM   30  C   UNL     1      -9.029   6.452  67.344  1.00  0.00    -0.109 A  
HETATM   31  C   UNL     1      -8.566   5.520  68.288  1.00  0.00    -0.096 A  
HETATM   32  C   UNL     1      -9.441   4.937  69.206  1.00  0.00    -0.206 A  
HETATM   33  C   UNL     1     -10.792   5.281  69.200  1.00  0.00     0.114 A  
HETATM   34  C   UNL     1     -11.264   6.219  68.285  1.00  0.00    -0.251 A  
HETATM   35  C   UNL     1     -10.388   6.807  67.369  1.00  0.00    -0.286 A  
ENDBRANCH  26  30
ENDBRANCH  24  26
ENDBRANCH   7  22
TORSDOF 10
ENDMDL
MODEL      271
REMARK 921   NORMALIZED FREE ENERGY PREDICTED BY IDOCK:    3.34 KCAL/MOL
REMARK 922        TOTAL FREE ENERGY PREDICTED BY IDOCK:    4.03 KCAL/MOL
REMARK 923 INTER-LIGAND FREE ENERGY PREDICTED BY IDOCK:    1.88 KCAL/MOL
REMARK 924 INTRA-LIGAND FREE ENERGY PREDICTED BY IDOCK:    2.14 KCAL/MOL
REMARK 927      BINDING AFFINITY PREDICTED BY RF-SCORE:    0.00 PKD
ROOT
HETATM    1  C   UNL     1      -9.569  10.769  69.791  1.00  0.00     0.325 C  
HETATM    2  S   UNL     1      -8.879  12.482  69.658  1.00  0.00     2.407 SA 
HETATM    3  C   UNL     1     -10.512  13.259  69.261  1.00  0.00     0.200 C  
HETATM    4  C   UNL     1     -11.578  12.256  69.747  1.00  0.00    -0.243 C  
HETATM    5  C   UNL     1     -10.602  14.647  69.896  1.00  0.00    -0.012 C  
HETATM    6  C   UNL     1     -10.559  13.448  67.730  1.00  0.00    -0.252 C  
HETATM    7  C   UNL     1      -9.522   9.873  68.522  1.00  0.00    -0.146 C  
HETATM    8  N   UNL     1     -11.018  10.917  69.568  1.00  0.00    -0.247 N  
HETATM    9  O   UNL     1     -11.787  10.363  67.427  1.00  0.00     0.013 OA 
HETATM   10  C   UNL     1     -10.993  10.318  68.338  1.00  0.00    -0.260 C  
ENDROOT
BRANCH   4  11
HETATM   11  C   UNL     1     -12.020  12.379  71.221  1.00  0.00     0.676 C  
HETATM   12  O   UNL     1     -12.491  13.377  71.753  1.00  0.00    -0.186 OA 
BRANCH  11  13
HETATM   13  O   UNL     1     -11.724  11.234  71.902  1.00  0.00     1.144 OA 
BRANCH  13  14
HETATM   14  C   UNL     1     -12.866  10.392  72.124  1.00  0.00    -0.223 C  
HETATM   15  C   UNL     1     -13.632  10.174  70.828  1.00  0.00     0.083 C  
BRANCH  14  16
HETATM   16  O   UNL     1     -12.418   9.099  72.554  1.00  0.00    -0.308 OA 
BRANCH  16  17
HETATM   17  C   UNL     1     -12.504   8.161  71.581  1.00  0.00    -0.319 C  
HETATM   18  O   UNL     1     -11.956   8.220  70.489  1.00  0.00    -0.113 OA 
BRANCH  17  19
HETATM   19  O   UNL     1     -13.394   7.219  71.975  1.00  0.00    -0.233 OA 
BRANCH  19  20
HETATM   20  C   UNL     1     -12.993   5.865  71.715  1.00  0.00     1.047 C  
HETATM   21  C   UNL     1     -11.830   5.515  72.626  1.00  0.00    -0.176 C  
ENDBRANCH  19  20
ENDBRANCH  17  19
ENDBRANCH  16  17
ENDBRANCH  14  16
ENDBRANCH  13  14
ENDBRANCH  11  13
ENDBRANCH   4  11
BRANCH   7  22
HETATM   22  N   UNL     1      -8.579  10.261  67.447  1.00  0.00    -0.125 N  
HETATM   23  H   UNL     1      -7.765  10.829  67.683  1.00  0.00     0.000 HD 
HETATM   24  C   UNL     1      -8.770   9.875  66.137  1.00  0.00    -0.136 C  
HETATM   25  O   UNL     1      -9.777   9.276  65.766  1.00  0.00    -0.278 OA 
BRANCH  24  26
HETATM   26  C   UNL     1      -7.621  10.272  65.180  1.00  0.00    -0.133 C  
HETATM   27  N   UNL     1      -8.157  11.086  64.054  1.00  0.00    -0.281 NA 
HETATM   28  H2  UNL     1      -8.678  11.899  64.384  1.00  0.00     0.000 HD 
HETATM   29  H1  UNL     1      -7.400  11.348  63.423  1.00  0.00     0.000 HD 
BRANCH  26  30
HETATM   30  C   UNL     1      -6.849   9.057  64.698  1.00  0.00    -0.084 A  
HETATM   31  C   UNL     1      -6.175   9.111  63.466  1.00  0.00    -0.089 A  
HETATM   32  C   UNL     1      -5.465   8.007  62.990  1.00  0.00    -0.059 A  
HETATM   33  C   UNL     1      -5.413   6.834  63.741  1.00  0.00    -0.027 A  
HETATM   34  C   UNL     1      -6.057   6.771  64.974  1.00  0.00    -0.035 A  
HETATM   35  C   UNL     1      -6.762   7.876  65.454  1.00  0.00    -0.048 A  
ENDBRANCH  26  30
ENDBRANCH  24  26
ENDBRANCH   7  22
TORSDOF 10
ENDMDL
MODEL      272
REMARK 921   NORMALIZED FREE ENERGY PREDICTED BY IDOCK:    3.72 KCAL/MOL
REMARK 922        TOTAL FREE ENERGY PREDICTED BY IDOCK:    4.63 KCAL/MOL
REMARK 923 INTER-LIGAND FREE ENERGY PREDICTED BY IDOCK:   -0.77 KCAL/MOL
REMARK 924 INTRA-LIGAND FREE ENERGY PREDICTED BY IDOCK:    5.40 KCAL/MOL
REMARK 927      BINDING AFFINITY PREDICTED BY RF-SCORE:    0.00 PKD
ROOT
HETATM    1  C   UNL     1     -10.884  15.054  65.915  1.00  0.00    -0.337 C  
HETATM    2  S   UNL     1      -9.128  14.546  65.623  1.00  0.00     0.840 SA 
HETATM    3  C   UNL     1      -9.169  13.179  66.869  1.00  0.00    -0.236 C  
HETATM    4  C   UNL     1     -10.662  12.853  67.079  1.00  0.00    -0.257 C  
HETATM    5  C   UNL     1      -8.319  12.002  66.388  1.00  0.00     0.053 C  
HETATM    6  C   UNL     1      -8.515  13.724  68.157  1.00  0.00    -0.173 C  
HETATM    7  C   UNL     1     -11.143  16.193  66.940  1.00  0.00     0.011 C  
HETATM    8  N   UNL     1     -11.399  14.106  66.918  1.00  0.00    -0.317 N  
HETATM    9  O   UNL     1     -11.485  14.893  69.123  1.00  0.00    -0.270 OA 
HETATM   10  C   UNL     1     -11.445  15.035  67.922  1.00  0.00    -0.340 C  
ENDROOT
BRANCH   4  11
HETATM   11  C   UNL     1     -11.286  11.822  66.115  1.00  0.00    -0.306 C  
HETATM   12  O   UNL     1     -12.098  12.061  65.229  1.00  0.00    -0.404 OA 
BRANCH  11  13
HETATM   13  O   UNL     1     -10.883  10.560  66.444  1.00  0.00    -0.146 OA 
BRANCH  13  14
HETATM   14  C   UNL     1     -10.935  10.296  67.855  1.00  0.00    -0.292 C  
HETATM   15  C   UNL     1     -10.524  11.528  68.647  1.00  0.00    -0.224 C  
BRANCH  14  16
HETATM   16  O   UNL     1     -12.290  10.008  68.227  1.00  0.00     0.975 OA 
BRANCH  16  17
HETATM   17  C   UNL     1     -12.523  10.186  69.549  1.00  0.00     0.447 C  
HETATM   18  O   UNL     1     -12.139  11.137  70.215  1.00  0.00    -0.316 OA 
BRANCH  17  19
HETATM   19  O   UNL     1     -13.140   9.079  70.026  1.00  0.00     1.212 OA 
BRANCH  19  20
HETATM   20  C   UNL     1     -12.342   8.279  70.912  1.00  0.00    -0.039 C  
HETATM   21  C   UNL     1     -12.067   9.074  72.177  1.00  0.00    -0.412 C  
ENDBRANCH  19  20
ENDBRANCH  17  19
ENDBRANCH  16  17
ENDBRANCH  14  16
ENDBRANCH  13  14
ENDBRANCH  11  13
ENDBRANCH   4  11
BRANCH   7  22
HETATM   22  N   UNL     1     -10.002  17.071  67.289  1.00  0.00    -0.268 N  
HETATM   23  H   UNL     1      -9.098  16.647  67.499  1.00  0.00     0.000 HD 
HETATM   24  C   UNL     1     -10.126  18.443  67.339  1.00  0.00    -0.353 C  
HETATM   25  O   UNL     1     -11.207  19.012  67.196  1.00  0.00    -0.223 OA 
BRANCH  24  26
HETATM   26  C   UNL     1      -8.802  19.196  67.603  1.00  0.00    -0.295 C  
HETATM   27  N   UNL     1      -9.088  20.550  68.153  1.00  0.00     0.041 NA 
HETATM   28  H2  UNL     1      -9.678  20.508  68.985  1.00  0.00     0.000 HD 
HETATM   29  H1  UNL     1      -8.215  21.047  68.326  1.00  0.00     0.000 HD 
BRANCH  26  30
HETATM   30  C   UNL     1      -7.930  19.249  66.361  1.00  0.00    -0.310 A  
HETATM   31  C   UNL     1      -6.879  18.329  66.214  1.00  0.00    -0.275 A  
HETATM   32  C   UNL     1      -6.053  18.360  65.089  1.00  0.00    -0.218 A  
HETATM   33  C   UNL     1      -6.268  19.307  64.090  1.00  0.00     0.094 A  
HETATM   34  C   UNL     1      -7.319  20.214  64.210  1.00  0.00     1.204 A  
HETATM   35  C   UNL     1      -8.149  20.180  65.332  1.00  0.00     0.361 A  
ENDBRANCH  26  30
ENDBRANCH  24  26
ENDBRANCH   7  22
TORSDOF 10
ENDMDL
MODEL      273
REMARK 921   NORMALIZED FREE ENERGY PREDICTED BY IDOCK:    3.89 KCAL/MOL
REMARK 922        TOTAL FREE ENERGY PREDICTED BY IDOCK:    4.91 KCAL/MOL
REMARK 923 INTER-LIGAND FREE ENERGY PREDICTED BY IDOCK:    1.30 KCAL/MOL
REMARK 924 INTRA-LIGAND FREE ENERGY PREDICTED BY IDOCK:    3.61 KCAL/MOL
REMARK 927      BINDING AFFINITY PREDICTED BY RF-SCORE:    0.00 PKD
ROOT
HETATM    1  C   UNL     1      -8.855  10.102  68.947  1.00  0.00    -0.154 C  
HETATM    2  S   UNL     1      -9.886   9.816  67.437  1.00  0.00    -0.184 SA 
HETATM    3  C   UNL     1     -11.318  10.812  68.055  1.00  0.00    -0.307 C  
HETATM    4  C   UNL     1     -10.745  11.726  69.157  1.00  0.00    -0.124 C  
HETATM    5  C   UNL     1     -11.986  11.550  66.895  1.00  0.00     0.363 C  
HETATM    6  C   UNL     1     -12.350   9.812  68.620  1.00  0.00     2.303 C  
HETATM    7  C   UNL     1      -8.921   9.035  70.076  1.00  0.00    -0.175 C  
HETATM    8  N   UNL     1      -9.664  10.984  69.807  1.00  0.00     0.370 N  
HETATM    9  O   UNL     1     -10.799   9.938  71.569  1.00  0.00    -0.166 OA 
HETATM   10  C   UNL     1      -9.929  10.010  70.731  1.00  0.00     0.250 C  
ENDROOT
BRANCH   4  11
HETATM   11  C   UNL     1     -10.164  13.080  68.698  1.00  0.00    -0.164 C  
HETATM   12  O   UNL     1     -10.809  14.072  68.381  1.00  0.00    -0.235 OA 
BRANCH  11  13
HETATM   13  O   UNL     1      -8.806  13.002  68.593  1.00  0.00    -0.082 OA 
BRANCH  13  14
HETATM   14  C   UNL     1      -8.363  12.395  67.369  1.00  0.00    -0.180 C  
HETATM   15  C   UNL     1      -8.578  13.337  66.194  1.00  0.00     0.675 C  
BRANCH  14  16
HETATM   16  O   UNL     1      -6.951  12.159  67.447  1.00  0.00    -0.121 OA 
BRANCH  16  17
HETATM   17  C   UNL     1      -6.514  11.261  66.532  1.00  0.00    -0.111 C  
HETATM   18  O   UNL     1      -6.658  11.356  65.321  1.00  0.00     0.551 OA 
BRANCH  17  19
HETATM   19  O   UNL     1      -6.010  10.192  67.193  1.00  0.00    -0.050 OA 
BRANCH  19  20
HETATM   20  C   UNL     1      -5.318  10.507  68.410  1.00  0.00    -0.033 C  
HETATM   21  C   UNL     1      -5.152  12.013  68.505  1.00  0.00    -0.046 C  
ENDBRANCH  19  20
ENDBRANCH  17  19
ENDBRANCH  16  17
ENDBRANCH  14  16
ENDBRANCH  13  14
ENDBRANCH  11  13
ENDBRANCH   4  11
BRANCH   7  22
HETATM   22  N   UNL     1      -9.440   7.694  69.719  1.00  0.00    -0.157 N  
HETATM   23  H   UNL     1     -10.225   7.624  69.071  1.00  0.00     0.000 HD 
HETATM   24  C   UNL     1      -8.893   6.540  70.238  1.00  0.00    -0.151 C  
HETATM   25  O   UNL     1      -8.014   6.555  71.098  1.00  0.00    -0.108 OA 
BRANCH  24  26
HETATM   26  C   UNL     1      -9.487   5.235  69.659  1.00  0.00    -0.141 C  
HETATM   27  N   UNL     1     -10.968   5.239  69.812  1.00  0.00     0.024 NA 
HETATM   28  H2  UNL     1     -11.393   6.070  69.400  1.00  0.00     0.000 HD 
HETATM   29  H1  UNL     1     -11.360   4.378  69.431  1.00  0.00     0.000 HD 
BRANCH  26  30
HETATM   30  C   UNL     1      -8.846   4.005  70.275  1.00  0.00    -0.141 A  
HETATM   31  C   UNL     1      -7.765   3.388  69.624  1.00  0.00    -0.050 A  
HETATM   32  C   UNL     1      -7.162   2.249  70.159  1.00  0.00    -0.033 A  
HETATM   33  C   UNL     1      -7.625   1.711  71.358  1.00  0.00    -0.036 A  
HETATM   34  C   UNL     1      -8.682   2.322  72.029  1.00  0.00    -0.097 A  
HETATM   35  C   UNL     1      -9.283   3.465  71.497  1.00  0.00    -0.192 A  
ENDBRANCH  26  30
ENDBRANCH  24  26
ENDBRANCH   7  22
TORSDOF 10
ENDMDL
MODEL      274
REMARK 921   NORMALIZED FREE ENERGY PREDICTED BY IDOCK:    3.98 KCAL/MOL
REMARK 922        TOTAL FREE ENERGY PREDICTED BY IDOCK:    5.05 KCAL/MOL
REMARK 923 INTER-LIGAND FREE ENERGY PREDICTED BY IDOCK:    0.35 KCAL/MOL
REMARK 924 INTRA-LIGAND FREE ENERGY PREDICTED BY IDOCK:    4.70 KCAL/MOL
REMARK 927      BINDING AFFINITY PREDICTED BY RF-SCORE:    0.00 PKD
ROOT
HETATM    1  C   UNL     1      -8.498  10.762  68.250  1.00  0.00    -0.130 C  
HETATM    2  S   UNL     1      -8.513   9.659  69.737  1.00  0.00    -0.206 SA 
HETATM    3  C   UNL     1      -6.669   9.530  69.832  1.00  0.00    -0.063 C  
HETATM    4  C   UNL     1      -6.126  10.736  69.039  1.00  0.00    -0.041 C  
HETATM    5  C   UNL     1      -6.220   9.471  71.293  1.00  0.00    -0.042 C  
HETATM    6  C   UNL     1      -6.277   8.189  69.175  1.00  0.00    -0.039 C  
HETATM    7  C   UNL     1      -8.619  10.089  66.853  1.00  0.00    -0.125 C  
HETATM    8  N   UNL     1      -7.074  10.995  67.955  1.00  0.00    -0.076 N  
HETATM    9  O   UNL     1      -6.164   9.719  66.214  1.00  0.00    -0.065 OA 
HETATM   10  C   UNL     1      -7.078  10.231  66.820  1.00  0.00    -0.094 C  
ENDROOT
BRANCH   4  11
HETATM   11  C   UNL     1      -5.948  12.054  69.822  1.00  0.00    -0.136 C  
HETATM   12  O   UNL     1      -5.133  12.261  70.713  1.00  0.00    -0.109 OA 
BRANCH  11  13
HETATM   13  O   UNL     1      -6.904  12.957  69.454  1.00  0.00    -0.066 OA 
BRANCH  13  14
HETATM   14  C   UNL     1      -6.599  14.302  69.855  1.00  0.00    -0.109 C  
HETATM   15  C   UNL     1      -5.277  14.755  69.256  1.00  0.00    -0.089 C  
BRANCH  14  16
HETATM   16  O   UNL     1      -7.604  15.184  69.334  1.00  0.00    -0.185 OA 
BRANCH  16  17
HETATM   17  C   UNL     1      -7.097  16.133  68.512  1.00  0.00    -0.139 C  
HETATM   18  O   UNL     1      -6.710  15.946  67.367  1.00  0.00    -0.166 OA 
BRANCH  17  19
HETATM   19  O   UNL     1      -6.978  17.285  69.213  1.00  0.00    -0.239 OA 
BRANCH  19  20
HETATM   20  C   UNL     1      -6.052  17.230  70.309  1.00  0.00     0.105 C  
HETATM   21  C   UNL     1      -5.668  18.646  70.700  1.00  0.00    -0.123 C  
ENDBRANCH  19  20
ENDBRANCH  17  19
ENDBRANCH  16  17
ENDBRANCH  14  16
ENDBRANCH  13  14
ENDBRANCH  11  13
ENDBRANCH   4  11
BRANCH   7  22
HETATM   22  N   UNL     1      -9.153   8.708  66.804  1.00  0.00    -0.142 N  
HETATM   23  H   UNL     1     -10.110   8.536  67.113  1.00  0.00     0.000 HD 
HETATM   24  C   UNL     1      -8.394   7.649  66.354  1.00  0.00    -0.129 C  
HETATM   25  O   UNL     1      -7.205   7.767  66.063  1.00  0.00    -0.070 OA 
BRANCH  24  26
HETATM   26  C   UNL     1      -9.158   6.308  66.262  1.00  0.00    -0.153 C  
HETATM   27  N   UNL     1     -10.349   6.461  65.382  1.00  0.00     1.044 NA 
HETATM   28  H2  UNL     1     -10.100   6.824  64.461  1.00  0.00     0.000 HD 
HETATM   29  H1  UNL     1     -10.853   5.576  65.321  1.00  0.00     0.000 HD 
BRANCH  26  30
HETATM   30  C   UNL     1      -9.520   5.773  67.636  1.00  0.00    -0.114 A  
HETATM   31  C   UNL     1     -10.440   4.718  67.747  1.00  0.00     0.081 A  
HETATM   32  C   UNL     1     -10.802   4.212  68.997  1.00  0.00     2.528 A  
HETATM   33  C   UNL     1     -10.246   4.750  70.156  1.00  0.00    -0.259 A  
HETATM   34  C   UNL     1      -9.315   5.782  70.063  1.00  0.00    -0.175 A  
HETATM   35  C   UNL     1      -8.948   6.285  68.813  1.00  0.00    -0.125 A  
ENDBRANCH  26  30
ENDBRANCH  24  26
ENDBRANCH   7  22
TORSDOF 10
ENDMDL
MODEL      275
REMARK 921   NORMALIZED FREE ENERGY PREDICTED BY IDOCK:    5.37 KCAL/MOL
REMARK 922        TOTAL FREE ENERGY PREDICTED BY IDOCK:    7.24 KCAL/MOL
REMARK 923 INTER-LIGAND FREE ENERGY PREDICTED BY IDOCK:   -0.33 KCAL/MOL
REMARK 924 INTRA-LIGAND FREE ENERGY PREDICTED BY IDOCK:    7.58 KCAL/MOL
REMARK 927      BINDING AFFINITY PREDICTED BY RF-SCORE:    0.00 PKD
ROOT
HETATM    1  C   UNL     1      -8.954  10.128  68.886  1.00  0.00    -0.155 C  
HETATM    2  S   UNL     1      -9.809   9.995  67.251  1.00  0.00    -0.190 SA 
HETATM    3  C   UNL     1     -11.170  11.163  67.709  1.00  0.00    -0.294 C  
HETATM    4  C   UNL     1     -10.630  11.983  68.899  1.00  0.00    -0.159 C  
HETATM    5  C   UNL     1     -11.582  11.995  66.494  1.00  0.00    -0.384 C  
HETATM    6  C   UNL     1     -12.386  10.302  68.112  1.00  0.00     2.297 C  
HETATM    7  C   UNL     1      -9.301   9.068  69.969  1.00  0.00    -0.183 C  
HETATM    8  N   UNL     1      -9.747  11.100  69.660  1.00  0.00     0.327 N  
HETATM    9  O   UNL     1     -11.224  10.194  71.236  1.00  0.00    -0.290 OA 
HETATM   10  C   UNL     1     -10.251  10.160  70.517  1.00  0.00     0.035 C  
ENDROOT
BRANCH   4  11
HETATM   11  C   UNL     1      -9.826  13.254  68.553  1.00  0.00    -0.168 C  
HETATM   12  O   UNL     1     -10.292  14.326  68.186  1.00  0.00    -0.224 OA 
BRANCH  11  13
HETATM   13  O   UNL     1      -8.487  13.000  68.617  1.00  0.00    -0.088 OA 
BRANCH  13  14
HETATM   14  C   UNL     1      -7.991  12.274  67.481  1.00  0.00    -0.166 C  
HETATM   15  C   UNL     1      -8.046  13.134  66.228  1.00  0.00     1.078 C  
BRANCH  14  16
HETATM   16  O   UNL     1      -6.609  11.957  67.696  1.00  0.00    -0.078 OA 
BRANCH  16  17
HETATM   17  C   UNL     1      -6.144  11.016  66.839  1.00  0.00    -0.089 C  
HETATM   18  O   UNL     1      -6.115  11.119  65.621  1.00  0.00    -0.039 OA 
BRANCH  17  19
HETATM   19  O   UNL     1      -5.839   9.906  67.552  1.00  0.00    -0.052 OA 
BRANCH  19  20
HETATM   20  C   UNL     1      -5.443  10.151  68.910  1.00  0.00    -0.034 C  
HETATM   21  C   UNL     1      -5.363  11.651  69.135  1.00  0.00    -0.047 C  
ENDBRANCH  19  20
ENDBRANCH  17  19
ENDBRANCH  16  17
ENDBRANCH  14  16
ENDBRANCH  13  14
ENDBRANCH  11  13
ENDBRANCH   4  11
BRANCH   7  22
HETATM   22  N   UNL     1      -9.938   7.810  69.514  1.00  0.00    -0.184 N  
HETATM   23  H   UNL     1     -10.597   7.337  70.132  1.00  0.00     0.000 HD 
HETATM   24  C   UNL     1      -9.665   7.262  68.279  1.00  0.00    -0.147 C  
HETATM   25  O   UNL     1      -8.809   7.723  67.527  1.00  0.00    -0.124 OA 
BRANCH  24  26
HETATM   26  C   UNL     1     -10.513   6.016  67.931  1.00  0.00    -0.234 C  
HETATM   27  N   UNL     1     -11.045   5.400  69.178  1.00  0.00     0.173 NA 
HETATM   28  H2  UNL     1     -11.564   6.071  69.744  1.00  0.00     0.000 HD 
HETATM   29  H1  UNL     1     -11.604   4.578  68.949  1.00  0.00     0.000 HD 
BRANCH  26  30
HETATM   30  C   UNL     1      -9.734   5.025  67.085  1.00  0.00    -0.180 A  
HETATM   31  C   UNL     1      -9.099   5.467  65.912  1.00  0.00    -0.163 A  
HETATM   32  C   UNL     1      -8.385   4.578  65.106  1.00  0.00    -0.122 A  
HETATM   33  C   UNL     1      -8.288   3.235  65.464  1.00  0.00    -0.099 A  
HETATM   34  C   UNL     1      -8.893   2.784  66.634  1.00  0.00    -0.154 A  
HETATM   35  C   UNL     1      -9.603   3.673  67.444  1.00  0.00    -0.197 A  
ENDBRANCH  26  30
ENDBRANCH  24  26
ENDBRANCH   7  22
TORSDOF 10
ENDMDL
MODEL      276
REMARK 921   NORMALIZED FREE ENERGY PREDICTED BY IDOCK:   10.24 KCAL/MOL
REMARK 922        TOTAL FREE ENERGY PREDICTED BY IDOCK:   14.96 KCAL/MOL
REMARK 923 INTER-LIGAND FREE ENERGY PREDICTED BY IDOCK:    5.16 KCAL/MOL
REMARK 924 INTRA-LIGAND FREE ENERGY PREDICTED BY IDOCK:    9.80 KCAL/MOL
REMARK 927      BINDING AFFINITY PREDICTED BY RF-SCORE:    0.00 PKD
ROOT
HETATM    1  C   UNL     1     -11.873  14.695  66.183  1.00  0.00    -0.277 C  
HETATM    2  S   UNL     1     -10.225  14.276  66.914  1.00  0.00    -0.269 SA 
HETATM    3  C   UNL     1      -9.336  15.653  66.053  1.00  0.00    -0.349 C  
HETATM    4  C   UNL     1     -10.428  16.665  65.651  1.00  0.00    -0.297 C  
HETATM    5  C   UNL     1      -8.240  16.219  66.956  1.00  0.00    -0.238 C  
HETATM    6  C   UNL     1      -8.643  15.037  64.818  1.00  0.00     5.478 C  
HETATM    7  C   UNL     1     -12.292  13.955  64.881  1.00  0.00    -0.420 C  
HETATM    8  N   UNL     1     -11.638  15.895  65.361  1.00  0.00     0.171 N  
HETATM    9  O   UNL     1     -11.430  15.535  63.056  1.00  0.00     1.731 OA 
HETATM   10  C   UNL     1     -11.790  15.236  64.172  1.00  0.00    -0.124 C  
ENDROOT
BRANCH   4  11
HETATM   11  C   UNL     1     -10.800  17.732  66.702  1.00  0.00     0.020 C  
HETATM   12  O   UNL     1     -11.516  17.562  67.681  1.00  0.00     0.245 OA 
BRANCH  11  13
HETATM   13  O   UNL     1     -10.297  18.949  66.341  1.00  0.00    -0.391 OA 
BRANCH  13  14
HETATM   14  C   UNL     1      -8.944  18.885  65.862  1.00  0.00     0.181 C  
HETATM   15  C   UNL     1      -8.618  20.104  65.014  1.00  0.00     1.416 C  
BRANCH  14  16
HETATM   16  O   UNL     1      -8.049  18.918  66.982  1.00  0.00    -0.252 OA 
BRANCH  16  17
HETATM   17  C   UNL     1      -8.355  19.892  67.873  1.00  0.00    -0.286 C  
HETATM   18  O   UNL     1      -7.554  20.470  68.593  1.00  0.00     0.070 OA 
BRANCH  17  19
HETATM   19  O   UNL     1      -9.702  20.022  67.916  1.00  0.00    -0.367 OA 
BRANCH  19  20
HETATM   20  C   UNL     1     -10.273  19.944  69.231  1.00  0.00    -0.114 C  
HETATM   21  C   UNL     1     -10.467  21.351  69.767  1.00  0.00     1.778 C  
ENDBRANCH  19  20
ENDBRANCH  17  19
ENDBRANCH  16  17
ENDBRANCH  14  16
ENDBRANCH  13  14
ENDBRANCH  11  13
ENDBRANCH   4  11
BRANCH   7  22
HETATM   22  N   UNL     1     -11.579  12.698  64.551  1.00  0.00    -0.328 N  
HETATM   23  H   UNL     1     -11.856  12.177  63.718  1.00  0.00     0.000 HD 
HETATM   24  C   UNL     1     -10.555  12.214  65.335  1.00  0.00    -0.272 C  
HETATM   25  O   UNL     1     -10.238  12.736  66.403  1.00  0.00    -0.244 OA 
BRANCH  24  26
HETATM   26  C   UNL     1      -9.854  10.958  64.768  1.00  0.00    -0.288 C  
HETATM   27  N   UNL     1     -10.375  10.657  63.406  1.00  0.00    -0.504 NA 
HETATM   28  H2  UNL     1     -10.292  11.459  62.779  1.00  0.00     0.000 HD 
HETATM   29  H1  UNL     1      -9.913   9.829  63.031  1.00  0.00     0.000 HD 
BRANCH  26  30
HETATM   30  C   UNL     1      -9.978   9.773  65.708  1.00  0.00    -0.349 A  
HETATM   31  C   UNL     1     -10.820   9.865  66.829  1.00  0.00    -0.085 A  
HETATM   32  C   UNL     1     -10.947   8.797  67.719  1.00  0.00     0.063 A  
HETATM   33  C   UNL     1     -10.239   7.617  67.499  1.00  0.00    -0.294 A  
HETATM   34  C   UNL     1      -9.416   7.500  66.381  1.00  0.00    -0.208 A  
HETATM   35  C   UNL     1      -9.293   8.566  65.487  1.00  0.00    -0.039 A  
ENDBRANCH  26  30
ENDBRANCH  24  26
ENDBRANCH   7  22
TORSDOF 10
ENDMDL
