MODEL        1
REMARK 921   NORMALIZED FREE ENERGY PREDICTED BY IDOCK:   -7.32 KCAL/MOL
REMARK 922        TOTAL FREE ENERGY PREDICTED BY IDOCK:  -10.62 KCAL/MOL
REMARK 923 INTER-LIGAND FREE ENERGY PREDICTED BY IDOCK:   -9.89 KCAL/MOL
REMARK 924 INTRA-LIGAND FREE ENERGY PREDICTED BY IDOCK:   -0.74 KCAL/MOL
REMARK 927      BINDING AFFINITY PREDICTED BY RF-SCORE:    0.00 PKD
ROOT
HETATM    1  C   UNL     1     -10.542  13.605  64.962  1.00  0.00    -0.383 C  
HETATM    2  C   UNL     1     -11.603  14.462  64.210  1.00  0.00    -0.262 C  
HETATM    3  O   UNL     1     -12.552  13.701  63.450  1.00  0.00    -0.799 OA 
HETATM    4  C   UNL     1     -13.143  12.698  64.273  1.00  0.00     0.043 C  
HETATM    5  C   UNL     1     -12.106  11.641  64.629  1.00  0.00     0.119 C  
HETATM    6  N   UNL     1     -10.800  12.181  65.006  1.00  0.00    -0.290 N  
HETATM    7  C   UNL     1      -9.787  11.313  65.410  1.00  0.00    -0.237 C  
HETATM    8  O   UNL     1      -9.846  10.110  65.168  1.00  0.00    -0.290 OA 
HETATM    9  C   UNL     1      -8.794  11.938  66.403  1.00  0.00    -0.152 C  
HETATM   10  C   UNL     1      -7.979  11.126  67.124  1.00  0.00    -0.139 C  
HETATM   11  N   UNL     1     -10.092  14.046  66.290  1.00  0.00    -0.291 NA 
HETATM   12  C   UNL     1      -7.122  11.779  68.182  1.00  0.00    -0.079 C  
HETATM   13  O   UNL     1      -6.422  11.142  68.963  1.00  0.00    -0.055 OA 
HETATM   14  N   UNL     1      -8.925  13.316  66.698  1.00  0.00    -0.179 NA 
HETATM   15  C   UNL     1      -7.121  13.251  68.275  1.00  0.00    -0.109 C  
HETATM   16  C   UNL     1      -8.010  13.916  67.536  1.00  0.00    -0.179 C  
ENDROOT
BRANCH  10  17
HETATM   17  O   UNL     1      -8.056   9.750  67.036  1.00  0.00    -0.112 OA 
BRANCH  17  18
HETATM   18  C   UNL     1      -8.483   9.047  68.198  1.00  0.00    -0.129 C  
BRANCH  18  19
HETATM   19  O   UNL     1      -9.709   8.367  67.928  1.00  0.00    -0.149 OA 
BRANCH  19  20
HETATM   20  C   UNL     1     -10.179   7.696  69.003  1.00  0.00    -0.206 C  
HETATM   21  O   UNL     1      -9.912   7.924  70.175  1.00  0.00    -0.188 OA 
BRANCH  20  22
HETATM   22  O   UNL     1     -11.041   6.744  68.561  1.00  0.00    -0.213 OA 
HETATM   23  C   UNL     1     -10.929   6.481  67.167  1.00  0.00    -0.408 C  
ENDBRANCH  20  22
ENDBRANCH  19  20
ENDBRANCH  18  19
ENDBRANCH  17  18
ENDBRANCH  10  17
BRANCH  11  24
HETATM   24  C   UNL     1     -11.076  14.465  67.388  1.00  0.00    -0.308 C  
HETATM   25  C   UNL     1     -11.411  13.412  68.506  1.00  0.00    -0.345 A  
HETATM   26  C   UNL     1     -10.940  12.089  68.478  1.00  0.00    -0.280 A  
HETATM   27  C   UNL     1     -11.151  11.101  69.445  1.00  0.00    -0.314 A  
HETATM   28  C   UNL     1     -11.925  11.411  70.523  1.00  0.00    -0.356 A  
HETATM   29  C   UNL     1     -12.493  12.667  70.592  1.00  0.00    -0.239 A  
HETATM   30  F   UNL     1     -12.105  10.507  71.494  1.00  0.00    -0.432 F  
HETATM   31  F   UNL     1     -13.260  12.965  71.653  1.00  0.00    -0.449 F  
HETATM   32  C   UNL     1     -12.275  13.657  69.590  1.00  0.00    -0.326 A  
HETATM   33  C   UNL     1     -12.857  15.008  69.840  1.00  0.00    -0.001 C  
HETATM   34  S   UNL     1     -11.533  15.974  70.584  1.00  0.00    -0.371 SA 
HETATM   35  C   UNL     1     -10.704  16.523  69.103  1.00  0.00    -0.335 A  
HETATM   36  C   UNL     1     -10.077  17.773  69.322  1.00  0.00    -0.135 A  
HETATM   37  C   UNL     1      -9.590  18.544  68.280  1.00  0.00    -0.370 A  
HETATM   38  C   UNL     1      -9.786  18.102  66.985  1.00  0.00    -0.324 A  
HETATM   39  C   UNL     1     -10.353  16.835  66.754  1.00  0.00    -0.293 A  
HETATM   40  C   UNL     1     -10.732  15.958  67.808  1.00  0.00    -0.320 A  
ENDBRANCH  11  24
TORSDOF 6
ENDMDL
MODEL        2
REMARK 921   NORMALIZED FREE ENERGY PREDICTED BY IDOCK:   -7.25 KCAL/MOL
REMARK 922        TOTAL FREE ENERGY PREDICTED BY IDOCK:  -10.53 KCAL/MOL
REMARK 923 INTER-LIGAND FREE ENERGY PREDICTED BY IDOCK:   -9.85 KCAL/MOL
REMARK 924 INTRA-LIGAND FREE ENERGY PREDICTED BY IDOCK:   -0.68 KCAL/MOL
REMARK 927      BINDING AFFINITY PREDICTED BY RF-SCORE:    0.00 PKD
ROOT
HETATM    1  C   UNL     1     -12.262  15.076  69.026  1.00  0.00    -0.125 C  
HETATM    2  C   UNL     1     -12.614  15.907  70.295  1.00  0.00    -0.023 C  
HETATM    3  O   UNL     1     -12.940  15.121  71.450  1.00  0.00    -0.339 OA 
HETATM    4  C   UNL     1     -11.914  14.162  71.691  1.00  0.00     0.020 C  
HETATM    5  C   UNL     1     -11.913  13.112  70.587  1.00  0.00    -0.162 C  
HETATM    6  N   UNL     1     -12.063  13.658  69.238  1.00  0.00    -0.335 N  
HETATM    7  C   UNL     1     -12.017  12.799  68.140  1.00  0.00    -0.246 C  
HETATM    8  O   UNL     1     -12.166  11.587  68.274  1.00  0.00    -0.561 OA 
HETATM    9  C   UNL     1     -11.484  13.460  66.859  1.00  0.00    -0.342 C  
HETATM   10  C   UNL     1     -11.073  12.674  65.831  1.00  0.00    -0.289 C  
HETATM   11  N   UNL     1     -11.211  15.572  68.126  1.00  0.00    -0.330 NA 
HETATM   12  C   UNL     1     -10.432  13.366  64.653  1.00  0.00    -0.411 C  
HETATM   13  O   UNL     1      -9.931  12.759  63.711  1.00  0.00    -0.346 OA 
HETATM   14  N   UNL     1     -11.224  14.851  66.885  1.00  0.00    -0.342 NA 
HETATM   15  C   UNL     1     -10.412  14.841  64.630  1.00  0.00    -0.174 C  
HETATM   16  C   UNL     1     -10.805  15.480  65.733  1.00  0.00    -0.331 C  
ENDROOT
BRANCH  10  17
HETATM   17  O   UNL     1     -11.065  11.296  65.923  1.00  0.00    -0.219 OA 
BRANCH  17  18
HETATM   18  C   UNL     1      -9.801  10.663  66.096  1.00  0.00    -0.217 C  
BRANCH  18  19
HETATM   19  O   UNL     1      -9.888   9.294  65.702  1.00  0.00    -0.289 OA 
BRANCH  19  20
HETATM   20  C   UNL     1      -9.703   8.443  66.737  1.00  0.00    -0.242 C  
HETATM   21  O   UNL     1      -8.667   8.280  67.365  1.00  0.00    -0.123 OA 
BRANCH  20  22
HETATM   22  O   UNL     1     -10.886   7.826  66.991  1.00  0.00    -0.316 OA 
HETATM   23  C   UNL     1     -10.799   6.407  66.980  1.00  0.00    -0.392 C  
ENDBRANCH  20  22
ENDBRANCH  19  20
ENDBRANCH  18  19
ENDBRANCH  17  18
ENDBRANCH  10  17
BRANCH  11  24
HETATM   24  C   UNL     1      -9.850  16.049  68.646  1.00  0.00    -0.218 C  
HETATM   25  C   UNL     1      -8.697  14.985  68.751  1.00  0.00    -0.186 A  
HETATM   26  C   UNL     1      -8.893  13.617  68.498  1.00  0.00    -0.099 A  
HETATM   27  C   UNL     1      -7.921  12.611  68.525  1.00  0.00    -0.093 A  
HETATM   28  C   UNL     1      -6.648  12.954  68.869  1.00  0.00    -0.095 A  
HETATM   29  C   UNL     1      -6.385  14.266  69.209  1.00  0.00    -0.110 A  
HETATM   30  F   UNL     1      -5.683  12.027  68.854  1.00  0.00    -0.050 F  
HETATM   31  F   UNL     1      -5.130  14.598  69.553  1.00  0.00    -0.089 F  
HETATM   32  C   UNL     1      -7.391  15.275  69.186  1.00  0.00    -0.172 A  
HETATM   33  C   UNL     1      -6.950  16.672  69.469  1.00  0.00    -0.111 C  
HETATM   34  S   UNL     1      -6.657  17.422  67.858  1.00  0.00    -0.168 SA 
HETATM   35  C   UNL     1      -8.319  17.945  67.474  1.00  0.00    -0.228 A  
HETATM   36  C   UNL     1      -8.296  19.092  66.645  1.00  0.00    -0.309 A  
HETATM   37  C   UNL     1      -9.429  19.854  66.412  1.00  0.00    -0.513 A  
HETATM   38  C   UNL     1     -10.598  19.513  67.066  1.00  0.00    -0.607 A  
HETATM   39  C   UNL     1     -10.652  18.341  67.845  1.00  0.00    -0.392 A  
HETATM   40  C   UNL     1      -9.543  17.461  67.986  1.00  0.00    -0.276 A  
ENDBRANCH  11  24
TORSDOF 6
ENDMDL
MODEL        3
REMARK 921   NORMALIZED FREE ENERGY PREDICTED BY IDOCK:   -6.97 KCAL/MOL
REMARK 922        TOTAL FREE ENERGY PREDICTED BY IDOCK:  -10.16 KCAL/MOL
REMARK 923 INTER-LIGAND FREE ENERGY PREDICTED BY IDOCK:   -9.35 KCAL/MOL
REMARK 924 INTRA-LIGAND FREE ENERGY PREDICTED BY IDOCK:   -0.81 KCAL/MOL
REMARK 927      BINDING AFFINITY PREDICTED BY RF-SCORE:    0.00 PKD
ROOT
HETATM    1  C   UNL     1     -10.328   8.284  67.082  1.00  0.00    -0.317 C  
HETATM    2  C   UNL     1      -9.868   6.858  66.658  1.00  0.00    -0.153 C  
HETATM    3  O   UNL     1      -9.049   6.823  65.481  1.00  0.00     0.025 OA 
HETATM    4  C   UNL     1      -7.958   7.730  65.620  1.00  0.00    -0.118 C  
HETATM    5  C   UNL     1      -8.469   9.164  65.603  1.00  0.00    -0.139 C  
HETATM    6  N   UNL     1      -9.673   9.384  66.404  1.00  0.00    -0.229 N  
HETATM    7  C   UNL     1     -10.201  10.669  66.515  1.00  0.00    -0.233 C  
HETATM    8  O   UNL     1      -9.883  11.557  65.727  1.00  0.00    -0.218 OA 
HETATM    9  C   UNL     1     -10.944  10.924  67.836  1.00  0.00    -0.271 C  
HETATM   10  C   UNL     1     -11.204  12.201  68.213  1.00  0.00    -0.268 C  
HETATM   11  N   UNL     1     -10.419   8.599  68.516  1.00  0.00    -0.199 NA 
HETATM   12  C   UNL     1     -11.812  12.402  69.581  1.00  0.00    -0.311 C  
HETATM   13  O   UNL     1     -12.000  13.510  70.074  1.00  0.00    -0.316 OA 
HETATM   14  N   UNL     1     -11.123   9.833  68.720  1.00  0.00    -0.149 NA 
HETATM   15  C   UNL     1     -12.203  11.210  70.357  1.00  0.00    -0.457 C  
HETATM   16  C   UNL     1     -11.840  10.018  69.882  1.00  0.00    -0.074 C  
ENDROOT
BRANCH  10  17
HETATM   17  O   UNL     1     -10.771  13.284  67.474  1.00  0.00    -0.246 OA 
BRANCH  17  18
HETATM   18  C   UNL     1     -11.766  14.072  66.830  1.00  0.00    -0.407 C  
BRANCH  18  19
HETATM   19  O   UNL     1     -11.344  14.396  65.506  1.00  0.00    -0.319 OA 
BRANCH  19  20
HETATM   20  C   UNL     1     -12.332  14.249  64.594  1.00  0.00    -0.415 C  
HETATM   21  O   UNL     1     -12.631  15.043  63.713  1.00  0.00    -0.776 OA 
BRANCH  20  22
HETATM   22  O   UNL     1     -12.913  13.038  64.797  1.00  0.00    -0.735 OA 
HETATM   23  C   UNL     1     -12.605  12.086  63.786  1.00  0.00    -0.454 C  
ENDBRANCH  20  22
ENDBRANCH  19  20
ENDBRANCH  18  19
ENDBRANCH  17  18
ENDBRANCH  10  17
BRANCH  11  24
HETATM   24  C   UNL     1      -9.290   8.265  69.498  1.00  0.00    -0.158 C  
HETATM   25  C   UNL     1      -8.177   9.352  69.725  1.00  0.00    -0.146 A  
HETATM   26  C   UNL     1      -8.117  10.550  68.995  1.00  0.00    -0.143 A  
HETATM   27  C   UNL     1      -7.193  11.587  69.158  1.00  0.00    -0.084 A  
HETATM   28  C   UNL     1      -6.211  11.434  70.090  1.00  0.00    -0.138 A  
HETATM   29  C   UNL     1      -6.150  10.252  70.800  1.00  0.00    -0.071 A  
HETATM   30  F   UNL     1      -5.342  12.428  70.310  1.00  0.00    -0.080 F  
HETATM   31  F   UNL     1      -5.177  10.103  71.713  1.00  0.00    -0.073 F  
HETATM   32  C   UNL     1      -7.094   9.201  70.611  1.00  0.00    -0.099 A  
HETATM   33  C   UNL     1      -6.981   8.023  71.520  1.00  0.00    -0.060 C  
HETATM   34  S   UNL     1      -8.133   8.340  72.868  1.00  0.00    -0.117 SA 
HETATM   35  C   UNL     1      -9.631   7.718  72.124  1.00  0.00    -0.176 A  
HETATM   36  C   UNL     1     -10.511   7.231  73.120  1.00  0.00    -0.385 A  
HETATM   37  C   UNL     1     -11.620   6.463  72.810  1.00  0.00    -0.118 A  
HETATM   38  C   UNL     1     -11.829   6.110  71.490  1.00  0.00    -0.204 A  
HETATM   39  C   UNL     1     -10.997   6.635  70.482  1.00  0.00    -0.337 A  
HETATM   40  C   UNL     1      -9.937   7.543  70.756  1.00  0.00    -0.182 A  
ENDBRANCH  11  24
TORSDOF 6
ENDMDL
MODEL        4
REMARK 921   NORMALIZED FREE ENERGY PREDICTED BY IDOCK:   -6.96 KCAL/MOL
REMARK 922        TOTAL FREE ENERGY PREDICTED BY IDOCK:  -10.14 KCAL/MOL
REMARK 923 INTER-LIGAND FREE ENERGY PREDICTED BY IDOCK:   -9.56 KCAL/MOL
REMARK 924 INTRA-LIGAND FREE ENERGY PREDICTED BY IDOCK:   -0.59 KCAL/MOL
REMARK 927      BINDING AFFINITY PREDICTED BY RF-SCORE:    0.00 PKD
ROOT
HETATM    1  C   UNL     1      -7.143  11.849  67.129  1.00  0.00    -0.142 C  
HETATM    2  C   UNL     1      -5.822  11.291  67.737  1.00  0.00    -0.048 C  
HETATM    3  O   UNL     1      -5.127  12.208  68.593  1.00  0.00    -0.047 OA 
HETATM    4  C   UNL     1      -6.015  12.715  69.586  1.00  0.00    -0.122 C  
HETATM    5  C   UNL     1      -7.058  13.617  68.940  1.00  0.00    -0.102 C  
HETATM    6  N   UNL     1      -7.619  13.093  67.695  1.00  0.00    -0.156 N  
HETATM    7  C   UNL     1      -8.627  13.803  67.043  1.00  0.00    -0.166 C  
HETATM    8  O   UNL     1      -8.840  14.985  67.298  1.00  0.00    -0.179 OA 
HETATM    9  C   UNL     1      -9.588  12.915  66.236  1.00  0.00    -0.243 C  
HETATM   10  C   UNL     1     -10.783  13.423  65.842  1.00  0.00    -0.279 C  
HETATM   11  N   UNL     1      -8.283  10.937  66.962  1.00  0.00    -0.130 NA 
HETATM   12  C   UNL     1     -11.746  12.470  65.174  1.00  0.00    -0.378 C  
HETATM   13  O   UNL     1     -12.892  12.784  64.864  1.00  0.00    -0.722 OA 
HETATM   14  N   UNL     1      -9.294  11.535  66.135  1.00  0.00    -0.211 NA 
HETATM   15  C   UNL     1     -11.285  11.102  64.875  1.00  0.00    -0.027 C  
HETATM   16  C   UNL     1     -10.104  10.727  65.367  1.00  0.00    -0.285 C  
ENDROOT
BRANCH  10  17
HETATM   17  O   UNL     1     -11.188  14.696  66.193  1.00  0.00    -0.333 OA 
BRANCH  17  18
HETATM   18  C   UNL     1     -11.326  15.647  65.142  1.00  0.00    -0.198 C  
BRANCH  18  19
HETATM   19  O   UNL     1     -10.297  16.630  65.241  1.00  0.00    -0.609 OA 
BRANCH  19  20
HETATM   20  C   UNL     1     -10.640  17.664  66.042  1.00  0.00    -0.220 C  
HETATM   21  O   UNL     1     -10.709  17.644  67.263  1.00  0.00    -0.325 OA 
BRANCH  20  22
HETATM   22  O   UNL     1     -10.855  18.751  65.256  1.00  0.00    -0.576 OA 
HETATM   23  C   UNL     1     -10.329  19.956  65.800  1.00  0.00    -0.410 C  
ENDBRANCH  20  22
ENDBRANCH  19  20
ENDBRANCH  18  19
ENDBRANCH  17  18
ENDBRANCH  10  17
BRANCH  11  24
HETATM   24  C   UNL     1      -8.756  10.007  68.085  1.00  0.00    -0.122 C  
HETATM   25  C   UNL     1      -9.946  10.501  68.987  1.00  0.00    -0.223 A  
HETATM   26  C   UNL     1     -10.509  11.783  68.877  1.00  0.00    -0.182 A  
HETATM   27  C   UNL     1     -11.590  12.290  69.603  1.00  0.00    -0.348 A  
HETATM   28  C   UNL     1     -12.157  11.496  70.554  1.00  0.00    -0.378 A  
HETATM   29  C   UNL     1     -11.615  10.246  70.782  1.00  0.00    -0.355 A  
HETATM   30  F   UNL     1     -13.227  11.929  71.232  1.00  0.00    -0.408 F  
HETATM   31  F   UNL     1     -12.172   9.469  71.724  1.00  0.00    -0.389 F  
HETATM   32  C   UNL     1     -10.504   9.751  70.039  1.00  0.00    -0.314 A  
HETATM   33  C   UNL     1     -10.087   8.344  70.308  1.00  0.00    -0.189 C  
HETATM   34  S   UNL     1     -10.918   7.347  69.060  1.00  0.00     0.079 SA 
HETATM   35  C   UNL     1      -9.747   7.517  67.724  1.00  0.00    -0.146 A  
HETATM   36  C   UNL     1      -9.775   6.370  66.895  1.00  0.00    -0.190 A  
HETATM   37  C   UNL     1      -8.796   6.125  65.946  1.00  0.00    -0.151 A  
HETATM   38  C   UNL     1      -7.728   6.999  65.860  1.00  0.00    -0.101 A  
HETATM   39  C   UNL     1      -7.717   8.174  66.635  1.00  0.00    -0.094 A  
HETATM   40  C   UNL     1      -8.780   8.525  67.514  1.00  0.00    -0.135 A  
ENDBRANCH  11  24
TORSDOF 6
ENDMDL
MODEL        5
REMARK 921   NORMALIZED FREE ENERGY PREDICTED BY IDOCK:   -6.93 KCAL/MOL
REMARK 922        TOTAL FREE ENERGY PREDICTED BY IDOCK:  -10.10 KCAL/MOL
REMARK 923 INTER-LIGAND FREE ENERGY PREDICTED BY IDOCK:   -9.19 KCAL/MOL
REMARK 924 INTRA-LIGAND FREE ENERGY PREDICTED BY IDOCK:   -0.91 KCAL/MOL
REMARK 927      BINDING AFFINITY PREDICTED BY RF-SCORE:    0.00 PKD
ROOT
HETATM    1  C   UNL     1      -7.203  11.811  67.090  1.00  0.00    -0.147 C  
HETATM    2  C   UNL     1      -5.856  11.209  67.590  1.00  0.00    -0.048 C  
HETATM    3  O   UNL     1      -5.131  12.048  68.500  1.00  0.00    -0.047 OA 
HETATM    4  C   UNL     1      -5.980  12.453  69.571  1.00  0.00    -0.110 C  
HETATM    5  C   UNL     1      -7.052  13.403  69.054  1.00  0.00    -0.053 C  
HETATM    6  N   UNL     1      -7.661  12.993  67.789  1.00  0.00    -0.136 N  
HETATM    7  C   UNL     1      -8.697  13.752  67.246  1.00  0.00    -0.219 C  
HETATM    8  O   UNL     1      -8.905  14.904  67.619  1.00  0.00    -0.170 OA 
HETATM    9  C   UNL     1      -9.687  12.936  66.400  1.00  0.00    -0.263 C  
HETATM   10  C   UNL     1     -10.900  13.468  66.103  1.00  0.00    -0.281 C  
HETATM   11  N   UNL     1      -8.346  10.909  66.884  1.00  0.00    -0.129 NA 
HETATM   12  C   UNL     1     -11.885  12.574  65.388  1.00  0.00    -0.428 C  
HETATM   13  O   UNL     1     -13.044  12.906  65.155  1.00  0.00    -0.753 OA 
HETATM   14  N   UNL     1      -9.391  11.573  66.158  1.00  0.00    -0.211 NA 
HETATM   15  C   UNL     1     -11.430  11.243  64.944  1.00  0.00     0.072 C  
HETATM   16  C   UNL     1     -10.228  10.834  65.351  1.00  0.00    -0.276 C  
ENDROOT
BRANCH  10  17
HETATM   17  O   UNL     1     -11.295  14.700  66.587  1.00  0.00    -0.342 OA 
BRANCH  17  18
HETATM   18  C   UNL     1     -12.128  14.708  67.741  1.00  0.00    -0.176 C  
BRANCH  18  19
HETATM   19  O   UNL     1     -11.824  15.844  68.549  1.00  0.00    -0.366 OA 
BRANCH  19  20
HETATM   20  C   UNL     1     -11.766  15.546  69.866  1.00  0.00    -0.352 C  
HETATM   21  O   UNL     1     -10.761  15.258  70.502  1.00  0.00    -0.287 OA 
BRANCH  20  22
HETATM   22  O   UNL     1     -13.018  15.663  70.380  1.00  0.00    -0.372 OA 
HETATM   23  C   UNL     1     -13.248  14.828  71.508  1.00  0.00    -0.356 C  
ENDBRANCH  20  22
ENDBRANCH  19  20
ENDBRANCH  18  19
ENDBRANCH  17  18
ENDBRANCH  10  17
BRANCH  11  24
HETATM   24  C   UNL     1      -8.769   9.875  67.934  1.00  0.00    -0.129 C  
HETATM   25  C   UNL     1      -9.950  10.257  68.898  1.00  0.00    -0.209 A  
HETATM   26  C   UNL     1     -10.549  11.528  68.908  1.00  0.00    -0.236 A  
HETATM   27  C   UNL     1     -11.628  11.941  69.697  1.00  0.00    -0.387 A  
HETATM   28  C   UNL     1     -12.151  11.053  70.588  1.00  0.00    -0.373 A  
HETATM   29  C   UNL     1     -11.572   9.805  70.698  1.00  0.00    -0.313 A  
HETATM   30  F   UNL     1     -13.217  11.397  71.321  1.00  0.00    -0.434 F  
HETATM   31  F   UNL     1     -12.087   8.936  71.582  1.00  0.00    -0.320 F  
HETATM   32  C   UNL     1     -10.465   9.406  69.893  1.00  0.00    -0.257 A  
HETATM   33  C   UNL     1     -10.005   7.994  70.034  1.00  0.00    -0.191 C  
HETATM   34  S   UNL     1     -10.836   7.082  68.723  1.00  0.00    -0.113 SA 
HETATM   35  C   UNL     1      -9.701   7.397  67.383  1.00  0.00    -0.153 A  
HETATM   36  C   UNL     1      -9.716   6.324  66.460  1.00  0.00    -0.180 A  
HETATM   37  C   UNL     1      -8.752   6.187  65.475  1.00  0.00    -0.105 A  
HETATM   38  C   UNL     1      -7.711   7.095  65.442  1.00  0.00    -0.111 A  
HETATM   39  C   UNL     1      -7.714   8.200  66.314  1.00  0.00    -0.094 A  
HETATM   40  C   UNL     1      -8.766   8.446  67.240  1.00  0.00    -0.130 A  
ENDBRANCH  11  24
TORSDOF 6
ENDMDL
MODEL        6
REMARK 921   NORMALIZED FREE ENERGY PREDICTED BY IDOCK:   -6.82 KCAL/MOL
REMARK 922        TOTAL FREE ENERGY PREDICTED BY IDOCK:   -9.95 KCAL/MOL
REMARK 923 INTER-LIGAND FREE ENERGY PREDICTED BY IDOCK:   -9.16 KCAL/MOL
REMARK 924 INTRA-LIGAND FREE ENERGY PREDICTED BY IDOCK:   -0.79 KCAL/MOL
REMARK 927      BINDING AFFINITY PREDICTED BY RF-SCORE:    0.00 PKD
ROOT
HETATM    1  C   UNL     1     -10.558  13.703  65.005  1.00  0.00    -0.383 C  
HETATM    2  C   UNL     1     -11.632  14.553  64.263  1.00  0.00    -0.238 C  
HETATM    3  O   UNL     1     -12.581  13.786  63.509  1.00  0.00    -0.814 OA 
HETATM    4  C   UNL     1     -13.158  12.777  64.335  1.00  0.00     0.077 C  
HETATM    5  C   UNL     1     -12.110  11.727  64.681  1.00  0.00    -0.022 C  
HETATM    6  N   UNL     1     -10.805  12.277  65.048  1.00  0.00    -0.287 N  
HETATM    7  C   UNL     1      -9.783  11.415  65.443  1.00  0.00    -0.230 C  
HETATM    8  O   UNL     1      -9.835  10.212  65.200  1.00  0.00    -0.290 OA 
HETATM    9  C   UNL     1      -8.786  12.046  66.429  1.00  0.00    -0.126 C  
HETATM   10  C   UNL     1      -7.960  11.239  67.142  1.00  0.00    -0.151 C  
HETATM   11  N   UNL     1     -10.101  14.145  66.330  1.00  0.00    -0.284 NA 
HETATM   12  C   UNL     1      -7.099  11.896  68.194  1.00  0.00    -0.081 C  
HETATM   13  O   UNL     1      -6.388  11.263  68.969  1.00  0.00    -0.051 OA 
HETATM   14  N   UNL     1      -8.925  13.422  66.727  1.00  0.00    -0.216 NA 
HETATM   15  C   UNL     1      -7.109  13.368  68.289  1.00  0.00    -0.109 C  
HETATM   16  C   UNL     1      -8.008  14.028  67.559  1.00  0.00    -0.187 C  
ENDROOT
BRANCH  10  17
HETATM   17  O   UNL     1      -8.027   9.862  67.052  1.00  0.00    -0.108 OA 
BRANCH  17  18
HETATM   18  C   UNL     1      -6.900   9.191  66.500  1.00  0.00    -0.080 C  
BRANCH  18  19
HETATM   19  O   UNL     1      -7.334   8.203  65.566  1.00  0.00    -0.069 OA 
BRANCH  19  20
HETATM   20  C   UNL     1      -6.874   8.429  64.316  1.00  0.00    -0.066 C  
HETATM   21  O   UNL     1      -7.173   7.805  63.308  1.00  0.00    -0.081 OA 
BRANCH  20  22
HETATM   22  O   UNL     1      -6.048   9.507  64.361  1.00  0.00    -0.075 OA 
HETATM   23  C   UNL     1      -6.027  10.256  63.152  1.00  0.00    -0.148 C  
ENDBRANCH  20  22
ENDBRANCH  19  20
ENDBRANCH  18  19
ENDBRANCH  17  18
ENDBRANCH  10  17
BRANCH  11  24
HETATM   24  C   UNL     1     -11.079  14.554  67.437  1.00  0.00    -0.314 C  
HETATM   25  C   UNL     1     -11.425  13.485  68.536  1.00  0.00    -0.345 A  
HETATM   26  C   UNL     1     -10.968  12.158  68.483  1.00  0.00    -0.276 A  
HETATM   27  C   UNL     1     -11.189  11.155  69.433  1.00  0.00    -0.334 A  
HETATM   28  C   UNL     1     -11.958  11.454  70.517  1.00  0.00    -0.356 A  
HETATM   29  C   UNL     1     -12.513  12.715  70.609  1.00  0.00    -0.239 A  
HETATM   30  F   UNL     1     -12.147  10.535  71.472  1.00  0.00    -0.432 F  
HETATM   31  F   UNL     1     -13.275  13.002  71.676  1.00  0.00    -0.441 F  
HETATM   32  C   UNL     1     -12.285  13.720  69.624  1.00  0.00    -0.359 A  
HETATM   33  C   UNL     1     -12.852  15.072  69.900  1.00  0.00    -0.001 C  
HETATM   34  S   UNL     1     -11.516  16.011  70.660  1.00  0.00    -0.371 SA 
HETATM   35  C   UNL     1     -10.683  16.577  69.187  1.00  0.00    -0.335 A  
HETATM   36  C   UNL     1     -10.042  17.816  69.428  1.00  0.00    -0.019 A  
HETATM   37  C   UNL     1      -9.547  18.601  68.400  1.00  0.00    -0.396 A  
HETATM   38  C   UNL     1      -9.750  18.184  67.098  1.00  0.00    -0.301 A  
HETATM   39  C   UNL     1     -10.331  16.927  66.844  1.00  0.00    -0.304 A  
HETATM   40  C   UNL     1     -10.718  16.036  67.883  1.00  0.00    -0.316 A  
ENDBRANCH  11  24
TORSDOF 6
ENDMDL
MODEL        7
REMARK 921   NORMALIZED FREE ENERGY PREDICTED BY IDOCK:   -6.64 KCAL/MOL
REMARK 922        TOTAL FREE ENERGY PREDICTED BY IDOCK:   -9.71 KCAL/MOL
REMARK 923 INTER-LIGAND FREE ENERGY PREDICTED BY IDOCK:   -9.07 KCAL/MOL
REMARK 924 INTRA-LIGAND FREE ENERGY PREDICTED BY IDOCK:   -0.64 KCAL/MOL
REMARK 927      BINDING AFFINITY PREDICTED BY RF-SCORE:    0.00 PKD
ROOT
HETATM    1  C   UNL     1     -10.425   8.178  66.982  1.00  0.00    -0.326 C  
HETATM    2  C   UNL     1     -10.054   6.673  66.828  1.00  0.00    -0.175 C  
HETATM    3  O   UNL     1      -9.281   6.368  65.659  1.00  0.00    -0.023 OA 
HETATM    4  C   UNL     1      -8.141   7.222  65.592  1.00  0.00    -0.133 C  
HETATM    5  C   UNL     1      -8.580   8.653  65.313  1.00  0.00    -0.180 C  
HETATM    6  N   UNL     1      -9.742   9.089  66.087  1.00  0.00    -0.274 N  
HETATM    7  C   UNL     1     -10.200  10.400  65.962  1.00  0.00    -0.228 C  
HETATM    8  O   UNL     1      -9.867  11.102  65.010  1.00  0.00    -0.235 OA 
HETATM    9  C   UNL     1     -10.880  10.943  67.228  1.00  0.00    -0.287 C  
HETATM   10  C   UNL     1     -11.062  12.282  67.359  1.00  0.00    -0.282 C  
HETATM   11  N   UNL     1     -10.448   8.765  68.329  1.00  0.00    -0.210 NA 
HETATM   12  C   UNL     1     -11.609  12.774  68.678  1.00  0.00    -0.314 C  
HETATM   13  O   UNL     1     -11.722  13.965  68.953  1.00  0.00    -0.291 OA 
HETATM   14  N   UNL     1     -11.082  10.054  68.310  1.00  0.00    -0.228 NA 
HETATM   15  C   UNL     1     -12.031  11.776  69.679  1.00  0.00    -0.378 C  
HETATM   16  C   UNL     1     -11.745  10.497  69.433  1.00  0.00    -0.223 C  
ENDROOT
BRANCH  10  17
HETATM   17  O   UNL     1     -10.602  13.178  66.414  1.00  0.00    -0.280 OA 
BRANCH  17  18
HETATM   18  C   UNL     1     -11.573  13.796  65.577  1.00  0.00    -0.326 C  
BRANCH  18  19
HETATM   19  O   UNL     1     -11.634  15.194  65.857  1.00  0.00    -0.239 OA 
BRANCH  19  20
HETATM   20  C   UNL     1     -11.027  15.941  64.907  1.00  0.00    -0.411 C  
HETATM   21  O   UNL     1     -11.561  16.444  63.928  1.00  0.00    -1.100 OA 
BRANCH  20  22
HETATM   22  O   UNL     1      -9.720  16.078  65.251  1.00  0.00    -0.403 OA 
HETATM   23  C   UNL     1      -9.522  16.843  66.434  1.00  0.00    -0.283 C  
ENDBRANCH  20  22
ENDBRANCH  19  20
ENDBRANCH  18  19
ENDBRANCH  17  18
ENDBRANCH  10  17
BRANCH  11  24
HETATM   24  C   UNL     1      -9.302   8.562  69.328  1.00  0.00    -0.154 C  
HETATM   25  C   UNL     1      -8.254   9.724  69.479  1.00  0.00    -0.146 A  
HETATM   26  C   UNL     1      -8.261  10.872  68.670  1.00  0.00    -0.146 A  
HETATM   27  C   UNL     1      -7.399  11.969  68.762  1.00  0.00    -0.098 A  
HETATM   28  C   UNL     1      -6.409  11.934  69.698  1.00  0.00    -0.124 A  
HETATM   29  C   UNL     1      -6.282  10.807  70.485  1.00  0.00    -0.086 A  
HETATM   30  F   UNL     1      -5.599  12.989  69.849  1.00  0.00    -0.083 F  
HETATM   31  F   UNL     1      -5.302  10.775  71.402  1.00  0.00    -0.092 F  
HETATM   32  C   UNL     1      -7.164   9.693  70.369  1.00  0.00    -0.147 A  
HETATM   33  C   UNL     1      -6.984   8.587  71.353  1.00  0.00    -0.079 C  
HETATM   34  S   UNL     1      -8.152   8.926  72.681  1.00  0.00     0.604 SA 
HETATM   35  C   UNL     1      -9.612   8.171  71.985  1.00  0.00    -0.219 A  
HETATM   36  C   UNL     1     -10.463   7.703  73.015  1.00  0.00    -0.414 A  
HETATM   37  C   UNL     1     -11.527   6.853  72.759  1.00  0.00    -0.183 A  
HETATM   38  C   UNL     1     -11.714   6.402  71.466  1.00  0.00    -0.369 A  
HETATM   39  C   UNL     1     -10.914   6.906  70.423  1.00  0.00    -0.315 A  
HETATM   40  C   UNL     1      -9.907   7.889  70.633  1.00  0.00    -0.187 A  
ENDBRANCH  11  24
TORSDOF 6
ENDMDL
MODEL        8
REMARK 921   NORMALIZED FREE ENERGY PREDICTED BY IDOCK:   -6.61 KCAL/MOL
REMARK 922        TOTAL FREE ENERGY PREDICTED BY IDOCK:   -9.67 KCAL/MOL
REMARK 923 INTER-LIGAND FREE ENERGY PREDICTED BY IDOCK:   -8.91 KCAL/MOL
REMARK 924 INTRA-LIGAND FREE ENERGY PREDICTED BY IDOCK:   -0.75 KCAL/MOL
REMARK 927      BINDING AFFINITY PREDICTED BY RF-SCORE:    0.00 PKD
ROOT
HETATM    1  C   UNL     1      -9.864  12.736  65.168  1.00  0.00    -0.078 C  
HETATM    2  C   UNL     1     -10.582  13.631  64.114  1.00  0.00    -0.059 C  
HETATM    3  O   UNL     1     -11.662  12.987  63.423  1.00  0.00    -0.504 OA 
HETATM    4  C   UNL     1     -12.568  12.415  64.363  1.00  0.00    -0.399 C  
HETATM    5  C   UNL     1     -11.908  11.242  65.076  1.00  0.00     0.585 C  
HETATM    6  N   UNL     1     -10.527  11.490  65.491  1.00  0.00    -0.267 N  
HETATM    7  C   UNL     1      -9.838  10.512  66.205  1.00  0.00    -0.217 C  
HETATM    8  O   UNL     1     -10.229   9.347  66.229  1.00  0.00    -0.274 OA 
HETATM    9  C   UNL     1      -8.770  11.074  67.156  1.00  0.00    -0.135 C  
HETATM   10  C   UNL     1      -8.273  10.280  68.138  1.00  0.00    -0.114 C  
HETATM   11  N   UNL     1      -9.389  13.356  66.413  1.00  0.00    -0.217 NA 
HETATM   12  C   UNL     1      -7.330  10.922  69.128  1.00  0.00    -0.126 C  
HETATM   13  O   UNL     1      -6.896  10.336  70.116  1.00  0.00    -0.127 OA 
HETATM   14  N   UNL     1      -8.513  12.466  67.121  1.00  0.00    -0.181 NA 
HETATM   15  C   UNL     1      -6.908  12.315  68.894  1.00  0.00    -0.096 C  
HETATM   16  C   UNL     1      -7.517  12.988  67.917  1.00  0.00    -0.137 C  
ENDROOT
BRANCH  10  17
HETATM   17  O   UNL     1      -8.741   8.997  68.347  1.00  0.00    -0.129 OA 
BRANCH  17  18
HETATM   18  C   UNL     1      -9.651   8.804  69.424  1.00  0.00    -0.163 C  
BRANCH  18  19
HETATM   19  O   UNL     1     -10.390   7.600  69.224  1.00  0.00    -0.209 OA 
BRANCH  19  20
HETATM   20  C   UNL     1     -10.973   7.153  70.358  1.00  0.00    -0.265 C  
HETATM   21  O   UNL     1     -10.791   6.065  70.888  1.00  0.00    -0.257 OA 
BRANCH  20  22
HETATM   22  O   UNL     1     -11.770   8.141  70.839  1.00  0.00    -0.283 OA 
HETATM   23  C   UNL     1     -11.903   8.124  72.255  1.00  0.00    -0.382 C  
ENDBRANCH  20  22
ENDBRANCH  19  20
ENDBRANCH  18  19
ENDBRANCH  17  18
ENDBRANCH  10  17
BRANCH  11  24
HETATM   24  C   UNL     1     -10.276  14.282  67.254  1.00  0.00    -0.252 C  
HETATM   25  C   UNL     1     -11.049  13.647  68.466  1.00  0.00    -0.301 A  
HETATM   26  C   UNL     1     -11.047  12.269  68.738  1.00  0.00    -0.295 A  
HETATM   27  C   UNL     1     -11.668  11.624  69.812  1.00  0.00    -0.425 A  
HETATM   28  C   UNL     1     -12.392  12.379  70.685  1.00  0.00    -0.279 A  
HETATM   29  C   UNL     1     -12.510  13.734  70.449  1.00  0.00    -0.314 A  
HETATM   30  F   UNL     1     -12.955  11.803  71.754  1.00  0.00    -0.494 F  
HETATM   31  F   UNL     1     -13.229  14.473  71.309  1.00  0.00    -0.359 F  
HETATM   32  C   UNL     1     -11.879  14.371  69.341  1.00  0.00    -0.369 A  
HETATM   33  C   UNL     1     -11.996  15.857  69.264  1.00  0.00    -0.242 C  
HETATM   34  S   UNL     1     -10.501  16.500  70.035  1.00  0.00     0.048 SA 
HETATM   35  C   UNL     1      -9.400  16.438  68.632  1.00  0.00    -0.233 A  
HETATM   36  C   UNL     1      -8.414  17.449  68.733  1.00  0.00    -0.225 A  
HETATM   37  C   UNL     1      -7.600  17.792  67.667  1.00  0.00    -0.215 A  
HETATM   38  C   UNL     1      -7.810  17.169  66.451  1.00  0.00    -0.352 A  
HETATM   39  C   UNL     1      -8.744  16.120  66.350  1.00  0.00    -0.360 A  
HETATM   40  C   UNL     1      -9.492  15.648  67.464  1.00  0.00    -0.214 A  
ENDBRANCH  11  24
TORSDOF 6
ENDMDL
MODEL        9
REMARK 921   NORMALIZED FREE ENERGY PREDICTED BY IDOCK:   -6.53 KCAL/MOL
REMARK 922        TOTAL FREE ENERGY PREDICTED BY IDOCK:   -9.56 KCAL/MOL
REMARK 923 INTER-LIGAND FREE ENERGY PREDICTED BY IDOCK:   -8.95 KCAL/MOL
REMARK 924 INTRA-LIGAND FREE ENERGY PREDICTED BY IDOCK:   -0.61 KCAL/MOL
REMARK 927      BINDING AFFINITY PREDICTED BY RF-SCORE:    0.00 PKD
ROOT
HETATM    1  C   UNL     1     -10.449  13.713  65.201  1.00  0.00    -0.374 C  
HETATM    2  C   UNL     1     -11.503  14.573  64.443  1.00  0.00    -0.272 C  
HETATM    3  O   UNL     1     -12.435  13.816  63.657  1.00  0.00    -0.718 OA 
HETATM    4  C   UNL     1     -13.032  12.799  64.457  1.00  0.00    -0.123 C  
HETATM    5  C   UNL     1     -11.995  11.744  64.817  1.00  0.00    -0.038 C  
HETATM    6  N   UNL     1     -10.698  12.287  65.222  1.00  0.00    -0.282 N  
HETATM    7  C   UNL     1      -9.687  11.420  65.632  1.00  0.00    -0.231 C  
HETATM    8  O   UNL     1      -9.734  10.220  65.373  1.00  0.00    -0.235 OA 
HETATM    9  C   UNL     1      -8.715  12.037  66.649  1.00  0.00    -0.171 C  
HETATM   10  C   UNL     1      -7.907  11.221  67.373  1.00  0.00    -0.128 C  
HETATM   11  N   UNL     1     -10.024  14.139  66.543  1.00  0.00    -0.274 NA 
HETATM   12  C   UNL     1      -7.072  11.865  68.453  1.00  0.00    -0.086 C  
HETATM   13  O   UNL     1      -6.381  11.222  69.238  1.00  0.00    -0.063 OA 
HETATM   14  N   UNL     1      -8.859  13.410  66.960  1.00  0.00    -0.223 NA 
HETATM   15  C   UNL     1      -7.082  13.335  68.566  1.00  0.00    -0.105 C  
HETATM   16  C   UNL     1      -7.963  14.005  67.821  1.00  0.00    -0.171 C  
ENDROOT
BRANCH  10  17
HETATM   17  O   UNL     1      -7.973   9.846  67.266  1.00  0.00    -0.108 OA 
BRANCH  17  18
HETATM   18  C   UNL     1      -6.824   9.178  66.756  1.00  0.00    -0.080 C  
BRANCH  18  19
HETATM   19  O   UNL     1      -7.050   7.768  66.744  1.00  0.00    -0.076 OA 
BRANCH  19  20
HETATM   20  C   UNL     1      -6.802   7.191  67.941  1.00  0.00    -0.074 C  
HETATM   21  O   UNL     1      -6.485   7.767  68.972  1.00  0.00    -0.035 OA 
BRANCH  20  22
HETATM   22  O   UNL     1      -7.010   5.855  67.815  1.00  0.00    -0.065 OA 
HETATM   23  C   UNL     1      -7.739   5.503  66.645  1.00  0.00    -0.100 C  
ENDBRANCH  20  22
ENDBRANCH  19  20
ENDBRANCH  18  19
ENDBRANCH  17  18
ENDBRANCH  10  17
BRANCH  11  24
HETATM   24  C   UNL     1     -11.029  14.537  67.630  1.00  0.00    -0.288 C  
HETATM   25  C   UNL     1     -11.397  13.458  68.712  1.00  0.00    -0.332 A  
HETATM   26  C   UNL     1     -10.936  12.132  68.659  1.00  0.00    -0.284 A  
HETATM   27  C   UNL     1     -11.176  11.122  69.595  1.00  0.00    -0.333 A  
HETATM   28  C   UNL     1     -11.971  11.409  70.663  1.00  0.00    -0.314 A  
HETATM   29  C   UNL     1     -12.531  12.668  70.752  1.00  0.00    -0.270 A  
HETATM   30  F   UNL     1     -12.180  10.482  71.606  1.00  0.00    -0.439 F  
HETATM   31  F   UNL     1     -13.319  12.945  71.804  1.00  0.00    -0.469 F  
HETATM   32  C   UNL     1     -12.283  13.682  69.782  1.00  0.00    -0.350 A  
HETATM   33  C   UNL     1     -12.860  15.030  70.055  1.00  0.00    -0.082 C  
HETATM   34  S   UNL     1     -11.545  15.966  70.853  1.00  0.00    -0.433 SA 
HETATM   35  C   UNL     1     -10.679  16.547  69.405  1.00  0.00    -0.330 A  
HETATM   36  C   UNL     1     -10.048  17.785  69.671  1.00  0.00     0.290 A  
HETATM   37  C   UNL     1      -9.531  18.579  68.661  1.00  0.00    -0.373 A  
HETATM   38  C   UNL     1      -9.702  18.173  67.351  1.00  0.00    -0.296 A  
HETATM   39  C   UNL     1     -10.274  16.917  67.073  1.00  0.00    -0.297 A  
HETATM   40  C   UNL     1     -10.683  16.016  68.096  1.00  0.00    -0.311 A  
ENDBRANCH  11  24
TORSDOF 6
ENDMDL
MODEL       10
REMARK 921   NORMALIZED FREE ENERGY PREDICTED BY IDOCK:   -6.50 KCAL/MOL
REMARK 922        TOTAL FREE ENERGY PREDICTED BY IDOCK:   -9.51 KCAL/MOL
REMARK 923 INTER-LIGAND FREE ENERGY PREDICTED BY IDOCK:   -8.80 KCAL/MOL
REMARK 924 INTRA-LIGAND FREE ENERGY PREDICTED BY IDOCK:   -0.72 KCAL/MOL
REMARK 927      BINDING AFFINITY PREDICTED BY RF-SCORE:    0.00 PKD
ROOT
HETATM    1  C   UNL     1     -11.282  11.481  65.859  1.00  0.00    -0.177 C  
HETATM    2  C   UNL     1     -10.837  10.506  64.730  1.00  0.00     0.354 C  
HETATM    3  O   UNL     1     -10.499  11.144  63.491  1.00  0.00    -0.364 OA 
HETATM    4  C   UNL     1      -9.550  12.182  63.722  1.00  0.00    -0.007 C  
HETATM    5  C   UNL     1     -10.202  13.321  64.494  1.00  0.00    -0.310 C  
HETATM    6  N   UNL     1     -11.055  12.888  65.601  1.00  0.00    -0.275 N  
HETATM    7  C   UNL     1     -11.659  13.842  66.419  1.00  0.00    -0.360 C  
HETATM    8  O   UNL     1     -11.756  15.014  66.063  1.00  0.00    -0.245 OA 
HETATM    9  C   UNL     1     -11.901  13.362  67.858  1.00  0.00    -0.357 C  
HETATM   10  C   UNL     1     -12.161  14.277  68.826  1.00  0.00    -0.265 C  
HETATM   11  N   UNL     1     -10.888  11.184  67.244  1.00  0.00    -0.258 NA 
HETATM   12  C   UNL     1     -12.255  13.767  70.245  1.00  0.00    -0.359 C  
HETATM   13  O   UNL     1     -12.385  14.508  71.215  1.00  0.00    -0.313 OA 
HETATM   14  N   UNL     1     -11.616  12.010  68.166  1.00  0.00    -0.322 NA 
HETATM   15  C   UNL     1     -12.193  12.311  70.473  1.00  0.00    -0.387 C  
HETATM   16  C   UNL     1     -11.883  11.536  69.432  1.00  0.00    -0.350 C  
ENDROOT
BRANCH  10  17
HETATM   17  O   UNL     1     -12.157  15.634  68.569  1.00  0.00    -0.242 OA 
BRANCH  17  18
HETATM   18  C   UNL     1     -11.114  16.404  69.156  1.00  0.00    -0.303 C  
BRANCH  18  19
HETATM   19  O   UNL     1     -10.288  16.960  68.133  1.00  0.00    -0.301 OA 
BRANCH  19  20
HETATM   20  C   UNL     1     -10.039  18.275  68.323  1.00  0.00    -0.386 C  
HETATM   21  O   UNL     1      -9.173  18.752  69.044  1.00  0.00    -0.266 OA 
BRANCH  20  22
HETATM   22  O   UNL     1     -10.891  18.982  67.537  1.00  0.00    -0.463 OA 
HETATM   23  C   UNL     1     -10.282  20.103  66.908  1.00  0.00    -0.430 C  
ENDBRANCH  20  22
ENDBRANCH  19  20
ENDBRANCH  18  19
ENDBRANCH  17  18
ENDBRANCH  10  17
BRANCH  11  24
HETATM   24  C   UNL     1      -9.450  10.811  67.622  1.00  0.00    -0.154 C  
HETATM   25  C   UNL     1      -8.515  11.959  68.150  1.00  0.00    -0.163 A  
HETATM   26  C   UNL     1      -8.903  13.309  68.184  1.00  0.00    -0.187 A  
HETATM   27  C   UNL     1      -8.157  14.385  68.674  1.00  0.00    -0.146 A  
HETATM   28  C   UNL     1      -6.900  14.139  69.139  1.00  0.00    -0.113 A  
HETATM   29  C   UNL     1      -6.409  12.850  69.071  1.00  0.00    -0.100 A  
HETATM   30  F   UNL     1      -6.178  15.136  69.665  1.00  0.00    -0.104 F  
HETATM   31  F   UNL     1      -5.168  12.613  69.525  1.00  0.00    -0.069 F  
HETATM   32  C   UNL     1      -7.181  11.768  68.557  1.00  0.00    -0.095 A  
HETATM   33  C   UNL     1      -6.573  10.408  68.641  1.00  0.00    -0.052 C  
HETATM   34  S   UNL     1      -7.216   9.684  70.160  1.00  0.00    -0.144 SA 
HETATM   35  C   UNL     1      -8.761   9.038  69.543  1.00  0.00    -0.144 A  
HETATM   36  C   UNL     1      -9.149   7.896  70.285  1.00  0.00    -0.152 A  
HETATM   37  C   UNL     1     -10.161   7.052  69.859  1.00  0.00    -0.213 A  
HETATM   38  C   UNL     1     -10.758   7.303  68.639  1.00  0.00    -0.172 A  
HETATM   39  C   UNL     1     -10.426   8.466  67.918  1.00  0.00    -0.255 A  
HETATM   40  C   UNL     1      -9.494   9.427  68.400  1.00  0.00    -0.148 A  
ENDBRANCH  11  24
TORSDOF 6
ENDMDL
MODEL       11
REMARK 921   NORMALIZED FREE ENERGY PREDICTED BY IDOCK:   -6.33 KCAL/MOL
REMARK 922        TOTAL FREE ENERGY PREDICTED BY IDOCK:   -9.29 KCAL/MOL
REMARK 923 INTER-LIGAND FREE ENERGY PREDICTED BY IDOCK:   -8.37 KCAL/MOL
REMARK 924 INTRA-LIGAND FREE ENERGY PREDICTED BY IDOCK:   -0.92 KCAL/MOL
REMARK 927      BINDING AFFINITY PREDICTED BY RF-SCORE:    0.00 PKD
ROOT
HETATM    1  C   UNL     1      -6.749  14.505  68.039  1.00  0.00    -0.145 C  
HETATM    2  C   UNL     1      -5.836  13.422  68.688  1.00  0.00    -0.084 C  
HETATM    3  O   UNL     1      -5.132  13.860  69.858  1.00  0.00    -0.091 OA 
HETATM    4  C   UNL     1      -6.047  14.434  70.789  1.00  0.00    -0.171 C  
HETATM    5  C   UNL     1      -6.592  15.746  70.242  1.00  0.00     0.173 C  
HETATM    6  N   UNL     1      -6.964  15.700  68.827  1.00  0.00    -0.115 N  
HETATM    7  C   UNL     1      -7.531  16.824  68.229  1.00  0.00    -0.186 C  
HETATM    8  O   UNL     1      -7.445  17.933  68.749  1.00  0.00    -0.274 OA 
HETATM    9  C   UNL     1      -8.485  16.494  67.070  1.00  0.00    -0.197 C  
HETATM   10  C   UNL     1      -9.348  17.446  66.632  1.00  0.00    -0.265 C  
HETATM   11  N   UNL     1      -8.030  14.088  67.452  1.00  0.00    -0.181 NA 
HETATM   12  C   UNL     1     -10.355  17.030  65.587  1.00  0.00    -0.209 C  
HETATM   13  O   UNL     1     -11.250  17.770  65.187  1.00  0.00    -0.375 OA 
HETATM   14  N   UNL     1      -8.591  15.144  66.657  1.00  0.00    -0.268 NA 
HETATM   15  C   UNL     1     -10.256  15.673  65.017  1.00  0.00    -0.202 C  
HETATM   16  C   UNL     1      -9.391  14.829  65.580  1.00  0.00     0.060 C  
ENDROOT
BRANCH  10  17
HETATM   17  O   UNL     1      -9.436  18.686  67.234  1.00  0.00    -0.291 OA 
BRANCH  17  18
HETATM   18  C   UNL     1      -9.130  19.821  66.432  1.00  0.00    -0.382 C  
BRANCH  18  19
HETATM   19  O   UNL     1      -7.891  19.616  65.754  1.00  0.00    -0.376 OA 
BRANCH  19  20
HETATM   20  C   UNL     1      -6.892  20.375  66.255  1.00  0.00    -0.238 C  
HETATM   21  O   UNL     1      -6.841  20.859  67.377  1.00  0.00    -0.326 OA 
BRANCH  20  22
HETATM   22  O   UNL     1      -5.924  20.474  65.308  1.00  0.00    -0.202 OA 
HETATM   23  C   UNL     1      -5.988  19.450  64.323  1.00  0.00    -0.236 C  
ENDBRANCH  20  22
ENDBRANCH  19  20
ENDBRANCH  18  19
ENDBRANCH  17  18
ENDBRANCH  10  17
BRANCH  11  24
HETATM   24  C   UNL     1      -9.011  13.174  68.196  1.00  0.00    -0.195 C  
HETATM   25  C   UNL     1     -10.208  13.855  68.955  1.00  0.00    -0.135 A  
HETATM   26  C   UNL     1     -10.349  15.247  69.068  1.00  0.00    -0.242 A  
HETATM   27  C   UNL     1     -11.398  15.937  69.685  1.00  0.00    -0.342 A  
HETATM   28  C   UNL     1     -12.384  15.211  70.282  1.00  0.00    -0.352 A  
HETATM   29  C   UNL     1     -12.283  13.833  70.284  1.00  0.00    -0.359 A  
HETATM   30  F   UNL     1     -13.430  15.837  70.835  1.00  0.00    -0.553 F  
HETATM   31  F   UNL     1     -13.253  13.122  70.879  1.00  0.00    -0.247 F  
HETATM   32  C   UNL     1     -11.199  13.149  69.660  1.00  0.00    -0.088 A  
HETATM   33  C   UNL     1     -11.268  11.658  69.639  1.00  0.00    -0.177 C  
HETATM   34  S   UNL     1     -11.994  11.230  68.048  1.00  0.00     0.127 SA 
HETATM   35  C   UNL     1     -10.521  11.252  67.041  1.00  0.00    -0.234 A  
HETATM   36  C   UNL     1     -10.650  10.348  65.959  1.00  0.00    -0.136 A  
HETATM   37  C   UNL     1      -9.568   9.975  65.179  1.00  0.00    -0.356 A  
HETATM   38  C   UNL     1      -8.317  10.454  65.517  1.00  0.00    -0.168 A  
HETATM   39  C   UNL     1      -8.181  11.400  66.551  1.00  0.00    -0.152 A  
HETATM   40  C   UNL     1      -9.294  11.911  67.275  1.00  0.00    -0.177 A  
ENDBRANCH  11  24
TORSDOF 6
ENDMDL
MODEL       12
REMARK 921   NORMALIZED FREE ENERGY PREDICTED BY IDOCK:   -6.06 KCAL/MOL
REMARK 922        TOTAL FREE ENERGY PREDICTED BY IDOCK:   -8.92 KCAL/MOL
REMARK 923 INTER-LIGAND FREE ENERGY PREDICTED BY IDOCK:   -8.34 KCAL/MOL
REMARK 924 INTRA-LIGAND FREE ENERGY PREDICTED BY IDOCK:   -0.58 KCAL/MOL
REMARK 927      BINDING AFFINITY PREDICTED BY RF-SCORE:    0.00 PKD
ROOT
HETATM    1  C   UNL     1     -11.588   9.693  71.696  1.00  0.00    -0.336 C  
HETATM    2  C   UNL     1     -12.373   9.177  72.938  1.00  0.00     0.535 C  
HETATM    3  O   UNL     1     -13.800   9.271  72.821  1.00  0.00    -0.403 OA 
HETATM    4  C   UNL     1     -14.230   8.657  71.609  1.00  0.00    -0.387 C  
HETATM    5  C   UNL     1     -13.763   9.480  70.415  1.00  0.00     0.728 C  
HETATM    6  N   UNL     1     -12.381   9.952  70.513  1.00  0.00    -0.201 N  
HETATM    7  C   UNL     1     -11.821  10.665  69.454  1.00  0.00    -0.253 C  
HETATM    8  O   UNL     1     -12.527  11.174  68.587  1.00  0.00    -0.463 OA 
HETATM    9  C   UNL     1     -10.299  10.494  69.327  1.00  0.00    -0.227 C  
HETATM   10  C   UNL     1      -9.688  10.846  68.167  1.00  0.00    -0.166 C  
HETATM   11  N   UNL     1     -10.359   8.991  71.297  1.00  0.00    -0.284 NA 
HETATM   12  C   UNL     1      -8.217  10.531  68.044  1.00  0.00    -0.112 C  
HETATM   13  O   UNL     1      -7.578  10.708  67.011  1.00  0.00    -0.103 OA 
HETATM   14  N   UNL     1      -9.625   9.763  70.333  1.00  0.00    -0.226 NA 
HETATM   15  C   UNL     1      -7.514   9.991  69.223  1.00  0.00    -0.103 C  
HETATM   16  C   UNL     1      -8.253   9.647  70.279  1.00  0.00    -0.191 C  
ENDROOT
BRANCH  10  17
HETATM   17  O   UNL     1     -10.401  11.300  67.074  1.00  0.00    -0.211 OA 
BRANCH  17  18
HETATM   18  C   UNL     1     -10.163  12.639  66.654  1.00  0.00    -0.236 C  
BRANCH  18  19
HETATM   19  O   UNL     1     -10.880  12.902  65.448  1.00  0.00    -0.276 OA 
BRANCH  19  20
HETATM   20  C   UNL     1     -12.138  13.340  65.677  1.00  0.00    -0.441 C  
HETATM   21  O   UNL     1     -12.461  14.286  66.382  1.00  0.00    -0.441 OA 
BRANCH  20  22
HETATM   22  O   UNL     1     -12.989  12.572  64.948  1.00  0.00    -0.821 OA 
HETATM   23  C   UNL     1     -12.513  12.283  63.639  1.00  0.00    -0.541 C  
ENDBRANCH  20  22
ENDBRANCH  19  20
ENDBRANCH  18  19
ENDBRANCH  17  18
ENDBRANCH  10  17
BRANCH  11  24
HETATM   24  C   UNL     1     -10.295   7.465  71.169  1.00  0.00    -0.201 C  
HETATM   25  C   UNL     1     -10.330   6.854  69.721  1.00  0.00    -0.224 A  
HETATM   26  C   UNL     1     -10.526   7.630  68.567  1.00  0.00    -0.206 A  
HETATM   27  C   UNL     1     -10.529   7.180  67.243  1.00  0.00    -0.372 A  
HETATM   28  C   UNL     1     -10.366   5.846  67.016  1.00  0.00    -0.243 A  
HETATM   29  C   UNL     1     -10.245   5.000  68.100  1.00  0.00    -0.074 A  
HETATM   30  F   UNL     1     -10.311   5.387  65.759  1.00  0.00    -0.155 F  
HETATM   31  F   UNL     1     -10.091   3.686  67.871  1.00  0.00    -0.128 F  
HETATM   32  C   UNL     1     -10.256   5.476  69.443  1.00  0.00    -0.329 A  
HETATM   33  C   UNL     1     -10.005   4.471  70.516  1.00  0.00    -0.208 C  
HETATM   34  S   UNL     1      -8.241   4.568  70.867  1.00  0.00    -0.089 SA 
HETATM   35  C   UNL     1      -8.250   5.920  72.032  1.00  0.00    -0.112 A  
HETATM   36  C   UNL     1      -7.177   5.791  72.945  1.00  0.00    -0.090 A  
HETATM   37  C   UNL     1      -7.100   6.550  74.102  1.00  0.00    -0.088 A  
HETATM   38  C   UNL     1      -8.143   7.408  74.397  1.00  0.00    -0.215 A  
HETATM   39  C   UNL     1      -9.187   7.591  73.471  1.00  0.00    -0.301 A  
HETATM   40  C   UNL     1      -9.219   6.933  72.209  1.00  0.00    -0.144 A  
ENDBRANCH  11  24
TORSDOF 6
ENDMDL
MODEL       13
REMARK 921   NORMALIZED FREE ENERGY PREDICTED BY IDOCK:   -5.95 KCAL/MOL
REMARK 922        TOTAL FREE ENERGY PREDICTED BY IDOCK:   -8.78 KCAL/MOL
REMARK 923 INTER-LIGAND FREE ENERGY PREDICTED BY IDOCK:   -8.14 KCAL/MOL
REMARK 924 INTRA-LIGAND FREE ENERGY PREDICTED BY IDOCK:   -0.64 KCAL/MOL
REMARK 927      BINDING AFFINITY PREDICTED BY RF-SCORE:    0.00 PKD
ROOT
HETATM    1  C   UNL     1      -7.034  10.439  68.178  1.00  0.00    -0.073 C  
HETATM    2  C   UNL     1      -5.937   9.711  69.011  1.00  0.00    -0.038 C  
HETATM    3  O   UNL     1      -5.127  10.580  69.815  1.00  0.00    -0.038 OA 
HETATM    4  C   UNL     1      -5.957  11.417  70.616  1.00  0.00    -0.040 C  
HETATM    5  C   UNL     1      -6.701  12.410  69.734  1.00  0.00     0.132 C  
HETATM    6  N   UNL     1      -7.257  11.830  68.511  1.00  0.00    -0.089 N  
HETATM    7  C   UNL     1      -8.011  12.629  67.652  1.00  0.00    -0.169 C  
HETATM    8  O   UNL     1      -7.966  13.855  67.720  1.00  0.00    -0.141 OA 
HETATM    9  C   UNL     1      -9.077  11.855  66.861  1.00  0.00    -0.196 C  
HETATM   10  C   UNL     1     -10.083  12.540  66.261  1.00  0.00    -0.250 C  
HETATM   11  N   UNL     1      -8.336   9.781  67.997  1.00  0.00    -0.110 NA 
HETATM   12  C   UNL     1     -11.178  11.725  65.614  1.00  0.00    -0.267 C  
HETATM   13  O   UNL     1     -12.188  12.227  65.129  1.00  0.00    -0.462 OA 
HETATM   14  N   UNL     1      -9.103  10.445  66.982  1.00  0.00    -0.139 NA 
HETATM   15  C   UNL     1     -11.022  10.260  65.559  1.00  0.00     0.510 C  
HETATM   16  C   UNL     1     -10.007   9.721  66.236  1.00  0.00    -0.262 C  
ENDROOT
BRANCH  10  17
HETATM   17  O   UNL     1     -10.211  13.910  66.386  1.00  0.00    -0.278 OA 
BRANCH  17  18
HETATM   18  C   UNL     1     -10.182  14.678  65.188  1.00  0.00    -0.382 C  
BRANCH  18  19
HETATM   19  O   UNL     1     -10.572  16.023  65.466  1.00  0.00    -0.371 OA 
BRANCH  19  20
HETATM   20  C   UNL     1      -9.629  16.706  66.152  1.00  0.00    -0.294 C  
HETATM   21  O   UNL     1      -8.417  16.567  66.055  1.00  0.00    -0.381 OA 
BRANCH  20  22
HETATM   22  O   UNL     1     -10.258  17.613  66.943  1.00  0.00    -0.311 OA 
HETATM   23  C   UNL     1     -10.472  18.868  66.307  1.00  0.00    -0.445 C  
ENDBRANCH  20  22
ENDBRANCH  19  20
ENDBRANCH  18  19
ENDBRANCH  17  18
ENDBRANCH  10  17
BRANCH  11  24
HETATM   24  C   UNL     1      -9.108   9.164  69.169  1.00  0.00    -0.144 C  
HETATM   25  C   UNL     1     -10.263  10.017  69.810  1.00  0.00    -0.286 A  
HETATM   26  C   UNL     1     -10.537  11.342  69.430  1.00  0.00    -0.142 A  
HETATM   27  C   UNL     1     -11.565  12.158  69.913  1.00  0.00    -0.297 A  
HETATM   28  C   UNL     1     -12.382  11.659  70.882  1.00  0.00    -0.336 A  
HETATM   29  C   UNL     1     -12.135  10.391  71.369  1.00  0.00    -0.327 A  
HETATM   30  F   UNL     1     -13.409  12.393  71.329  1.00  0.00    -0.334 F  
HETATM   31  F   UNL     1     -12.938   9.906  72.328  1.00  0.00    -0.466 F  
HETATM   32  C   UNL     1     -11.074   9.578  70.872  1.00  0.00    -0.406 A  
HETATM   33  C   UNL     1     -10.985   8.188  71.406  1.00  0.00    -0.237 C  
HETATM   34  S   UNL     1     -11.860   7.157  70.217  1.00  0.00    -0.063 SA 
HETATM   35  C   UNL     1     -10.541   6.874  69.049  1.00  0.00    -0.217 A  
HETATM   36  C   UNL     1     -10.711   5.625  68.406  1.00  0.00    -0.229 A  
HETATM   37  C   UNL     1      -9.705   5.043  67.652  1.00  0.00    -0.188 A  
HETATM   38  C   UNL     1      -8.479   5.677  67.588  1.00  0.00    -0.102 A  
HETATM   39  C   UNL     1      -8.313   6.947  68.172  1.00  0.00    -0.118 A  
HETATM   40  C   UNL     1      -9.372   7.635  68.829  1.00  0.00    -0.148 A  
ENDBRANCH  11  24
TORSDOF 6
ENDMDL
MODEL       14
REMARK 921   NORMALIZED FREE ENERGY PREDICTED BY IDOCK:   -5.78 KCAL/MOL
REMARK 922        TOTAL FREE ENERGY PREDICTED BY IDOCK:   -8.55 KCAL/MOL
REMARK 923 INTER-LIGAND FREE ENERGY PREDICTED BY IDOCK:   -7.75 KCAL/MOL
REMARK 924 INTRA-LIGAND FREE ENERGY PREDICTED BY IDOCK:   -0.80 KCAL/MOL
REMARK 927      BINDING AFFINITY PREDICTED BY RF-SCORE:    0.00 PKD
ROOT
HETATM    1  C   UNL     1     -11.127  13.490  70.152  1.00  0.00     0.412 C  
HETATM    2  C   UNL     1     -12.368  12.698  70.659  1.00  0.00    -0.290 C  
HETATM    3  O   UNL     1     -13.395  13.511  71.244  1.00  0.00    -0.266 OA 
HETATM    4  C   UNL     1     -13.746  14.566  70.353  1.00  0.00     0.617 C  
HETATM    5  C   UNL     1     -12.593  15.554  70.235  1.00  0.00    -0.323 C  
HETATM    6  N   UNL     1     -11.277  14.929  70.101  1.00  0.00    -0.250 N  
HETATM    7  C   UNL     1     -10.150  15.730  69.926  1.00  0.00    -0.228 C  
HETATM    8  O   UNL     1     -10.175  16.930  70.187  1.00  0.00     0.183 OA 
HETATM    9  C   UNL     1      -9.026  15.053  69.125  1.00  0.00    -0.186 C  
HETATM   10  C   UNL     1      -8.035  15.817  68.599  1.00  0.00    -0.155 C  
HETATM   11  N   UNL     1     -10.457  13.040  68.923  1.00  0.00    -0.146 NA 
HETATM   12  C   UNL     1      -7.033  15.123  67.708  1.00  0.00    -0.170 C  
HETATM   13  O   UNL     1      -6.154  15.722  67.095  1.00  0.00    -0.322 OA 
HETATM   14  N   UNL     1      -9.187  13.693  68.770  1.00  0.00    -0.031 NA 
HETATM   15  C   UNL     1      -7.112  13.656  67.574  1.00  0.00    -0.166 C  
HETATM   16  C   UNL     1      -8.169  13.043  68.107  1.00  0.00    -0.157 C  
ENDROOT
BRANCH  10  17
HETATM   17  O   UNL     1      -8.036  17.194  68.712  1.00  0.00    -0.264 OA 
BRANCH  17  18
HETATM   18  C   UNL     1      -8.094  17.945  67.503  1.00  0.00    -0.225 C  
BRANCH  18  19
HETATM   19  O   UNL     1      -8.182  19.337  67.803  1.00  0.00    -0.275 OA 
BRANCH  19  20
HETATM   20  C   UNL     1      -9.435  19.822  67.659  1.00  0.00    -0.352 C  
HETATM   21  O   UNL     1     -10.274  19.941  68.542  1.00  0.00    -0.442 OA 
BRANCH  20  22
HETATM   22  O   UNL     1      -9.594  20.200  66.364  1.00  0.00    -0.399 OA 
HETATM   23  C   UNL     1     -10.805  19.733  65.781  1.00  0.00    -0.275 C  
ENDBRANCH  20  22
ENDBRANCH  19  20
ENDBRANCH  18  19
ENDBRANCH  17  18
ENDBRANCH  10  17
BRANCH  11  24
HETATM   24  C   UNL     1     -11.234  12.709  67.644  1.00  0.00    -0.283 C  
HETATM   25  C   UNL     1     -11.372  13.842  66.562  1.00  0.00    -0.336 A  
HETATM   26  C   UNL     1     -10.915  15.154  66.766  1.00  0.00    -0.321 A  
HETATM   27  C   UNL     1     -10.957  16.209  65.848  1.00  0.00    -0.072 A  
HETATM   28  C   UNL     1     -11.530  15.984  64.633  1.00  0.00    -0.250 A  
HETATM   29  C   UNL     1     -12.076  14.742  64.378  1.00  0.00    -0.440 A  
HETATM   30  F   UNL     1     -11.540  16.956  63.712  1.00  0.00     0.105 F  
HETATM   31  F   UNL     1     -12.645  14.526  63.182  1.00  0.00     0.004 F  
HETATM   32  C   UNL     1     -12.034  13.682  65.331  1.00  0.00    -0.400 A  
HETATM   33  C   UNL     1     -12.561  12.358  64.888  1.00  0.00    -0.289 C  
HETATM   34  S   UNL     1     -11.125  11.433  64.318  1.00  0.00    -0.213 SA 
HETATM   35  C   UNL     1     -10.566  10.772  65.879  1.00  0.00    -0.147 A  
HETATM   36  C   UNL     1      -9.908   9.534  65.684  1.00  0.00    -0.343 A  
HETATM   37  C   UNL     1      -9.608   8.687  66.738  1.00  0.00    -0.269 A  
HETATM   38  C   UNL     1     -10.027   9.039  68.006  1.00  0.00    -0.213 A  
HETATM   39  C   UNL     1     -10.629  10.293  68.225  1.00  0.00    -0.255 A  
HETATM   40  C   UNL     1     -10.819  11.246  67.185  1.00  0.00    -0.321 A  
ENDBRANCH  11  24
TORSDOF 6
ENDMDL
MODEL       15
REMARK 921   NORMALIZED FREE ENERGY PREDICTED BY IDOCK:   -5.66 KCAL/MOL
REMARK 922        TOTAL FREE ENERGY PREDICTED BY IDOCK:   -8.38 KCAL/MOL
REMARK 923 INTER-LIGAND FREE ENERGY PREDICTED BY IDOCK:   -7.84 KCAL/MOL
REMARK 924 INTRA-LIGAND FREE ENERGY PREDICTED BY IDOCK:   -0.55 KCAL/MOL
REMARK 927      BINDING AFFINITY PREDICTED BY RF-SCORE:    0.00 PKD
ROOT
HETATM    1  C   UNL     1      -9.239   8.156  67.404  1.00  0.00    -0.137 C  
HETATM    2  C   UNL     1      -8.230   7.845  66.259  1.00  0.00    -0.117 C  
HETATM    3  O   UNL     1      -7.454   8.972  65.828  1.00  0.00    -0.088 OA 
HETATM    4  C   UNL     1      -6.832   9.592  66.951  1.00  0.00    -0.080 C  
HETATM    5  C   UNL     1      -7.886  10.255  67.828  1.00  0.00    -0.101 C  
HETATM    6  N   UNL     1      -9.085   9.444  68.045  1.00  0.00    -0.127 N  
HETATM    7  C   UNL     1     -10.095   9.920  68.881  1.00  0.00    -0.184 C  
HETATM    8  O   UNL     1     -10.159  11.108  69.188  1.00  0.00    -0.195 OA 
HETATM    9  C   UNL     1     -10.893   8.810  69.583  1.00  0.00    -0.169 C  
HETATM   10  C   UNL     1     -11.659   9.126  70.658  1.00  0.00    -0.235 C  
HETATM   11  N   UNL     1      -9.469   7.136  68.438  1.00  0.00    -0.138 NA 
HETATM   12  C   UNL     1     -12.312   7.980  71.394  1.00  0.00    -0.306 C  
HETATM   13  O   UNL     1     -12.944   8.128  72.437  1.00  0.00    -0.244 OA 
HETATM   14  N   UNL     1     -10.620   7.468  69.229  1.00  0.00    -0.224 NA 
HETATM   15  C   UNL     1     -12.190   6.623  70.830  1.00  0.00    -0.324 C  
HETATM   16  C   UNL     1     -11.364   6.456  69.797  1.00  0.00    -0.427 C  
ENDROOT
BRANCH  10  17
HETATM   17  O   UNL     1     -11.698  10.405  71.178  1.00  0.00    -0.352 OA 
BRANCH  17  18
HETATM   18  C   UNL     1     -12.921  11.122  71.048  1.00  0.00    -0.245 C  
BRANCH  18  19
HETATM   19  O   UNL     1     -13.185  11.850  72.247  1.00  0.00    -0.451 OA 
BRANCH  19  20
HETATM   20  C   UNL     1     -13.395  13.166  72.020  1.00  0.00    -0.493 C  
HETATM   21  O   UNL     1     -14.348  13.827  72.409  1.00  0.00    -0.664 OA 
BRANCH  20  22
HETATM   22  O   UNL     1     -12.336  13.646  71.318  1.00  0.00    -0.345 OA 
HETATM   23  C   UNL     1     -12.701  14.580  70.309  1.00  0.00    -0.272 C  
ENDBRANCH  20  22
ENDBRANCH  19  20
ENDBRANCH  18  19
ENDBRANCH  17  18
ENDBRANCH  10  17
BRANCH  11  24
HETATM   24  C   UNL     1      -8.315   6.417  69.145  1.00  0.00    -0.122 C  
HETATM   25  C   UNL     1      -7.900   6.933  70.571  1.00  0.00    -0.105 A  
HETATM   26  C   UNL     1      -8.461   8.076  71.165  1.00  0.00    -0.134 A  
HETATM   27  C   UNL     1      -8.185   8.581  72.439  1.00  0.00    -0.156 A  
HETATM   28  C   UNL     1      -7.249   7.943  73.197  1.00  0.00    -0.099 A  
HETATM   29  C   UNL     1      -6.592   6.855  72.659  1.00  0.00    -0.061 A  
HETATM   30  F   UNL     1      -6.999   8.368  74.441  1.00  0.00    -0.160 F  
HETATM   31  F   UNL     1      -5.667   6.233  73.406  1.00  0.00    -0.041 F  
HETATM   32  C   UNL     1      -6.879   6.361  71.353  1.00  0.00    -0.067 A  
HETATM   33  C   UNL     1      -6.177   5.113  70.936  1.00  0.00    -0.023 C  
HETATM   34  S   UNL     1      -7.315   3.769  71.311  1.00  0.00    -0.040 SA 
HETATM   35  C   UNL     1      -8.303   3.799  69.825  1.00  0.00    -0.052 A  
HETATM   36  C   UNL     1      -8.806   2.507  69.540  1.00  0.00    -0.149 A  
HETATM   37  C   UNL     1      -9.379   2.194  68.319  1.00  0.00    -0.260 A  
HETATM   38  C   UNL     1      -9.396   3.161  67.332  1.00  0.00    -0.232 A  
HETATM   39  C   UNL     1      -8.955   4.467  67.619  1.00  0.00    -0.134 A  
HETATM   40  C   UNL     1      -8.494   4.856  68.908  1.00  0.00    -0.086 A  
ENDBRANCH  11  24
TORSDOF 6
ENDMDL
MODEL       16
REMARK 921   NORMALIZED FREE ENERGY PREDICTED BY IDOCK:   -5.62 KCAL/MOL
REMARK 922        TOTAL FREE ENERGY PREDICTED BY IDOCK:   -8.32 KCAL/MOL
REMARK 923 INTER-LIGAND FREE ENERGY PREDICTED BY IDOCK:   -7.61 KCAL/MOL
REMARK 924 INTRA-LIGAND FREE ENERGY PREDICTED BY IDOCK:   -0.72 KCAL/MOL
REMARK 927      BINDING AFFINITY PREDICTED BY RF-SCORE:    0.00 PKD
ROOT
HETATM    1  C   UNL     1      -9.992  11.703  69.559  1.00  0.00     0.612 C  
HETATM    2  C   UNL     1     -10.471  10.251  69.856  1.00  0.00    -0.256 C  
HETATM    3  O   UNL     1     -11.730  10.167  70.539  1.00  0.00    -0.277 OA 
HETATM    4  C   UNL     1     -12.711  10.935  69.846  1.00  0.00    -0.045 C  
HETATM    5  C   UNL     1     -12.388  12.419  69.964  1.00  0.00    -0.085 C  
HETATM    6  N   UNL     1     -10.975  12.745  69.772  1.00  0.00     0.198 N  
HETATM    7  C   UNL     1     -10.567  14.078  69.797  1.00  0.00     0.304 C  
HETATM    8  O   UNL     1     -11.282  14.953  70.277  1.00  0.00    -0.255 OA 
HETATM    9  C   UNL     1      -9.328  14.364  68.933  1.00  0.00    -0.096 C  
HETATM   10  C   UNL     1      -9.035  15.647  68.602  1.00  0.00    -0.202 C  
HETATM   11  N   UNL     1      -9.286  11.969  68.297  1.00  0.00    -0.198 NA 
HETATM   12  C   UNL     1      -7.891  15.862  67.640  1.00  0.00    -0.146 C  
HETATM   13  O   UNL     1      -7.595  16.965  67.188  1.00  0.00    -0.156 OA 
HETATM   14  N   UNL     1      -8.674  13.267  68.323  1.00  0.00    -0.179 NA 
HETATM   15  C   UNL     1      -7.090  14.694  67.230  1.00  0.00    -0.030 C  
HETATM   16  C   UNL     1      -7.526  13.488  67.594  1.00  0.00    -0.181 C  
ENDROOT
BRANCH  10  17
HETATM   17  O   UNL     1      -9.848  16.701  68.970  1.00  0.00    -0.256 OA 
BRANCH  17  18
HETATM   18  C   UNL     1     -10.791  17.161  68.007  1.00  0.00    -0.317 C  
BRANCH  18  19
HETATM   19  O   UNL     1     -10.520  18.523  67.677  1.00  0.00    -0.385 OA 
BRANCH  19  20
HETATM   20  C   UNL     1     -10.254  18.697  66.363  1.00  0.00    -0.425 C  
HETATM   21  O   UNL     1     -10.769  18.093  65.432  1.00  0.00    -0.620 OA 
BRANCH  20  22
HETATM   22  O   UNL     1      -9.341  19.696  66.247  1.00  0.00    -0.361 OA 
HETATM   23  C   UNL     1      -9.502  20.725  67.216  1.00  0.00    -0.327 C  
ENDBRANCH  20  22
ENDBRANCH  19  20
ENDBRANCH  18  19
ENDBRANCH  17  18
ENDBRANCH  10  17
BRANCH  11  24
HETATM   24  C   UNL     1      -9.811  11.468  66.947  1.00  0.00    -0.197 C  
HETATM   25  C   UNL     1     -10.632  12.477  66.064  1.00  0.00    -0.289 A  
HETATM   26  C   UNL     1     -10.992  13.762  66.504  1.00  0.00    -0.299 A  
HETATM   27  C   UNL     1     -11.680  14.737  65.776  1.00  0.00    -0.252 A  
HETATM   28  C   UNL     1     -12.094  14.426  64.515  1.00  0.00    -0.481 A  
HETATM   29  C   UNL     1     -11.850  13.156  64.032  1.00  0.00    -0.453 A  
HETATM   30  F   UNL     1     -12.709  15.353  63.770  1.00  0.00    -0.265 F  
HETATM   31  F   UNL     1     -12.265  12.853  62.792  1.00  0.00    -0.437 F  
HETATM   32  C   UNL     1     -11.156  12.172  64.795  1.00  0.00    -0.364 A  
HETATM   33  C   UNL     1     -10.861  10.877  64.114  1.00  0.00    -0.027 C  
HETATM   34  S   UNL     1      -9.191  11.043  63.463  1.00  0.00    -0.205 SA 
HETATM   35  C   UNL     1      -8.265  10.576  64.915  1.00  0.00    -0.117 A  
HETATM   36  C   UNL     1      -7.032   9.986  64.546  1.00  0.00    -0.136 A  
HETATM   37  C   UNL     1      -6.242   9.303  65.456  1.00  0.00    -0.064 A  
HETATM   38  C   UNL     1      -6.712   9.141  66.745  1.00  0.00    -0.076 A  
HETATM   39  C   UNL     1      -7.906   9.773  67.143  1.00  0.00    -0.099 A  
HETATM   40  C   UNL     1      -8.665  10.600  66.270  1.00  0.00    -0.163 A  
ENDBRANCH  11  24
TORSDOF 6
ENDMDL
MODEL       17
REMARK 921   NORMALIZED FREE ENERGY PREDICTED BY IDOCK:   -5.50 KCAL/MOL
REMARK 922        TOTAL FREE ENERGY PREDICTED BY IDOCK:   -8.17 KCAL/MOL
REMARK 923 INTER-LIGAND FREE ENERGY PREDICTED BY IDOCK:   -7.51 KCAL/MOL
REMARK 924 INTRA-LIGAND FREE ENERGY PREDICTED BY IDOCK:   -0.65 KCAL/MOL
REMARK 927      BINDING AFFINITY PREDICTED BY RF-SCORE:    0.00 PKD
ROOT
HETATM    1  C   UNL     1      -6.934   8.905  69.362  1.00  0.00    -0.053 C  
HETATM    2  C   UNL     1      -6.233   9.844  70.389  1.00  0.00    -0.094 C  
HETATM    3  O   UNL     1      -5.191  10.659  69.836  1.00  0.00    -0.038 OA 
HETATM    4  C   UNL     1      -5.678  11.363  68.696  1.00  0.00    -0.042 C  
HETATM    5  C   UNL     1      -5.949  10.387  67.559  1.00  0.00    -0.052 C  
HETATM    6  N   UNL     1      -6.628   9.157  67.969  1.00  0.00    -0.060 N  
HETATM    7  C   UNL     1      -6.984   8.214  67.007  1.00  0.00    -0.074 C  
HETATM    8  O   UNL     1      -6.480   8.227  65.887  1.00  0.00    -0.051 OA 
HETATM    9  C   UNL     1      -8.227   7.389  67.376  1.00  0.00    -0.113 C  
HETATM   10  C   UNL     1      -8.870   6.691  66.406  1.00  0.00    -0.144 C  
HETATM   11  N   UNL     1      -8.379   8.668  69.494  1.00  0.00    -0.115 NA 
HETATM   12  C   UNL     1     -10.161   6.011  66.792  1.00  0.00    -0.214 C  
HETATM   13  O   UNL     1     -10.883   5.435  65.983  1.00  0.00    -0.154 OA 
HETATM   14  N   UNL     1      -8.791   7.573  68.661  1.00  0.00    -0.128 NA 
HETATM   15  C   UNL     1     -10.571   6.034  68.209  1.00  0.00    -0.325 C  
HETATM   16  C   UNL     1      -9.868   6.802  69.042  1.00  0.00    -0.149 C  
ENDROOT
BRANCH  10  17
HETATM   17  O   UNL     1      -8.475   6.744  65.084  1.00  0.00    -0.120 OA 
BRANCH  17  18
HETATM   18  C   UNL     1      -7.720   5.644  64.586  1.00  0.00    -0.099 C  
BRANCH  18  19
HETATM   19  O   UNL     1      -8.535   4.847  63.728  1.00  0.00    -0.125 OA 
BRANCH  19  20
HETATM   20  C   UNL     1      -8.624   3.563  64.141  1.00  0.00    -0.090 C  
HETATM   21  O   UNL     1      -8.168   3.100  65.177  1.00  0.00    -0.092 OA 
BRANCH  20  22
HETATM   22  O   UNL     1      -9.353   2.876  63.223  1.00  0.00    -0.094 OA 
HETATM   23  C   UNL     1     -10.754   3.103  63.327  1.00  0.00    -0.235 C  
ENDBRANCH  20  22
ENDBRANCH  19  20
ENDBRANCH  18  19
ENDBRANCH  17  18
ENDBRANCH  10  17
BRANCH  11  24
HETATM   24  C   UNL     1      -9.379   9.812  69.693  1.00  0.00    -0.219 C  
HETATM   25  C   UNL     1      -9.982  10.485  68.406  1.00  0.00    -0.177 A  
HETATM   26  C   UNL     1      -9.564  10.160  67.105  1.00  0.00    -0.202 A  
HETATM   27  C   UNL     1     -10.072  10.673  65.908  1.00  0.00    -0.321 A  
HETATM   28  C   UNL     1     -11.049  11.620  65.975  1.00  0.00    -0.270 A  
HETATM   29  C   UNL     1     -11.464  12.055  67.218  1.00  0.00    -0.335 A  
HETATM   30  F   UNL     1     -11.594  12.095  64.849  1.00  0.00    -0.357 F  
HETATM   31  F   UNL     1     -12.423  12.993  67.280  1.00  0.00    -0.299 F  
HETATM   32  C   UNL     1     -10.926  11.528  68.428  1.00  0.00    -0.267 A  
HETATM   33  C   UNL     1     -11.541  12.004  69.702  1.00  0.00    -0.301 C  
HETATM   34  S   UNL     1     -12.783  10.773  70.130  1.00  0.00    -0.053 SA 
HETATM   35  C   UNL     1     -11.746   9.597  70.982  1.00  0.00    -0.353 A  
HETATM   36  C   UNL     1     -12.492   8.903  71.964  1.00  0.00    -0.461 A  
HETATM   37  C   UNL     1     -11.884   8.128  72.938  1.00  0.00    -0.145 A  
HETATM   38  C   UNL     1     -10.504   8.092  72.984  1.00  0.00    -0.341 A  
HETATM   39  C   UNL     1      -9.750   8.727  71.979  1.00  0.00    -0.370 A  
HETATM   40  C   UNL     1     -10.350   9.410  70.884  1.00  0.00    -0.380 A  
ENDBRANCH  11  24
TORSDOF 6
ENDMDL
MODEL       18
REMARK 921   NORMALIZED FREE ENERGY PREDICTED BY IDOCK:   -5.44 KCAL/MOL
REMARK 922        TOTAL FREE ENERGY PREDICTED BY IDOCK:   -8.09 KCAL/MOL
REMARK 923 INTER-LIGAND FREE ENERGY PREDICTED BY IDOCK:  -10.50 KCAL/MOL
REMARK 924 INTRA-LIGAND FREE ENERGY PREDICTED BY IDOCK:    2.41 KCAL/MOL
REMARK 927      BINDING AFFINITY PREDICTED BY RF-SCORE:    0.00 PKD
ROOT
HETATM    1  C   UNL     1      -8.029  10.809  66.671  1.00  0.00    -0.139 C  
HETATM    2  C   UNL     1      -6.892   9.759  66.842  1.00  0.00    -0.083 C  
HETATM    3  O   UNL     1      -6.121   9.906  68.043  1.00  0.00    -0.053 OA 
HETATM    4  C   UNL     1      -6.987   9.963  69.173  1.00  0.00    -0.057 C  
HETATM    5  C   UNL     1      -7.786  11.259  69.152  1.00  0.00    -0.046 C  
HETATM    6  N   UNL     1      -8.320  11.616  67.838  1.00  0.00    -0.136 N  
HETATM    7  C   UNL     1      -9.118  12.751  67.705  1.00  0.00    -0.197 C  
HETATM    8  O   UNL     1      -9.134  13.623  68.571  1.00  0.00    -0.183 OA 
HETATM    9  C   UNL     1     -10.150  12.655  66.570  1.00  0.00    -0.248 C  
HETATM   10  C   UNL     1     -11.192  13.523  66.547  1.00  0.00    -0.306 C  
HETATM   11  N   UNL     1      -9.297  10.384  66.062  1.00  0.00    -0.171 NA 
HETATM   12  C   UNL     1     -12.249  13.299  65.492  1.00  0.00    -0.457 C  
HETATM   13  O   UNL     1     -13.286  13.953  65.433  1.00  0.00    -0.710 OA 
HETATM   14  N   UNL     1     -10.104  11.522  65.722  1.00  0.00    -0.227 NA 
HETATM   15  C   UNL     1     -12.020  12.250  64.482  1.00  0.00    -0.459 C  
HETATM   16  C   UNL     1     -10.975  11.440  64.658  1.00  0.00    -0.255 C  
ENDROOT
BRANCH  10  17
HETATM   17  O   UNL     1     -11.388  14.456  67.547  1.00  0.00    -0.298 OA 
BRANCH  17  18
HETATM   18  C   UNL     1     -11.286  15.829  67.184  1.00  0.00    -0.110 C  
BRANCH  18  19
HETATM   19  O   UNL     1     -10.301  15.987  66.163  1.00  0.00    -0.298 OA 
BRANCH  19  20
HETATM   20  C   UNL     1     -10.533  17.064  65.380  1.00  0.00    -0.112 C  
HETATM   21  O   UNL     1     -11.282  17.112  64.414  1.00  0.00    -1.143 OA 
BRANCH  20  22
HETATM   22  O   UNL     1      -9.820  18.108  65.879  1.00  0.00    -0.537 OA 
HETATM   23  C   UNL     1     -10.569  19.313  65.970  1.00  0.00    -0.461 C  
ENDBRANCH  20  22
ENDBRANCH  19  20
ENDBRANCH  18  19
ENDBRANCH  17  18
ENDBRANCH  10  17
BRANCH  11  24
HETATM   24  C   UNL     1     -10.030   9.112  66.506  1.00  0.00    -0.288 C  
HETATM   25  C   UNL     1      -9.335   7.732  66.217  1.00  0.00    -0.210 A  
HETATM   26  C   UNL     1      -8.143   7.615  65.482  1.00  0.00    -0.130 A  
HETATM   27  C   UNL     1      -7.435   6.439  65.214  1.00  0.00    -0.081 A  
HETATM   28  C   UNL     1      -7.948   5.260  65.666  1.00  0.00    -0.106 A  
HETATM   29  C   UNL     1      -9.158   5.277  66.331  1.00  0.00    -0.137 A  
HETATM   30  F   UNL     1      -7.271   4.122  65.474  1.00  0.00    -0.065 F  
HETATM   31  F   UNL     1      -9.663   4.112  66.769  1.00  0.00    -0.182 F  
HETATM   32  C   UNL     1      -9.871   6.485  66.585  1.00  0.00    -0.203 A  
HETATM   33  C   UNL     1     -11.110   6.375  67.409  1.00  0.00    -0.322 C  
HETATM   34  S   UNL     1     -10.600   6.734  69.098  1.00  0.00    -0.249 SA 
HETATM   35  C   UNL     1     -10.694   8.516  69.058  1.00  0.00    -0.092 A  
HETATM   36  C   UNL     1     -10.996   9.023  70.345  1.00  0.00    -0.283 A  
HETATM   37  C   UNL     1     -11.381  10.338  70.545  1.00  0.00    -0.422 A  
HETATM   38  C   UNL     1     -11.537  11.154  69.441  1.00  0.00    -0.388 A  
HETATM   39  C   UNL     1     -11.184  10.683  68.162  1.00  0.00    -0.366 A  
HETATM   40  C   UNL     1     -10.648   9.383  67.944  1.00  0.00    -0.293 A  
ENDBRANCH  11  24
TORSDOF 6
ENDMDL
MODEL       19
REMARK 921   NORMALIZED FREE ENERGY PREDICTED BY IDOCK:   -5.40 KCAL/MOL
REMARK 922        TOTAL FREE ENERGY PREDICTED BY IDOCK:   -8.03 KCAL/MOL
REMARK 923 INTER-LIGAND FREE ENERGY PREDICTED BY IDOCK:   -7.38 KCAL/MOL
REMARK 924 INTRA-LIGAND FREE ENERGY PREDICTED BY IDOCK:   -0.65 KCAL/MOL
REMARK 927      BINDING AFFINITY PREDICTED BY RF-SCORE:    0.00 PKD
ROOT
HETATM    1  C   UNL     1      -8.316   6.633  67.901  1.00  0.00    -0.119 C  
HETATM    2  C   UNL     1      -8.565   6.461  66.373  1.00  0.00    -0.134 C  
HETATM    3  O   UNL     1      -9.612   5.539  66.042  1.00  0.00    -0.157 OA 
HETATM    4  C   UNL     1     -10.800   5.874  66.755  1.00  0.00    -0.270 C  
HETATM    5  C   UNL     1     -10.607   5.607  68.242  1.00  0.00    -0.181 C  
HETATM    6  N   UNL     1      -9.318   6.054  68.771  1.00  0.00    -0.122 N  
HETATM    7  C   UNL     1      -9.049   5.918  70.132  1.00  0.00    -0.145 C  
HETATM    8  O   UNL     1      -9.714   5.165  70.840  1.00  0.00    -0.168 OA 
HETATM    9  C   UNL     1      -8.085   6.980  70.683  1.00  0.00    -0.117 C  
HETATM   10  C   UNL     1      -8.007   7.170  72.025  1.00  0.00    -0.092 C  
HETATM   11  N   UNL     1      -7.959   7.965  68.412  1.00  0.00    -0.120 NA 
HETATM   12  C   UNL     1      -7.150   8.316  72.506  1.00  0.00    -0.100 C  
HETATM   13  O   UNL     1      -7.079   8.650  73.686  1.00  0.00    -0.311 OA 
HETATM   14  N   UNL     1      -7.489   7.878  69.766  1.00  0.00    -0.086 NA 
HETATM   15  C   UNL     1      -6.357   9.065  71.513  1.00  0.00    -0.079 C  
HETATM   16  C   UNL     1      -6.573   8.800  70.224  1.00  0.00    -0.040 C  
ENDROOT
BRANCH  10  17
HETATM   17  O   UNL     1      -8.810   6.477  72.909  1.00  0.00    -0.124 OA 
BRANCH  17  18
HETATM   18  C   UNL     1      -9.858   7.203  73.541  1.00  0.00    -0.280 C  
BRANCH  18  19
HETATM   19  O   UNL     1     -10.499   6.379  74.515  1.00  0.00    -0.274 OA 
BRANCH  19  20
HETATM   20  C   UNL     1     -10.902   5.193  74.008  1.00  0.00    -0.187 C  
HETATM   21  O   UNL     1     -11.783   5.020  73.177  1.00  0.00    -0.313 OA 
BRANCH  20  22
HETATM   22  O   UNL     1     -10.126   4.219  74.550  1.00  0.00    -0.166 OA 
HETATM   23  C   UNL     1     -10.482   2.909  74.125  1.00  0.00    -0.170 C  
ENDBRANCH  20  22
ENDBRANCH  19  20
ENDBRANCH  18  19
ENDBRANCH  17  18
ENDBRANCH  10  17
BRANCH  11  24
HETATM   24  C   UNL     1      -8.736   9.226  68.019  1.00  0.00    -0.125 C  
HETATM   25  C   UNL     1      -9.875   9.711  68.987  1.00  0.00    -0.183 A  
HETATM   26  C   UNL     1     -10.277   8.985  70.121  1.00  0.00    -0.224 A  
HETATM   27  C   UNL     1     -11.246   9.359  71.057  1.00  0.00    -0.412 A  
HETATM   28  C   UNL     1     -11.919  10.527  70.856  1.00  0.00    -0.377 A  
HETATM   29  C   UNL     1     -11.641  11.265  69.723  1.00  0.00    -0.333 A  
HETATM   30  F   UNL     1     -12.816  10.941  71.760  1.00  0.00    -0.469 F  
HETATM   31  F   UNL     1     -12.312  12.411  69.526  1.00  0.00    -0.269 F  
HETATM   32  C   UNL     1     -10.657  10.861  68.774  1.00  0.00    -0.231 A  
HETATM   33  C   UNL     1     -10.378  11.804  67.652  1.00  0.00    -0.200 C  
HETATM   34  S   UNL     1      -8.960  12.779  68.182  1.00  0.00    -0.185 SA 
HETATM   35  C   UNL     1      -7.646  11.678  67.684  1.00  0.00    -0.128 A  
HETATM   36  C   UNL     1      -6.480  12.414  67.365  1.00  0.00    -0.154 A  
HETATM   37  C   UNL     1      -5.406  11.840  66.706  1.00  0.00    -0.092 A  
HETATM   38  C   UNL     1      -5.512  10.525  66.294  1.00  0.00    -0.073 A  
HETATM   39  C   UNL     1      -6.639   9.763  66.656  1.00  0.00    -0.071 A  
HETATM   40  C   UNL     1      -7.694  10.285  67.456  1.00  0.00    -0.094 A  
ENDBRANCH  11  24
TORSDOF 6
ENDMDL
MODEL       20
REMARK 921   NORMALIZED FREE ENERGY PREDICTED BY IDOCK:   -5.39 KCAL/MOL
REMARK 922        TOTAL FREE ENERGY PREDICTED BY IDOCK:   -8.02 KCAL/MOL
REMARK 923 INTER-LIGAND FREE ENERGY PREDICTED BY IDOCK:   -8.55 KCAL/MOL
REMARK 924 INTRA-LIGAND FREE ENERGY PREDICTED BY IDOCK:    0.53 KCAL/MOL
REMARK 927      BINDING AFFINITY PREDICTED BY RF-SCORE:    0.00 PKD
ROOT
HETATM    1  C   UNL     1      -7.257  10.888  67.858  1.00  0.00    -0.086 C  
HETATM    2  C   UNL     1      -6.140   9.880  68.258  1.00  0.00    -0.046 C  
HETATM    3  O   UNL     1      -5.126  10.425  69.115  1.00  0.00    -0.039 OA 
HETATM    4  C   UNL     1      -5.729  11.050  70.245  1.00  0.00    -0.115 C  
HETATM    5  C   UNL     1      -6.477  12.303  69.809  1.00  0.00    -0.038 C  
HETATM    6  N   UNL     1      -7.270  12.137  68.591  1.00  0.00    -0.106 N  
HETATM    7  C   UNL     1      -8.047  13.198  68.126  1.00  0.00    -0.155 C  
HETATM    8  O   UNL     1      -7.853  14.347  68.516  1.00  0.00    -0.125 OA 
HETATM    9  C   UNL     1      -9.299  12.757  67.352  1.00  0.00    -0.193 C  
HETATM   10  C   UNL     1     -10.298  13.652  67.144  1.00  0.00    -0.250 C  
HETATM   11  N   UNL     1      -8.638  10.399  67.734  1.00  0.00    -0.121 NA 
HETATM   12  C   UNL     1     -11.561  13.132  66.501  1.00  0.00    -0.356 C  
HETATM   13  O   UNL     1     -12.569  13.819  66.353  1.00  0.00    -0.389 OA 
HETATM   14  N   UNL     1      -9.467  11.377  67.087  1.00  0.00    -0.174 NA 
HETATM   15  C   UNL     1     -11.583  11.737  66.023  1.00  0.00    -0.206 C  
HETATM   16  C   UNL     1     -10.547  10.960  66.341  1.00  0.00    -0.229 C  
ENDROOT
BRANCH  10  17
HETATM   17  O   UNL     1     -10.249  14.933  67.658  1.00  0.00    -0.234 OA 
BRANCH  17  18
HETATM   18  C   UNL     1     -10.673  15.991  66.806  1.00  0.00    -0.259 C  
BRANCH  18  19
HETATM   19  O   UNL     1     -10.444  17.248  67.443  1.00  0.00    -0.339 OA 
BRANCH  19  20
HETATM   20  C   UNL     1      -9.363  17.892  66.949  1.00  0.00    -0.275 C  
HETATM   21  O   UNL     1      -9.045  17.979  65.771  1.00  0.00    -0.482 OA 
BRANCH  20  22
HETATM   22  O   UNL     1      -8.706  18.469  67.989  1.00  0.00    -0.281 OA 
HETATM   23  C   UNL     1      -7.996  17.539  68.797  1.00  0.00    -0.238 C  
ENDBRANCH  20  22
ENDBRANCH  19  20
ENDBRANCH  18  19
ENDBRANCH  17  18
ENDBRANCH  10  17
BRANCH  11  24
HETATM   24  C   UNL     1      -9.294   9.525  68.809  1.00  0.00    -0.146 C  
HETATM   25  C   UNL     1     -10.461  10.159  69.651  1.00  0.00    -0.282 A  
HETATM   26  C   UNL     1     -10.844  11.506  69.534  1.00  0.00    -0.121 A  
HETATM   27  C   UNL     1     -11.892  12.141  70.208  1.00  0.00    -0.339 A  
HETATM   28  C   UNL     1     -12.613  11.416  71.108  1.00  0.00    -0.386 A  
HETATM   29  C   UNL     1     -12.253  10.104  71.342  1.00  0.00    -0.397 A  
HETATM   30  F   UNL     1     -13.657  11.977  71.732  1.00  0.00    -0.425 F  
HETATM   31  F   UNL     1     -12.962   9.395  72.235  1.00  0.00    -0.413 F  
HETATM   32  C   UNL     1     -11.173   9.477  70.654  1.00  0.00    -0.364 A  
HETATM   33  C   UNL     1     -10.960   8.024  70.918  1.00  0.00    -0.243 C  
HETATM   34  S   UNL     1     -11.837   7.159  69.605  1.00  0.00     0.423 SA 
HETATM   35  C   UNL     1     -10.577   7.191  68.342  1.00  0.00    -0.186 A  
HETATM   36  C   UNL     1     -10.704   6.068  67.490  1.00  0.00    -0.383 A  
HETATM   37  C   UNL     1      -9.710   5.709  66.595  1.00  0.00    -0.176 A  
HETATM   38  C   UNL     1      -8.535   6.436  66.588  1.00  0.00    -0.115 A  
HETATM   39  C   UNL     1      -8.417   7.590  67.386  1.00  0.00    -0.115 A  
HETATM   40  C   UNL     1      -9.476   8.066  68.208  1.00  0.00    -0.147 A  
ENDBRANCH  11  24
TORSDOF 6
ENDMDL
MODEL       21
REMARK 921   NORMALIZED FREE ENERGY PREDICTED BY IDOCK:   -5.31 KCAL/MOL
REMARK 922        TOTAL FREE ENERGY PREDICTED BY IDOCK:   -7.92 KCAL/MOL
REMARK 923 INTER-LIGAND FREE ENERGY PREDICTED BY IDOCK:   -7.26 KCAL/MOL
REMARK 924 INTRA-LIGAND FREE ENERGY PREDICTED BY IDOCK:   -0.66 KCAL/MOL
REMARK 927      BINDING AFFINITY PREDICTED BY RF-SCORE:    0.00 PKD
ROOT
HETATM    1  C   UNL     1     -10.669  10.930  65.689  1.00  0.00    -0.108 C  
HETATM    2  C   UNL     1      -9.985  10.512  64.353  1.00  0.00    -0.343 C  
HETATM    3  O   UNL     1     -10.049  11.503  63.318  1.00  0.00    -0.365 OA 
HETATM    4  C   UNL     1      -9.571  12.752  63.809  1.00  0.00     0.786 C  
HETATM    5  C   UNL     1     -10.543  13.313  64.839  1.00  0.00    -0.366 C  
HETATM    6  N   UNL     1     -11.043  12.324  65.795  1.00  0.00    -0.310 N  
HETATM    7  C   UNL     1     -11.893  12.730  66.823  1.00  0.00    -0.382 C  
HETATM    8  O   UNL     1     -12.481  13.808  66.774  1.00  0.00    -0.366 OA 
HETATM    9  C   UNL     1     -11.786  11.872  68.093  1.00  0.00    -0.320 C  
HETATM   10  C   UNL     1     -12.292  12.349  69.258  1.00  0.00     0.137 C  
HETATM   11  N   UNL     1     -10.058  10.505  66.957  1.00  0.00    -0.204 NA 
HETATM   12  C   UNL     1     -12.039  11.530  70.502  1.00  0.00    -0.378 C  
HETATM   13  O   UNL     1     -12.357  11.905  71.627  1.00  0.00    -0.066 OA 
HETATM   14  N   UNL     1     -10.961  10.723  68.053  1.00  0.00    -0.259 NA 
HETATM   15  C   UNL     1     -11.384  10.217  70.356  1.00  0.00    -0.410 C  
HETATM   16  C   UNL     1     -10.895   9.901  69.157  1.00  0.00    -0.221 C  
ENDROOT
BRANCH  10  17
HETATM   17  O   UNL     1     -12.851  13.609  69.351  1.00  0.00     0.240 OA 
BRANCH  17  18
HETATM   18  C   UNL     1     -12.153  14.573  70.133  1.00  0.00    -0.334 C  
BRANCH  18  19
HETATM   19  O   UNL     1     -13.087  15.396  70.832  1.00  0.00    -0.455 OA 
BRANCH  19  20
HETATM   20  C   UNL     1     -12.559  15.948  71.948  1.00  0.00    -0.443 C  
HETATM   21  O   UNL     1     -11.570  16.665  72.004  1.00  0.00    -0.375 OA 
BRANCH  20  22
HETATM   22  O   UNL     1     -13.347  15.606  73.000  1.00  0.00    -0.491 OA 
HETATM   23  C   UNL     1     -12.633  14.993  74.067  1.00  0.00    -0.433 C  
ENDBRANCH  20  22
ENDBRANCH  19  20
ENDBRANCH  18  19
ENDBRANCH  17  18
ENDBRANCH  10  17
BRANCH  11  24
HETATM   24  C   UNL     1      -8.561  10.674  67.239  1.00  0.00    -0.126 C  
HETATM   25  C   UNL     1      -8.094  12.010  67.923  1.00  0.00    -0.150 A  
HETATM   26  C   UNL     1      -8.964  13.083  68.180  1.00  0.00    -0.198 A  
HETATM   27  C   UNL     1      -8.647  14.285  68.820  1.00  0.00    -0.101 A  
HETATM   28  C   UNL     1      -7.358  14.487  69.212  1.00  0.00    -0.126 A  
HETATM   29  C   UNL     1      -6.420  13.514  68.927  1.00  0.00    -0.102 A  
HETATM   30  F   UNL     1      -7.031  15.604  69.874  1.00  0.00    -0.181 F  
HETATM   31  F   UNL     1      -5.150  13.720  69.310  1.00  0.00    -0.081 F  
HETATM   32  C   UNL     1      -6.760  12.299  68.264  1.00  0.00    -0.064 A  
HETATM   33  C   UNL     1      -5.674  11.287  68.117  1.00  0.00    -0.045 C  
HETATM   34  S   UNL     1      -5.865  10.167  69.514  1.00  0.00    -0.039 SA 
HETATM   35  C   UNL     1      -7.091   9.061  68.836  1.00  0.00    -0.069 A  
HETATM   36  C   UNL     1      -6.952   7.768  69.395  1.00  0.00    -0.063 A  
HETATM   37  C   UNL     1      -7.596   6.664  68.862  1.00  0.00    -0.101 A  
HETATM   38  C   UNL     1      -8.342   6.829  67.710  1.00  0.00    -0.119 A  
HETATM   39  C   UNL     1      -8.539   8.117  67.178  1.00  0.00    -0.124 A  
HETATM   40  C   UNL     1      -8.008   9.289  67.787  1.00  0.00    -0.100 A  
ENDBRANCH  11  24
TORSDOF 6
ENDMDL
MODEL       22
REMARK 921   NORMALIZED FREE ENERGY PREDICTED BY IDOCK:   -5.23 KCAL/MOL
REMARK 922        TOTAL FREE ENERGY PREDICTED BY IDOCK:   -7.80 KCAL/MOL
REMARK 923 INTER-LIGAND FREE ENERGY PREDICTED BY IDOCK:   -6.91 KCAL/MOL
REMARK 924 INTRA-LIGAND FREE ENERGY PREDICTED BY IDOCK:   -0.90 KCAL/MOL
REMARK 927      BINDING AFFINITY PREDICTED BY RF-SCORE:    0.00 PKD
ROOT
HETATM    1  C   UNL     1      -8.319  12.488  68.297  1.00  0.00    -0.167 C  
HETATM    2  C   UNL     1      -7.942  13.916  67.802  1.00  0.00    -0.172 C  
HETATM    3  O   UNL     1      -6.685  14.403  68.292  1.00  0.00    -0.093 OA 
HETATM    4  C   UNL     1      -5.660  13.447  68.035  1.00  0.00    -0.116 C  
HETATM    5  C   UNL     1      -5.874  12.210  68.897  1.00  0.00    -0.061 C  
HETATM    6  N   UNL     1      -7.263  11.753  68.959  1.00  0.00    -0.104 N  
HETATM    7  C   UNL     1      -7.574  10.594  69.669  1.00  0.00    -0.092 C  
HETATM    8  O   UNL     1      -6.792  10.122  70.491  1.00  0.00    -0.215 OA 
HETATM    9  C   UNL     1      -8.798   9.842  69.123  1.00  0.00    -0.160 C  
HETATM   10  C   UNL     1      -9.002   8.553  69.495  1.00  0.00    -0.149 C  
HETATM   11  N   UNL     1      -9.019  11.583  67.373  1.00  0.00    -0.153 NA 
HETATM   12  C   UNL     1     -10.139   7.818  68.824  1.00  0.00    -0.196 C  
HETATM   13  O   UNL     1     -10.360   6.623  69.001  1.00  0.00    -0.171 OA 
HETATM   14  N   UNL     1      -9.536  10.442  68.075  1.00  0.00    -0.142 NA 
HETATM   15  C   UNL     1     -11.026   8.573  67.921  1.00  0.00     0.095 C  
HETATM   16  C   UNL     1     -10.674   9.821  67.609  1.00  0.00    -0.274 C  
ENDROOT
BRANCH  10  17
HETATM   17  O   UNL     1      -8.112   7.875  70.304  1.00  0.00    -0.110 OA 
BRANCH  17  18
HETATM   18  C   UNL     1      -8.595   7.421  71.564  1.00  0.00    -0.117 C  
BRANCH  18  19
HETATM   19  O   UNL     1      -9.474   8.395  72.125  1.00  0.00    -0.234 OA 
BRANCH  19  20
HETATM   20  C   UNL     1     -10.544   7.839  72.737  1.00  0.00    -0.341 C  
HETATM   21  O   UNL     1     -10.545   7.269  73.819  1.00  0.00    -0.364 OA 
BRANCH  20  22
HETATM   22  O   UNL     1     -11.635   8.061  71.961  1.00  0.00    -0.279 OA 
HETATM   23  C   UNL     1     -11.780   9.419  71.561  1.00  0.00    -0.394 C  
ENDBRANCH  20  22
ENDBRANCH  19  20
ENDBRANCH  18  19
ENDBRANCH  17  18
ENDBRANCH  10  17
BRANCH  11  24
HETATM   24  C   UNL     1      -8.546  11.364  65.931  1.00  0.00    -0.049 C  
HETATM   25  C   UNL     1      -7.709  10.068  65.628  1.00  0.00    -0.136 A  
HETATM   26  C   UNL     1      -7.289   9.177  66.629  1.00  0.00    -0.086 A  
HETATM   27  C   UNL     1      -6.581   7.984  66.448  1.00  0.00    -0.051 A  
HETATM   28  C   UNL     1      -6.210   7.641  65.183  1.00  0.00    -0.038 A  
HETATM   29  C   UNL     1      -6.515   8.501  64.147  1.00  0.00    -0.071 A  
HETATM   30  F   UNL     1      -5.578   6.480  64.967  1.00  0.00    -0.022 F  
HETATM   31  F   UNL     1      -6.142   8.162  62.903  1.00  0.00    -0.072 F  
HETATM   32  C   UNL     1      -7.227   9.719  64.353  1.00  0.00    -0.129 A  
HETATM   33  C   UNL     1      -7.588  10.501  63.136  1.00  0.00    -0.030 C  
HETATM   34  S   UNL     1      -9.266  10.000  62.718  1.00  0.00    -0.265 SA 
HETATM   35  C   UNL     1     -10.174  11.103  63.788  1.00  0.00    -0.377 A  
HETATM   36  C   UNL     1     -11.437  11.407  63.226  1.00  0.00    -0.037 A  
HETATM   37  C   UNL     1     -12.231  12.432  63.712  1.00  0.00    -0.626 A  
HETATM   38  C   UNL     1     -11.736  13.220  64.734  1.00  0.00    -0.390 A  
HETATM   39  C   UNL     1     -10.510  12.893  65.343  1.00  0.00    -0.308 A  
HETATM   40  C   UNL     1      -9.741  11.759  64.961  1.00  0.00    -0.212 A  
ENDBRANCH  11  24
TORSDOF 6
ENDMDL
MODEL       23
REMARK 921   NORMALIZED FREE ENERGY PREDICTED BY IDOCK:   -5.23 KCAL/MOL
REMARK 922        TOTAL FREE ENERGY PREDICTED BY IDOCK:   -7.80 KCAL/MOL
REMARK 923 INTER-LIGAND FREE ENERGY PREDICTED BY IDOCK:   -7.01 KCAL/MOL
REMARK 924 INTRA-LIGAND FREE ENERGY PREDICTED BY IDOCK:   -0.79 KCAL/MOL
REMARK 927      BINDING AFFINITY PREDICTED BY RF-SCORE:    0.00 PKD
ROOT
HETATM    1  C   UNL     1      -6.472   8.248  70.388  1.00  0.00    -0.036 C  
HETATM    2  C   UNL     1      -5.998   8.903  71.719  1.00  0.00    -0.065 C  
HETATM    3  O   UNL     1      -5.214  10.092  71.551  1.00  0.00    -0.071 OA 
HETATM    4  C   UNL     1      -5.898  11.011  70.704  1.00  0.00    -0.105 C  
HETATM    5  C   UNL     1      -5.951  10.467  69.282  1.00  0.00    -0.037 C  
HETATM    6  N   UNL     1      -6.284   9.045  69.194  1.00  0.00    -0.042 N  
HETATM    7  C   UNL     1      -6.421   8.447  67.942  1.00  0.00    -0.057 C  
HETATM    8  O   UNL     1      -5.973   8.981  66.930  1.00  0.00    -0.054 OA 
HETATM    9  C   UNL     1      -7.403   7.266  67.922  1.00  0.00    -0.097 C  
HETATM   10  C   UNL     1      -7.880   6.821  66.731  1.00  0.00    -0.107 C  
HETATM   11  N   UNL     1      -7.805   7.630  70.340  1.00  0.00    -0.090 NA 
HETATM   12  C   UNL     1      -8.945   5.752  66.775  1.00  0.00    -0.118 C  
HETATM   13  O   UNL     1      -9.524   5.342  65.773  1.00  0.00    -0.160 OA 
HETATM   14  N   UNL     1      -7.954   6.837  69.153  1.00  0.00    -0.111 NA 
HETATM   15  C   UNL     1      -9.301   5.169  68.083  1.00  0.00    -0.148 C  
HETATM   16  C   UNL     1      -8.788   5.740  69.173  1.00  0.00    -0.112 C  
ENDROOT
BRANCH  10  17
HETATM   17  O   UNL     1      -7.554   7.436  65.538  1.00  0.00    -0.084 OA 
BRANCH  17  18
HETATM   18  C   UNL     1      -8.533   8.291  64.959  1.00  0.00    -0.123 C  
BRANCH  18  19
HETATM   19  O   UNL     1      -7.891   9.342  64.237  1.00  0.00    -0.113 OA 
BRANCH  19  20
HETATM   20  C   UNL     1      -8.765  10.110  63.550  1.00  0.00    -0.216 C  
HETATM   21  O   UNL     1      -9.228   9.870  62.443  1.00  0.00    -0.278 OA 
BRANCH  20  22
HETATM   22  O   UNL     1      -9.080  11.183  64.321  1.00  0.00    -0.146 OA 
HETATM   23  C   UNL     1     -10.212  11.905  63.852  1.00  0.00    -0.389 C  
ENDBRANCH  20  22
ENDBRANCH  19  20
ENDBRANCH  18  19
ENDBRANCH  17  18
ENDBRANCH  10  17
BRANCH  11  24
HETATM   24  C   UNL     1      -9.055   8.344  70.868  1.00  0.00    -0.160 C  
HETATM   25  C   UNL     1      -9.840   9.270  69.869  1.00  0.00    -0.219 A  
HETATM   26  C   UNL     1      -9.388   9.551  68.569  1.00  0.00    -0.138 A  
HETATM   27  C   UNL     1     -10.040  10.324  67.603  1.00  0.00    -0.229 A  
HETATM   28  C   UNL     1     -11.221  10.914  67.939  1.00  0.00    -0.321 A  
HETATM   29  C   UNL     1     -11.699  10.753  69.224  1.00  0.00    -0.303 A  
HETATM   30  F   UNL     1     -11.897  11.618  67.023  1.00  0.00    -0.351 F  
HETATM   31  F   UNL     1     -12.861  11.342  69.552  1.00  0.00    -0.159 F  
HETATM   32  C   UNL     1     -11.015   9.971  70.199  1.00  0.00    -0.368 A  
HETATM   33  C   UNL     1     -11.696   9.787  71.514  1.00  0.00    -0.375 C  
HETATM   34  S   UNL     1     -12.578   8.223  71.388  1.00  0.00    -0.236 SA 
HETATM   35  C   UNL     1     -11.258   7.107  71.831  1.00  0.00    -0.249 A  
HETATM   36  C   UNL     1     -11.780   5.945  72.448  1.00  0.00    -0.307 A  
HETATM   37  C   UNL     1     -10.972   5.042  73.119  1.00  0.00    -0.375 A  
HETATM   38  C   UNL     1      -9.625   5.329  73.242  1.00  0.00    -0.151 A  
HETATM   39  C   UNL     1      -9.081   6.448  72.584  1.00  0.00    -0.135 A  
HETATM   40  C   UNL     1      -9.862   7.314  71.768  1.00  0.00    -0.175 A  
ENDBRANCH  11  24
TORSDOF 6
ENDMDL
MODEL       24
REMARK 921   NORMALIZED FREE ENERGY PREDICTED BY IDOCK:   -5.19 KCAL/MOL
REMARK 922        TOTAL FREE ENERGY PREDICTED BY IDOCK:   -7.74 KCAL/MOL
REMARK 923 INTER-LIGAND FREE ENERGY PREDICTED BY IDOCK:   -6.84 KCAL/MOL
REMARK 924 INTRA-LIGAND FREE ENERGY PREDICTED BY IDOCK:   -0.90 KCAL/MOL
REMARK 927      BINDING AFFINITY PREDICTED BY RF-SCORE:    0.00 PKD
ROOT
HETATM    1  C   UNL     1      -9.024   7.755  67.204  1.00  0.00    -0.126 C  
HETATM    2  C   UNL     1     -10.118   7.194  66.248  1.00  0.00     0.160 C  
HETATM    3  O   UNL     1     -10.214   5.763  66.229  1.00  0.00    -0.153 OA 
HETATM    4  C   UNL     1     -10.343   5.266  67.559  1.00  0.00    -0.162 C  
HETATM    5  C   UNL     1      -9.044   5.483  68.323  1.00  0.00    -0.108 C  
HETATM    6  N   UNL     1      -8.437   6.799  68.119  1.00  0.00    -0.121 N  
HETATM    7  C   UNL     1      -7.276   7.136  68.813  1.00  0.00    -0.094 C  
HETATM    8  O   UNL     1      -6.579   6.275  69.342  1.00  0.00    -0.041 OA 
HETATM    9  C   UNL     1      -7.135   8.641  69.091  1.00  0.00    -0.063 C  
HETATM   10  C   UNL     1      -6.250   9.060  70.030  1.00  0.00    -0.037 C  
HETATM   11  N   UNL     1      -9.297   9.003  67.933  1.00  0.00    -0.140 NA 
HETATM   12  C   UNL     1      -6.248  10.533  70.362  1.00  0.00    -0.128 C  
HETATM   13  O   UNL     1      -5.566  11.016  71.262  1.00  0.00    -0.310 OA 
HETATM   14  N   UNL     1      -8.094   9.516  68.527  1.00  0.00    -0.100 NA 
HETATM   15  C   UNL     1      -7.100  11.434  69.564  1.00  0.00    -0.020 C  
HETATM   16  C   UNL     1      -7.956  10.875  68.707  1.00  0.00    -0.139 C  
ENDROOT
BRANCH  10  17
HETATM   17  O   UNL     1      -5.511   8.171  70.787  1.00  0.00    -0.029 OA 
BRANCH  17  18
HETATM   18  C   UNL     1      -5.940   7.945  72.125  1.00  0.00    -0.041 C  
BRANCH  18  19
HETATM   19  O   UNL     1      -5.447   6.687  72.585  1.00  0.00    -0.036 OA 
BRANCH  19  20
HETATM   20  C   UNL     1      -6.406   5.934  73.169  1.00  0.00    -0.063 C  
HETATM   21  O   UNL     1      -7.120   6.266  74.105  1.00  0.00    -0.086 OA 
BRANCH  20  22
HETATM   22  O   UNL     1      -6.475   4.752  72.504  1.00  0.00    -0.041 OA 
HETATM   23  C   UNL     1      -7.805   4.354  72.191  1.00  0.00    -0.090 C  
ENDBRANCH  20  22
ENDBRANCH  19  20
ENDBRANCH  18  19
ENDBRANCH  17  18
ENDBRANCH  10  17
BRANCH  11  24
HETATM   24  C   UNL     1     -10.608   9.234  68.694  1.00  0.00    -0.187 C  
HETATM   25  C   UNL     1     -10.688   8.723  70.178  1.00  0.00    -0.239 A  
HETATM   26  C   UNL     1      -9.665   7.978  70.788  1.00  0.00    -0.179 A  
HETATM   27  C   UNL     1      -9.633   7.522  72.110  1.00  0.00    -0.190 A  
HETATM   28  C   UNL     1     -10.709   7.775  72.906  1.00  0.00    -0.385 A  
HETATM   29  C   UNL     1     -11.793   8.435  72.362  1.00  0.00    -0.384 A  
HETATM   30  F   UNL     1     -10.690   7.399  74.190  1.00  0.00    -0.323 F  
HETATM   31  F   UNL     1     -12.854   8.678  73.149  1.00  0.00    -0.304 F  
HETATM   32  C   UNL     1     -11.813   8.883  71.009  1.00  0.00    -0.324 A  
HETATM   33  C   UNL     1     -12.999   9.679  70.580  1.00  0.00     0.020 C  
HETATM   34  S   UNL     1     -12.520  11.404  70.776  1.00  0.00    -0.327 SA 
HETATM   35  C   UNL     1     -11.693  11.655  69.214  1.00  0.00    -0.331 A  
HETATM   36  C   UNL     1     -11.801  13.008  68.811  1.00  0.00    -0.355 A  
HETATM   37  C   UNL     1     -11.480  13.420  67.528  1.00  0.00    -0.357 A  
HETATM   38  C   UNL     1     -11.107  12.464  66.602  1.00  0.00    -0.336 A  
HETATM   39  C   UNL     1     -10.937  11.125  67.004  1.00  0.00    -0.348 A  
HETATM   40  C   UNL     1     -11.120  10.697  68.349  1.00  0.00    -0.328 A  
ENDBRANCH  11  24
TORSDOF 6
ENDMDL
MODEL       25
REMARK 921   NORMALIZED FREE ENERGY PREDICTED BY IDOCK:   -5.15 KCAL/MOL
REMARK 922        TOTAL FREE ENERGY PREDICTED BY IDOCK:   -7.70 KCAL/MOL
REMARK 923 INTER-LIGAND FREE ENERGY PREDICTED BY IDOCK:  -10.01 KCAL/MOL
REMARK 924 INTRA-LIGAND FREE ENERGY PREDICTED BY IDOCK:    2.32 KCAL/MOL
REMARK 927      BINDING AFFINITY PREDICTED BY RF-SCORE:    0.00 PKD
ROOT
HETATM    1  C   UNL     1     -10.780   9.256  67.638  1.00  0.00    -0.209 C  
HETATM    2  C   UNL     1     -10.701   7.701  67.632  1.00  0.00    -0.175 C  
HETATM    3  O   UNL     1      -9.830   7.153  66.633  1.00  0.00    -0.194 OA 
HETATM    4  C   UNL     1      -8.545   7.765  66.720  1.00  0.00    -0.132 C  
HETATM    5  C   UNL     1      -8.634   9.224  66.292  1.00  0.00    -0.128 C  
HETATM    6  N   UNL     1      -9.792   9.939  66.829  1.00  0.00    -0.190 N  
HETATM    7  C   UNL     1      -9.949  11.297  66.556  1.00  0.00    -0.212 C  
HETATM    8  O   UNL     1      -9.333  11.837  65.640  1.00  0.00    -0.221 OA 
HETATM    9  C   UNL     1     -10.698  12.068  67.653  1.00  0.00    -0.217 C  
HETATM   10  C   UNL     1     -10.623  13.423  67.679  1.00  0.00    -0.243 C  
HETATM   11  N   UNL     1     -10.898   9.952  68.928  1.00  0.00    -0.221 NA 
HETATM   12  C   UNL     1     -11.262  14.123  68.854  1.00  0.00    -0.267 C  
HETATM   13  O   UNL     1     -11.175  15.334  69.041  1.00  0.00    -0.248 OA 
HETATM   14  N   UNL     1     -11.246  11.331  68.730  1.00  0.00    -0.225 NA 
HETATM   15  C   UNL     1     -12.032  13.315  69.818  1.00  0.00    -0.391 C  
HETATM   16  C   UNL     1     -11.976  11.989  69.695  1.00  0.00    -0.293 C  
ENDROOT
BRANCH  10  17
HETATM   17  O   UNL     1      -9.846  14.129  66.781  1.00  0.00    -0.256 OA 
BRANCH  17  18
HETATM   18  C   UNL     1     -10.521  15.007  65.886  1.00  0.00    -0.328 C  
BRANCH  18  19
HETATM   19  O   UNL     1     -11.715  14.387  65.410  1.00  0.00    -0.346 OA 
BRANCH  19  20
HETATM   20  C   UNL     1     -12.163  14.936  64.259  1.00  0.00    -0.344 C  
HETATM   21  O   UNL     1     -12.108  16.118  63.949  1.00  0.00    -0.956 OA 
BRANCH  20  22
HETATM   22  O   UNL     1     -12.650  13.937  63.478  1.00  0.00    -0.842 OA 
HETATM   23  C   UNL     1     -11.860  12.755  63.512  1.00  0.00    -0.546 C  
ENDBRANCH  20  22
ENDBRANCH  19  20
ENDBRANCH  18  19
ENDBRANCH  17  18
ENDBRANCH  10  17
BRANCH  11  24
HETATM   24  C   UNL     1      -9.992   9.622  70.119  1.00  0.00    -0.261 C  
HETATM   25  C   UNL     1     -10.266   8.281  70.894  1.00  0.00    -0.224 A  
HETATM   26  C   UNL     1     -11.359   7.444  70.611  1.00  0.00    -0.304 A  
HETATM   27  C   UNL     1     -11.656   6.219  71.217  1.00  0.00    -0.336 A  
HETATM   28  C   UNL     1     -10.842   5.780  72.217  1.00  0.00    -0.248 A  
HETATM   29  C   UNL     1      -9.787   6.580  72.611  1.00  0.00    -0.169 A  
HETATM   30  F   UNL     1     -11.065   4.588  72.782  1.00  0.00    -0.260 F  
HETATM   31  F   UNL     1      -8.991   6.146  73.601  1.00  0.00    -0.127 F  
HETATM   32  C   UNL     1      -9.507   7.832  71.990  1.00  0.00    -0.212 A  
HETATM   33  C   UNL     1      -8.274   8.544  72.436  1.00  0.00    -0.090 C  
HETATM   34  S   UNL     1      -6.992   8.073  71.263  1.00  0.00    -0.060 SA 
HETATM   35  C   UNL     1      -7.313   9.274  69.983  1.00  0.00    -0.083 A  
HETATM   36  C   UNL     1      -6.121   9.583  69.285  1.00  0.00    -0.037 A  
HETATM   37  C   UNL     1      -6.031  10.665  68.425  1.00  0.00    -0.046 A  
HETATM   38  C   UNL     1      -7.124  11.501  68.302  1.00  0.00    -0.080 A  
HETATM   39  C   UNL     1      -8.335  11.174  68.942  1.00  0.00    -0.101 A  
HETATM   40  C   UNL     1      -8.500   9.992  69.716  1.00  0.00    -0.189 A  
ENDBRANCH  11  24
TORSDOF 6
ENDMDL
MODEL       26
REMARK 921   NORMALIZED FREE ENERGY PREDICTED BY IDOCK:   -5.12 KCAL/MOL
REMARK 922        TOTAL FREE ENERGY PREDICTED BY IDOCK:   -7.66 KCAL/MOL
REMARK 923 INTER-LIGAND FREE ENERGY PREDICTED BY IDOCK:   -6.99 KCAL/MOL
REMARK 924 INTRA-LIGAND FREE ENERGY PREDICTED BY IDOCK:   -0.66 KCAL/MOL
REMARK 927      BINDING AFFINITY PREDICTED BY RF-SCORE:    0.00 PKD
ROOT
HETATM    1  C   UNL     1      -7.744  12.670  68.697  1.00  0.00    -0.066 C  
HETATM    2  C   UNL     1      -7.129  14.002  68.175  1.00  0.00    -0.125 C  
HETATM    3  O   UNL     1      -5.698  14.064  68.245  1.00  0.00    -0.097 OA 
HETATM    4  C   UNL     1      -5.130  12.917  67.618  1.00  0.00    -0.079 C  
HETATM    5  C   UNL     1      -5.430  11.672  68.442  1.00  0.00    -0.045 C  
HETATM    6  N   UNL     1      -6.804  11.595  68.938  1.00  0.00    -0.093 N  
HETATM    7  C   UNL     1      -7.215  10.472  69.654  1.00  0.00    -0.148 C  
HETATM    8  O   UNL     1      -6.398   9.699  70.148  1.00  0.00    -0.053 OA 
HETATM    9  C   UNL     1      -8.712  10.156  69.508  1.00  0.00    -0.174 C  
HETATM   10  C   UNL     1      -9.166   8.928  69.864  1.00  0.00    -0.166 C  
HETATM   11  N   UNL     1      -8.925  12.122  68.014  1.00  0.00    -0.182 NA 
HETATM   12  C   UNL     1     -10.616   8.622  69.573  1.00  0.00    -0.213 C  
HETATM   13  O   UNL     1     -11.117   7.516  69.756  1.00  0.00    -0.224 OA 
HETATM   14  N   UNL     1      -9.519  11.072  68.793  1.00  0.00    -0.194 NA 
HETATM   15  C   UNL     1     -11.470   9.705  69.050  1.00  0.00     0.158 C  
HETATM   16  C   UNL     1     -10.875  10.846  68.699  1.00  0.00    -0.217 C  
ENDROOT
BRANCH  10  17
HETATM   17  O   UNL     1      -8.315   7.932  70.301  1.00  0.00    -0.122 OA 
BRANCH  17  18
HETATM   18  C   UNL     1      -8.339   7.619  71.690  1.00  0.00    -0.108 C  
BRANCH  18  19
HETATM   19  O   UNL     1      -9.002   6.371  71.893  1.00  0.00    -0.139 OA 
BRANCH  19  20
HETATM   20  C   UNL     1      -9.946   6.435  72.858  1.00  0.00    -0.174 C  
HETATM   21  O   UNL     1     -10.083   7.329  73.682  1.00  0.00    -0.299 OA 
BRANCH  20  22
HETATM   22  O   UNL     1     -10.753   5.350  72.730  1.00  0.00    -0.216 OA 
HETATM   23  C   UNL     1     -10.971   4.658  73.953  1.00  0.00    -0.263 C  
ENDBRANCH  20  22
ENDBRANCH  19  20
ENDBRANCH  18  19
ENDBRANCH  17  18
ENDBRANCH  10  17
BRANCH  11  24
HETATM   24  C   UNL     1      -8.998  11.991  66.489  1.00  0.00    -0.193 C  
HETATM   25  C   UNL     1      -8.641  10.595  65.859  1.00  0.00    -0.177 A  
HETATM   26  C   UNL     1      -8.159   9.515  66.617  1.00  0.00    -0.108 A  
HETATM   27  C   UNL     1      -7.858   8.231  66.151  1.00  0.00    -0.098 A  
HETATM   28  C   UNL     1      -7.998   7.979  64.820  1.00  0.00    -0.143 A  
HETATM   29  C   UNL     1      -8.393   9.009  63.989  1.00  0.00    -0.176 A  
HETATM   30  F   UNL     1      -7.770   6.748  64.348  1.00  0.00    -0.082 F  
HETATM   31  F   UNL     1      -8.525   8.758  62.677  1.00  0.00    -0.175 F  
HETATM   32  C   UNL     1      -8.685  10.315  64.481  1.00  0.00    -0.205 A  
HETATM   33  C   UNL     1      -9.208  11.305  63.495  1.00  0.00    -0.143 C  
HETATM   34  S   UNL     1     -11.001  11.232  63.640  1.00  0.00    -0.143 SA 
HETATM   35  C   UNL     1     -11.229  12.358  65.005  1.00  0.00    -0.312 A  
HETATM   36  C   UNL     1     -12.490  12.995  64.914  1.00  0.00    -0.512 A  
HETATM   37  C   UNL     1     -12.815  14.097  65.688  1.00  0.00    -0.402 A  
HETATM   38  C   UNL     1     -11.848  14.624  66.523  1.00  0.00    -0.317 A  
HETATM   39  C   UNL     1     -10.612  13.967  66.669  1.00  0.00    -0.274 A  
HETATM   40  C   UNL     1     -10.302  12.752  65.996  1.00  0.00    -0.291 A  
ENDBRANCH  11  24
TORSDOF 6
ENDMDL
MODEL       27
REMARK 921   NORMALIZED FREE ENERGY PREDICTED BY IDOCK:   -5.11 KCAL/MOL
REMARK 922        TOTAL FREE ENERGY PREDICTED BY IDOCK:   -7.65 KCAL/MOL
REMARK 923 INTER-LIGAND FREE ENERGY PREDICTED BY IDOCK:   -7.06 KCAL/MOL
REMARK 924 INTRA-LIGAND FREE ENERGY PREDICTED BY IDOCK:   -0.58 KCAL/MOL
REMARK 927      BINDING AFFINITY PREDICTED BY RF-SCORE:    0.00 PKD
ROOT
HETATM    1  C   UNL     1      -8.411  11.065  66.310  1.00  0.00    -0.166 C  
HETATM    2  C   UNL     1      -9.391  10.746  65.143  1.00  0.00    -0.217 C  
HETATM    3  O   UNL     1      -9.393   9.374  64.725  1.00  0.00    -0.219 OA 
HETATM    4  C   UNL     1      -9.589   8.522  65.852  1.00  0.00    -0.094 C  
HETATM    5  C   UNL     1      -8.367   8.572  66.760  1.00  0.00    -0.109 C  
HETATM    6  N   UNL     1      -7.834   9.917  66.978  1.00  0.00    -0.102 N  
HETATM    7  C   UNL     1      -6.752  10.096  67.839  1.00  0.00    -0.067 C  
HETATM    8  O   UNL     1      -6.042   9.151  68.174  1.00  0.00    -0.049 OA 
HETATM    9  C   UNL     1      -6.730  11.469  68.529  1.00  0.00    -0.067 C  
HETATM   10  C   UNL     1      -5.946  11.647  69.623  1.00  0.00    -0.106 C  
HETATM   11  N   UNL     1      -8.817  12.048  67.325  1.00  0.00    -0.175 NA 
HETATM   12  C   UNL     1      -6.065  12.969  70.344  1.00  0.00    -0.041 C  
HETATM   13  O   UNL     1      -5.485  13.211  71.399  1.00  0.00    -0.252 OA 
HETATM   14  N   UNL     1      -7.698  12.426  68.142  1.00  0.00    -0.129 NA 
HETATM   15  C   UNL     1      -6.911  14.020  69.748  1.00  0.00     0.088 C  
HETATM   16  C   UNL     1      -7.663  13.686  68.698  1.00  0.00    -0.107 C  
ENDROOT
BRANCH  10  17
HETATM   17  O   UNL     1      -5.211  10.615  70.171  1.00  0.00    -0.038 OA 
BRANCH  17  18
HETATM   18  C   UNL     1      -5.541  10.214  71.497  1.00  0.00     0.028 C  
BRANCH  18  19
HETATM   19  O   UNL     1      -5.800   8.811  71.528  1.00  0.00    -0.042 OA 
BRANCH  19  20
HETATM   20  C   UNL     1      -6.565   8.447  72.581  1.00  0.00    -0.093 C  
HETATM   21  O   UNL     1      -6.869   9.149  73.535  1.00  0.00    -0.316 OA 
BRANCH  20  22
HETATM   22  O   UNL     1      -6.981   7.170  72.377  1.00  0.00    -0.064 OA 
HETATM   23  C   UNL     1      -6.727   6.695  71.061  1.00  0.00    -0.054 C  
ENDBRANCH  20  22
ENDBRANCH  19  20
ENDBRANCH  18  19
ENDBRANCH  17  18
ENDBRANCH  10  17
BRANCH  11  24
HETATM   24  C   UNL     1     -10.194  12.004  67.998  1.00  0.00    -0.198 C  
HETATM   25  C   UNL     1     -10.372  11.043  69.230  1.00  0.00    -0.181 A  
HETATM   26  C   UNL     1      -9.371  10.158  69.661  1.00  0.00    -0.215 A  
HETATM   27  C   UNL     1      -9.425   9.302  70.766  1.00  0.00    -0.336 A  
HETATM   28  C   UNL     1     -10.572   9.272  71.501  1.00  0.00    -0.335 A  
HETATM   29  C   UNL     1     -11.636  10.055  71.101  1.00  0.00    -0.378 A  
HETATM   30  F   UNL     1     -10.640   8.504  72.596  1.00  0.00    -0.388 F  
HETATM   31  F   UNL     1     -12.766  10.018  71.824  1.00  0.00    -0.409 F  
HETATM   32  C   UNL     1     -11.565  10.913  69.964  1.00  0.00    -0.424 A  
HETATM   33  C   UNL     1     -12.746  11.787  69.706  1.00  0.00     0.324 C  
HETATM   34  S   UNL     1     -12.357  13.365  70.482  1.00  0.00    -0.285 SA 
HETATM   35  C   UNL     1     -11.419  14.115  69.162  1.00  0.00    -0.296 A  
HETATM   36  C   UNL     1     -11.552  15.524  69.201  1.00  0.00    -0.374 A  
HETATM   37  C   UNL     1     -11.146  16.330  68.151  1.00  0.00    -0.329 A  
HETATM   38  C   UNL     1     -10.660  15.727  67.007  1.00  0.00    -0.316 A  
HETATM   39  C   UNL     1     -10.466  14.332  66.975  1.00  0.00    -0.271 A  
HETATM   40  C   UNL     1     -10.738  13.494  68.092  1.00  0.00    -0.265 A  
ENDBRANCH  11  24
TORSDOF 6
ENDMDL
MODEL       28
REMARK 921   NORMALIZED FREE ENERGY PREDICTED BY IDOCK:   -5.09 KCAL/MOL
REMARK 922        TOTAL FREE ENERGY PREDICTED BY IDOCK:   -7.61 KCAL/MOL
REMARK 923 INTER-LIGAND FREE ENERGY PREDICTED BY IDOCK:   -8.01 KCAL/MOL
REMARK 924 INTRA-LIGAND FREE ENERGY PREDICTED BY IDOCK:    0.40 KCAL/MOL
REMARK 927      BINDING AFFINITY PREDICTED BY RF-SCORE:    0.00 PKD
ROOT
HETATM    1  C   UNL     1     -10.656   7.672  67.794  1.00  0.00    -0.196 C  
HETATM    2  C   UNL     1     -10.011   6.387  67.194  1.00  0.00    -0.155 C  
HETATM    3  O   UNL     1      -9.351   6.585  65.936  1.00  0.00    -0.071 OA 
HETATM    4  C   UNL     1      -8.426   7.665  66.037  1.00  0.00    -0.144 C  
HETATM    5  C   UNL     1      -9.177   8.979  66.207  1.00  0.00    -0.206 C  
HETATM    6  N   UNL     1     -10.292   8.917  67.151  1.00  0.00    -0.271 N  
HETATM    7  C   UNL     1     -11.018  10.073  67.435  1.00  0.00    -0.191 C  
HETATM    8  O   UNL     1     -10.960  11.057  66.702  1.00  0.00    -0.258 OA 
HETATM    9  C   UNL     1     -11.624  10.094  68.847  1.00  0.00     0.009 C  
HETATM   10  C   UNL     1     -12.054  11.272  69.365  1.00  0.00    -0.315 C  
HETATM   11  N   UNL     1     -10.622   7.864  69.251  1.00  0.00    -0.214 NA 
HETATM   12  C   UNL     1     -12.513  11.262  70.804  1.00  0.00    -0.376 C  
HETATM   13  O   UNL     1     -12.828  12.280  71.414  1.00  0.00    -0.375 OA 
HETATM   14  N   UNL     1     -11.500   8.930  69.643  1.00  0.00     0.152 NA 
HETATM   15  C   UNL     1     -12.592   9.968  71.506  1.00  0.00    -0.525 C  
HETATM   16  C   UNL     1     -12.088   8.899  70.888  1.00  0.00    -0.177 C  
ENDROOT
BRANCH  10  17
HETATM   17  O   UNL     1     -11.911  12.466  68.685  1.00  0.00    -0.309 OA 
BRANCH  17  18
HETATM   18  C   UNL     1     -11.521  13.605  69.445  1.00  0.00    -0.286 C  
BRANCH  18  19
HETATM   19  O   UNL     1     -12.388  14.700  69.154  1.00  0.00    -0.220 OA 
BRANCH  19  20
HETATM   20  C   UNL     1     -12.763  15.376  70.263  1.00  0.00    -0.298 C  
HETATM   21  O   UNL     1     -13.904  15.505  70.684  1.00  0.00    -0.361 OA 
BRANCH  20  22
HETATM   22  O   UNL     1     -11.642  15.855  70.862  1.00  0.00    -0.359 OA 
HETATM   23  C   UNL     1     -11.644  15.698  72.276  1.00  0.00    -0.438 C  
ENDBRANCH  20  22
ENDBRANCH  19  20
ENDBRANCH  18  19
ENDBRANCH  17  18
ENDBRANCH  10  17
BRANCH  11  24
HETATM   24  C   UNL     1      -9.339   7.675  70.070  1.00  0.00    -0.154 C  
HETATM   25  C   UNL     1      -8.305   8.859  70.085  1.00  0.00    -0.142 A  
HETATM   26  C   UNL     1      -8.454  10.017  69.305  1.00  0.00    -0.165 A  
HETATM   27  C   UNL     1      -7.611  11.132  69.287  1.00  0.00    -0.057 A  
HETATM   28  C   UNL     1      -6.496  11.109  70.070  1.00  0.00    -0.133 A  
HETATM   29  C   UNL     1      -6.231   9.975  70.812  1.00  0.00    -0.084 A  
HETATM   30  F   UNL     1      -5.695  12.181  70.118  1.00  0.00    -0.093 F  
HETATM   31  F   UNL     1      -5.128   9.955  71.577  1.00  0.00    -0.049 F  
HETATM   32  C   UNL     1      -7.097   8.843  70.807  1.00  0.00    -0.078 A  
HETATM   33  C   UNL     1      -6.753   7.729  71.738  1.00  0.00    -0.050 C  
HETATM   34  S   UNL     1      -7.722   8.024  73.226  1.00  0.00    -0.161 SA 
HETATM   35  C   UNL     1      -9.251   7.244  72.738  1.00  0.00    -0.143 A  
HETATM   36  C   UNL     1      -9.933   6.743  73.872  1.00  0.00    -0.340 A  
HETATM   37  C   UNL     1     -11.004   5.872  73.760  1.00  0.00    -0.012 A  
HETATM   38  C   UNL     1     -11.368   5.433  72.501  1.00  0.00    -0.286 A  
HETATM   39  C   UNL     1     -10.739   5.968  71.361  1.00  0.00    -0.314 A  
HETATM   40  C   UNL     1      -9.733   6.972  71.438  1.00  0.00    -0.169 A  
ENDBRANCH  11  24
TORSDOF 6
ENDMDL
MODEL       29
REMARK 921   NORMALIZED FREE ENERGY PREDICTED BY IDOCK:   -5.08 KCAL/MOL
REMARK 922        TOTAL FREE ENERGY PREDICTED BY IDOCK:   -7.60 KCAL/MOL
REMARK 923 INTER-LIGAND FREE ENERGY PREDICTED BY IDOCK:   -8.27 KCAL/MOL
REMARK 924 INTRA-LIGAND FREE ENERGY PREDICTED BY IDOCK:    0.66 KCAL/MOL
REMARK 927      BINDING AFFINITY PREDICTED BY RF-SCORE:    0.00 PKD
ROOT
HETATM    1  C   UNL     1     -11.341  10.594  68.837  1.00  0.00    -0.274 C  
HETATM    2  C   UNL     1     -11.189  10.169  70.328  1.00  0.00    -0.318 C  
HETATM    3  O   UNL     1     -10.181   9.177  70.564  1.00  0.00    -0.202 OA 
HETATM    4  C   UNL     1      -8.946   9.591  69.985  1.00  0.00    -0.223 C  
HETATM    5  C   UNL     1      -9.052   9.575  68.466  1.00  0.00    -0.131 C  
HETATM    6  N   UNL     1     -10.298  10.137  67.943  1.00  0.00    -0.181 N  
HETATM    7  C   UNL     1     -10.486  10.231  66.565  1.00  0.00    -0.173 C  
HETATM    8  O   UNL     1      -9.792   9.585  65.783  1.00  0.00    -0.285 OA 
HETATM    9  C   UNL     1     -11.396  11.394  66.141  1.00  0.00    -0.043 C  
HETATM   10  C   UNL     1     -11.389  11.802  64.846  1.00  0.00    -0.236 C  
HETATM   11  N   UNL     1     -11.644  12.000  68.531  1.00  0.00    -0.287 NA 
HETATM   12  C   UNL     1     -12.195  13.034  64.511  1.00  0.00    -0.416 C  
HETATM   13  O   UNL     1     -12.187  13.557  63.400  1.00  0.00    -0.641 OA 
HETATM   14  N   UNL     1     -12.031  12.147  67.157  1.00  0.00    -0.584 NA 
HETATM   15  C   UNL     1     -13.034  13.632  65.565  1.00  0.00    -0.325 C  
HETATM   16  C   UNL     1     -12.902  13.156  66.804  1.00  0.00     1.071 C  
ENDROOT
BRANCH  10  17
HETATM   17  O   UNL     1     -10.545  11.240  63.908  1.00  0.00    -0.348 OA 
BRANCH  17  18
HETATM   18  C   UNL     1      -9.413  12.006  63.511  1.00  0.00     0.052 C  
BRANCH  18  19
HETATM   19  O   UNL     1      -8.797  11.405  62.372  1.00  0.00    -0.301 OA 
BRANCH  19  20
HETATM   20  C   UNL     1      -8.148  10.259  62.677  1.00  0.00    -0.152 C  
HETATM   21  O   UNL     1      -8.522   9.123  62.419  1.00  0.00    -0.174 OA 
BRANCH  20  22
HETATM   22  O   UNL     1      -6.978  10.586  63.283  1.00  0.00    -0.087 OA 
HETATM   23  C   UNL     1      -6.565   9.643  64.264  1.00  0.00    -0.111 C  
ENDBRANCH  20  22
ENDBRANCH  19  20
ENDBRANCH  18  19
ENDBRANCH  17  18
ENDBRANCH  10  17
BRANCH  11  24
HETATM   24  C   UNL     1     -10.871  13.159  69.170  1.00  0.00    -0.094 C  
HETATM   25  C   UNL     1     -10.030  14.086  68.219  1.00  0.00    -0.236 A  
HETATM   26  C   UNL     1      -9.872  13.832  66.846  1.00  0.00    -0.264 A  
HETATM   27  C   UNL     1      -9.182  14.620  65.921  1.00  0.00    -0.035 A  
HETATM   28  C   UNL     1      -8.550  15.740  66.372  1.00  0.00    -0.311 A  
HETATM   29  C   UNL     1      -8.589  16.023  67.723  1.00  0.00    -0.163 A  
HETATM   30  F   UNL     1      -7.924  16.546  65.506  1.00  0.00     0.048 F  
HETATM   31  F   UNL     1      -7.960  17.124  68.165  1.00  0.00    -0.190 F  
HETATM   32  C   UNL     1      -9.289  15.200  68.653  1.00  0.00    -0.199 A  
HETATM   33  C   UNL     1      -9.345  15.678  70.065  1.00  0.00     0.210 C  
HETATM   34  S   UNL     1     -10.904  16.567  70.214  1.00  0.00     0.015 SA 
HETATM   35  C   UNL     1     -11.991  15.193  70.557  1.00  0.00    -0.325 A  
HETATM   36  C   UNL     1     -13.086  15.616  71.347  1.00  0.00    -0.559 A  
HETATM   37  C   UNL     1     -13.934  14.716  71.970  1.00  0.00    -0.581 A  
HETATM   38  C   UNL     1     -13.654  13.366  71.867  1.00  0.00    -0.494 A  
HETATM   39  C   UNL     1     -12.605  12.928  71.037  1.00  0.00    -0.376 A  
HETATM   40  C   UNL     1     -11.807  13.822  70.269  1.00  0.00    -0.342 A  
ENDBRANCH  11  24
TORSDOF 6
ENDMDL
MODEL       30
REMARK 921   NORMALIZED FREE ENERGY PREDICTED BY IDOCK:   -5.03 KCAL/MOL
REMARK 922        TOTAL FREE ENERGY PREDICTED BY IDOCK:   -7.54 KCAL/MOL
REMARK 923 INTER-LIGAND FREE ENERGY PREDICTED BY IDOCK:  -10.08 KCAL/MOL
REMARK 924 INTRA-LIGAND FREE ENERGY PREDICTED BY IDOCK:    2.55 KCAL/MOL
REMARK 927      BINDING AFFINITY PREDICTED BY RF-SCORE:    0.00 PKD
ROOT
HETATM    1  C   UNL     1      -7.950  10.783  66.403  1.00  0.00    -0.151 C  
HETATM    2  C   UNL     1      -6.842   9.701  66.570  1.00  0.00    -0.084 C  
HETATM    3  O   UNL     1      -6.052   9.837  67.760  1.00  0.00    -0.051 OA 
HETATM    4  C   UNL     1      -6.902   9.929  68.900  1.00  0.00    -0.057 C  
HETATM    5  C   UNL     1      -7.663  11.248  68.877  1.00  0.00    -0.125 C  
HETATM    6  N   UNL     1      -8.203  11.609  67.566  1.00  0.00    -0.141 N  
HETATM    7  C   UNL     1      -8.970  12.765  67.432  1.00  0.00    -0.195 C  
HETATM    8  O   UNL     1      -8.950  13.644  68.289  1.00  0.00    -0.185 OA 
HETATM    9  C   UNL     1     -10.017  12.688  66.310  1.00  0.00    -0.258 C  
HETATM   10  C   UNL     1     -11.035  13.586  66.292  1.00  0.00    -0.289 C  
HETATM   11  N   UNL     1      -9.238  10.389  65.813  1.00  0.00    -0.166 NA 
HETATM   12  C   UNL     1     -12.110  13.384  65.251  1.00  0.00    -0.413 C  
HETATM   13  O   UNL     1     -13.129  14.067  65.199  1.00  0.00    -0.776 OA 
HETATM   14  N   UNL     1     -10.015  11.547  65.473  1.00  0.00    -0.232 NA 
HETATM   15  C   UNL     1     -11.925  12.318  64.249  1.00  0.00    -0.489 C  
HETATM   16  C   UNL     1     -10.902  11.480  64.420  1.00  0.00    -0.342 C  
ENDROOT
BRANCH  10  17
HETATM   17  O   UNL     1     -11.191  14.534  67.285  1.00  0.00    -0.308 OA 
BRANCH  17  18
HETATM   18  C   UNL     1     -12.175  14.274  68.281  1.00  0.00    -0.146 C  
BRANCH  18  19
HETATM   19  O   UNL     1     -12.130  15.291  69.282  1.00  0.00    -0.306 OA 
BRANCH  19  20
HETATM   20  C   UNL     1     -12.512  14.841  70.498  1.00  0.00    -0.352 C  
HETATM   21  O   UNL     1     -11.923  14.021  71.187  1.00  0.00    -0.317 OA 
BRANCH  20  22
HETATM   22  O   UNL     1     -13.651  15.494  70.848  1.00  0.00    -0.520 OA 
HETATM   23  C   UNL     1     -14.027  15.289  72.204  1.00  0.00    -0.549 C  
ENDBRANCH  20  22
ENDBRANCH  19  20
ENDBRANCH  18  19
ENDBRANCH  17  18
ENDBRANCH  10  17
BRANCH  11  24
HETATM   24  C   UNL     1     -10.001   9.143  66.278  1.00  0.00    -0.282 C  
HETATM   25  C   UNL     1      -9.368   7.740  65.962  1.00  0.00    -0.102 A  
HETATM   26  C   UNL     1      -8.207   7.582  65.187  1.00  0.00    -0.122 A  
HETATM   27  C   UNL     1      -7.552   6.382  64.891  1.00  0.00    -0.093 A  
HETATM   28  C   UNL     1      -8.093   5.221  65.356  1.00  0.00    -0.121 A  
HETATM   29  C   UNL     1      -9.278   5.279  66.063  1.00  0.00    -0.157 A  
HETATM   30  F   UNL     1      -7.465   4.059  65.138  1.00  0.00    -0.071 F  
HETATM   31  F   UNL     1      -9.811   4.132  66.514  1.00  0.00    -0.193 F  
HETATM   32  C   UNL     1      -9.937   6.511  66.344  1.00  0.00    -0.086 A  
HETATM   33  C   UNL     1     -11.150   6.444  67.210  1.00  0.00    -0.330 C  
HETATM   34  S   UNL     1     -10.570   6.777  68.881  1.00  0.00    -0.241 SA 
HETATM   35  C   UNL     1     -10.600   8.561  68.850  1.00  0.00    -0.144 A  
HETATM   36  C   UNL     1     -10.839   9.073  70.148  1.00  0.00    -0.261 A  
HETATM   37  C   UNL     1     -11.168  10.401  70.365  1.00  0.00    -0.399 A  
HETATM   38  C   UNL     1     -11.331  11.227  69.269  1.00  0.00    -0.354 A  
HETATM   39  C   UNL     1     -11.039  10.748  67.978  1.00  0.00    -0.359 A  
HETATM   40  C   UNL     1     -10.560   9.430  67.738  1.00  0.00    -0.317 A  
ENDBRANCH  11  24
TORSDOF 6
ENDMDL
MODEL       31
REMARK 921   NORMALIZED FREE ENERGY PREDICTED BY IDOCK:   -4.92 KCAL/MOL
REMARK 922        TOTAL FREE ENERGY PREDICTED BY IDOCK:   -7.39 KCAL/MOL
REMARK 923 INTER-LIGAND FREE ENERGY PREDICTED BY IDOCK:   -6.50 KCAL/MOL
REMARK 924 INTRA-LIGAND FREE ENERGY PREDICTED BY IDOCK:   -0.89 KCAL/MOL
REMARK 927      BINDING AFFINITY PREDICTED BY RF-SCORE:    0.00 PKD
ROOT
HETATM    1  C   UNL     1      -7.582   7.645  70.758  1.00  0.00    -0.080 C  
HETATM    2  C   UNL     1      -7.098   8.498  71.968  1.00  0.00    -0.084 C  
HETATM    3  O   UNL     1      -5.688   8.761  71.984  1.00  0.00    -0.049 OA 
HETATM    4  C   UNL     1      -5.280   9.306  70.732  1.00  0.00    -0.029 C  
HETATM    5  C   UNL     1      -5.389   8.248  69.642  1.00  0.00    -0.030 C  
HETATM    6  N   UNL     1      -6.616   7.452  69.698  1.00  0.00    -0.039 N  
HETATM    7  C   UNL     1      -6.857   6.491  68.716  1.00  0.00    -0.070 C  
HETATM    8  O   UNL     1      -5.951   6.075  67.997  1.00  0.00    -0.012 OA 
HETATM    9  C   UNL     1      -8.349   6.247  68.440  1.00  0.00    -0.115 C  
HETATM   10  C   UNL     1      -8.715   5.606  67.301  1.00  0.00    -0.107 C  
HETATM   11  N   UNL     1      -8.889   7.950  70.158  1.00  0.00    -0.143 NA 
HETATM   12  C   UNL     1     -10.194   5.514  67.011  1.00  0.00    -0.224 C  
HETATM   13  O   UNL     1     -10.644   5.049  65.968  1.00  0.00    -0.285 OA 
HETATM   14  N   UNL     1      -9.294   6.901  69.265  1.00  0.00    -0.145 NA 
HETATM   15  C   UNL     1     -11.141   5.999  68.033  1.00  0.00    -0.233 C  
HETATM   16  C   UNL     1     -10.637   6.652  69.081  1.00  0.00    -0.244 C  
ENDROOT
BRANCH  10  17
HETATM   17  O   UNL     1      -7.790   5.217  66.352  1.00  0.00    -0.101 OA 
BRANCH  17  18
HETATM   18  C   UNL     1      -7.727   3.830  66.036  1.00  0.00    -0.089 C  
BRANCH  18  19
HETATM   19  O   UNL     1      -6.724   3.197  66.829  1.00  0.00    -0.043 OA 
BRANCH  19  20
HETATM   20  C   UNL     1      -7.244   2.462  67.837  1.00  0.00    -0.048 C  
HETATM   21  O   UNL     1      -6.673   2.137  68.869  1.00  0.00    -0.032 OA 
BRANCH  20  22
HETATM   22  O   UNL     1      -8.536   2.179  67.527  1.00  0.00    -0.082 OA 
HETATM   23  C   UNL     1      -9.383   2.075  68.665  1.00  0.00    -0.175 C  
ENDBRANCH  20  22
ENDBRANCH  19  20
ENDBRANCH  18  19
ENDBRANCH  17  18
ENDBRANCH  10  17
BRANCH  11  24
HETATM   24  C   UNL     1      -9.307   9.380  69.794  1.00  0.00    -0.203 C  
HETATM   25  C   UNL     1      -9.079   9.851  68.312  1.00  0.00    -0.122 A  
HETATM   26  C   UNL     1      -8.418   9.066  67.352  1.00  0.00    -0.115 A  
HETATM   27  C   UNL     1      -8.209   9.384  66.007  1.00  0.00    -0.111 A  
HETATM   28  C   UNL     1      -8.646  10.594  65.555  1.00  0.00    -0.185 A  
HETATM   29  C   UNL     1      -9.238  11.460  66.452  1.00  0.00    -0.197 A  
HETATM   30  F   UNL     1      -8.510  10.909  64.262  1.00  0.00    -0.149 F  
HETATM   31  F   UNL     1      -9.661  12.653  66.004  1.00  0.00    -0.244 F  
HETATM   32  C   UNL     1      -9.432  11.122  67.823  1.00  0.00    -0.173 A  
HETATM   33  C   UNL     1     -10.183  12.104  68.659  1.00  0.00    -0.174 C  
HETATM   34  S   UNL     1     -11.894  11.543  68.642  1.00  0.00    -0.267 SA 
HETATM   35  C   UNL     1     -11.823  10.353  69.970  1.00  0.00    -0.273 A  
HETATM   36  C   UNL     1     -13.083  10.251  70.608  1.00  0.00    -0.292 A  
HETATM   37  C   UNL     1     -13.241   9.603  71.822  1.00  0.00    -0.520 A  
HETATM   38  C   UNL     1     -12.118   9.103  72.454  1.00  0.00    -0.224 A  
HETATM   39  C   UNL     1     -10.870   9.144  71.805  1.00  0.00    -0.416 A  
HETATM   40  C   UNL     1     -10.702   9.673  70.495  1.00  0.00    -0.374 A  
ENDBRANCH  11  24
TORSDOF 6
ENDMDL
MODEL       32
REMARK 921   NORMALIZED FREE ENERGY PREDICTED BY IDOCK:   -4.91 KCAL/MOL
REMARK 922        TOTAL FREE ENERGY PREDICTED BY IDOCK:   -7.37 KCAL/MOL
REMARK 923 INTER-LIGAND FREE ENERGY PREDICTED BY IDOCK:   -6.98 KCAL/MOL
REMARK 924 INTRA-LIGAND FREE ENERGY PREDICTED BY IDOCK:   -0.40 KCAL/MOL
REMARK 927      BINDING AFFINITY PREDICTED BY RF-SCORE:    0.00 PKD
ROOT
HETATM    1  C   UNL     1      -9.697   9.535  64.793  1.00  0.00     0.085 C  
HETATM    2  C   UNL     1      -8.948   8.293  64.225  1.00  0.00     0.621 C  
HETATM    3  O   UNL     1      -8.161   8.558  63.055  1.00  0.00    -0.163 OA 
HETATM    4  C   UNL     1      -7.289   9.660  63.294  1.00  0.00    -0.117 C  
HETATM    5  C   UNL     1      -8.098  10.944  63.424  1.00  0.00     0.191 C  
HETATM    6  N   UNL     1      -9.308  10.814  64.237  1.00  0.00    -0.229 N  
HETATM    7  C   UNL     1     -10.099  11.936  64.477  1.00  0.00    -0.271 C  
HETATM    8  O   UNL     1      -9.994  12.948  63.788  1.00  0.00    -0.324 OA 
HETATM    9  C   UNL     1     -10.856  11.886  65.814  1.00  0.00    -0.295 C  
HETATM   10  C   UNL     1     -11.380  13.031  66.321  1.00  0.00    -0.317 C  
HETATM   11  N   UNL     1      -9.829   9.673  66.251  1.00  0.00    -0.237 NA 
HETATM   12  C   UNL     1     -11.993  12.953  67.699  1.00  0.00    -0.289 C  
HETATM   13  O   UNL     1     -12.407  13.938  68.304  1.00  0.00    -0.254 OA 
HETATM   14  N   UNL     1     -10.780  10.698  66.579  1.00  0.00    -0.194 NA 
HETATM   15  C   UNL     1     -12.104  11.632  68.344  1.00  0.00    -0.105 C  
HETATM   16  C   UNL     1     -11.499  10.602  67.750  1.00  0.00    -0.137 C  
ENDROOT
BRANCH  10  17
HETATM   17  O   UNL     1     -11.203  14.253  65.701  1.00  0.00    -0.303 OA 
BRANCH  17  18
HETATM   18  C   UNL     1     -10.070  15.021  66.089  1.00  0.00    -0.294 C  
BRANCH  18  19
HETATM   19  O   UNL     1     -10.090  16.283  65.424  1.00  0.00    -0.519 OA 
BRANCH  19  20
HETATM   20  C   UNL     1     -10.535  17.283  66.218  1.00  0.00    -0.268 C  
HETATM   21  O   UNL     1     -10.750  17.214  67.420  1.00  0.00    -0.323 OA 
BRANCH  20  22
HETATM   22  O   UNL     1     -10.663  18.400  65.456  1.00  0.00    -0.588 OA 
HETATM   23  C   UNL     1     -10.695  19.602  66.214  1.00  0.00    -0.419 C  
ENDBRANCH  20  22
ENDBRANCH  19  20
ENDBRANCH  18  19
ENDBRANCH  17  18
ENDBRANCH  10  17
BRANCH  11  24
HETATM   24  C   UNL     1      -8.638   9.493  67.199  1.00  0.00    -0.132 C  
HETATM   25  C   UNL     1      -7.886  10.788  67.678  1.00  0.00    -0.109 A  
HETATM   26  C   UNL     1      -8.187  12.071  67.194  1.00  0.00    -0.181 A  
HETATM   27  C   UNL     1      -7.602  13.277  67.593  1.00  0.00    -0.171 A  
HETATM   28  C   UNL     1      -6.605  13.234  68.520  1.00  0.00    -0.089 A  
HETATM   29  C   UNL     1      -6.193  12.004  68.992  1.00  0.00    -0.079 A  
HETATM   30  F   UNL     1      -6.059  14.374  68.964  1.00  0.00    -0.085 F  
HETATM   31  F   UNL     1      -5.205  11.966  69.901  1.00  0.00    -0.066 F  
HETATM   32  C   UNL     1      -6.793  10.784  68.565  1.00  0.00    -0.062 A  
HETATM   33  C   UNL     1      -6.330   9.535  69.235  1.00  0.00    -0.044 C  
HETATM   34  S   UNL     1      -7.504   9.237  70.568  1.00  0.00    -0.142 SA 
HETATM   35  C   UNL     1      -8.766   8.367  69.655  1.00  0.00    -0.133 A  
HETATM   36  C   UNL     1      -9.453   7.463  70.500  1.00  0.00    -0.161 A  
HETATM   37  C   UNL     1     -10.295   6.484  70.000  1.00  0.00    -0.238 A  
HETATM   38  C   UNL     1     -10.411   6.352  68.629  1.00  0.00    -0.231 A  
HETATM   39  C   UNL     1      -9.783   7.280  67.778  1.00  0.00    -0.167 A  
HETATM   40  C   UNL     1      -9.028   8.383  68.267  1.00  0.00    -0.139 A  
ENDBRANCH  11  24
TORSDOF 6
ENDMDL
MODEL       33
REMARK 921   NORMALIZED FREE ENERGY PREDICTED BY IDOCK:   -4.85 KCAL/MOL
REMARK 922        TOTAL FREE ENERGY PREDICTED BY IDOCK:   -7.28 KCAL/MOL
REMARK 923 INTER-LIGAND FREE ENERGY PREDICTED BY IDOCK:   -6.39 KCAL/MOL
REMARK 924 INTRA-LIGAND FREE ENERGY PREDICTED BY IDOCK:   -0.89 KCAL/MOL
REMARK 927      BINDING AFFINITY PREDICTED BY RF-SCORE:    0.00 PKD
ROOT
HETATM    1  C   UNL     1      -7.526   7.700  70.519  1.00  0.00    -0.079 C  
HETATM    2  C   UNL     1      -6.949   8.521  71.711  1.00  0.00    -0.093 C  
HETATM    3  O   UNL     1      -5.546   8.802  71.616  1.00  0.00    -0.039 OA 
HETATM    4  C   UNL     1      -5.252   9.392  70.352  1.00  0.00    -0.027 C  
HETATM    5  C   UNL     1      -5.443   8.368  69.242  1.00  0.00    -0.031 C  
HETATM    6  N   UNL     1      -6.651   7.554  69.375  1.00  0.00    -0.036 N  
HETATM    7  C   UNL     1      -6.965   6.622  68.386  1.00  0.00    -0.080 C  
HETATM    8  O   UNL     1      -6.120   6.241  67.580  1.00  0.00    -0.019 OA 
HETATM    9  C   UNL     1      -8.472   6.366  68.230  1.00  0.00    -0.115 C  
HETATM   10  C   UNL     1      -8.927   5.757  67.106  1.00  0.00    -0.113 C  
HETATM   11  N   UNL     1      -8.882   8.007  70.042  1.00  0.00    -0.142 NA 
HETATM   12  C   UNL     1     -10.424   5.654  66.940  1.00  0.00    -0.288 C  
HETATM   13  O   UNL     1     -10.957   5.217  65.923  1.00  0.00    -0.170 OA 
HETATM   14  N   UNL     1      -9.351   6.981  69.153  1.00  0.00    -0.141 NA 
HETATM   15  C   UNL     1     -11.286   6.094  68.053  1.00  0.00    -0.149 C  
HETATM   16  C   UNL     1     -10.702   6.720  69.075  1.00  0.00    -0.246 C  
ENDROOT
BRANCH  10  17
HETATM   17  O   UNL     1      -8.082   5.411  66.070  1.00  0.00    -0.104 OA 
BRANCH  17  18
HETATM   18  C   UNL     1      -8.237   6.114  64.842  1.00  0.00    -0.125 C  
BRANCH  18  19
HETATM   19  O   UNL     1      -7.002   6.732  64.479  1.00  0.00    -0.053 OA 
BRANCH  19  20
HETATM   20  C   UNL     1      -7.106   7.484  63.361  1.00  0.00    -0.074 C  
HETATM   21  O   UNL     1      -7.992   7.416  62.520  1.00  0.00    -0.129 OA 
BRANCH  20  22
HETATM   22  O   UNL     1      -6.074   8.367  63.351  1.00  0.00    -0.075 OA 
HETATM   23  C   UNL     1      -6.245   9.428  62.419  1.00  0.00    -0.093 C  
ENDBRANCH  20  22
ENDBRANCH  19  20
ENDBRANCH  18  19
ENDBRANCH  17  18
ENDBRANCH  10  17
BRANCH  11  24
HETATM   24  C   UNL     1      -9.345   9.442  69.763  1.00  0.00    -0.203 C  
HETATM   25  C   UNL     1      -9.193   9.983  68.294  1.00  0.00    -0.129 A  
HETATM   26  C   UNL     1      -8.560   9.256  67.272  1.00  0.00    -0.125 A  
HETATM   27  C   UNL     1      -8.418   9.639  65.935  1.00  0.00    -0.136 A  
HETATM   28  C   UNL     1      -8.899  10.857  65.558  1.00  0.00    -0.188 A  
HETATM   29  C   UNL     1      -9.468  11.669  66.519  1.00  0.00    -0.206 A  
HETATM   30  F   UNL     1      -8.827  11.232  64.275  1.00  0.00    -0.113 F  
HETATM   31  F   UNL     1      -9.935  12.871  66.144  1.00  0.00    -0.249 F  
HETATM   32  C   UNL     1      -9.593  11.267  67.880  1.00  0.00    -0.182 A  
HETATM   33  C   UNL     1     -10.326  12.193  68.791  1.00  0.00    -0.147 C  
HETATM   34  S   UNL     1     -12.024  11.596  68.824  1.00  0.00    -0.173 SA 
HETATM   35  C   UNL     1     -11.870  10.350  70.093  1.00  0.00    -0.297 A  
HETATM   36  C   UNL     1     -13.097  10.191  70.780  1.00  0.00    -0.351 A  
HETATM   37  C   UNL     1     -13.189   9.486  71.969  1.00  0.00    -0.539 A  
HETATM   38  C   UNL     1     -12.029   8.984  72.527  1.00  0.00    -0.124 A  
HETATM   39  C   UNL     1     -10.811   9.081  71.827  1.00  0.00    -0.437 A  
HETATM   40  C   UNL     1     -10.713   9.672  70.536  1.00  0.00    -0.374 A  
ENDBRANCH  11  24
TORSDOF 6
ENDMDL
MODEL       34
REMARK 921   NORMALIZED FREE ENERGY PREDICTED BY IDOCK:   -4.80 KCAL/MOL
REMARK 922        TOTAL FREE ENERGY PREDICTED BY IDOCK:   -7.22 KCAL/MOL
REMARK 923 INTER-LIGAND FREE ENERGY PREDICTED BY IDOCK:   -9.76 KCAL/MOL
REMARK 924 INTRA-LIGAND FREE ENERGY PREDICTED BY IDOCK:    2.54 KCAL/MOL
REMARK 927      BINDING AFFINITY PREDICTED BY RF-SCORE:    0.00 PKD
ROOT
HETATM    1  C   UNL     1     -11.681  14.699  67.578  1.00  0.00    -0.379 C  
HETATM    2  C   UNL     1     -11.899  16.015  68.382  1.00  0.00    -0.062 C  
HETATM    3  O   UNL     1     -11.965  15.840  69.804  1.00  0.00    -0.352 OA 
HETATM    4  C   UNL     1     -10.831  15.104  70.257  1.00  0.00    -0.231 C  
HETATM    5  C   UNL     1     -10.911  13.667  69.760  1.00  0.00     0.168 C  
HETATM    6  N   UNL     1     -11.323  13.535  68.362  1.00  0.00    -0.272 N  
HETATM    7  C   UNL     1     -11.375  12.271  67.776  1.00  0.00    -0.301 C  
HETATM    8  O   UNL     1     -11.391  11.252  68.462  1.00  0.00    -0.226 OA 
HETATM    9  C   UNL     1     -11.115  12.278  66.261  1.00  0.00    -0.302 C  
HETATM   10  C   UNL     1     -10.804  11.114  65.638  1.00  0.00    -0.138 C  
HETATM   11  N   UNL     1     -10.835  14.738  66.376  1.00  0.00    -0.316 NA 
HETATM   12  C   UNL     1     -10.424  11.197  64.179  1.00  0.00    -0.377 C  
HETATM   13  O   UNL     1     -10.027  10.230  63.534  1.00  0.00    -0.215 OA 
HETATM   14  N   UNL     1     -10.981  13.530  65.614  1.00  0.00    -0.287 NA 
HETATM   15  C   UNL     1     -10.541  12.499  63.497  1.00  0.00    -0.394 C  
HETATM   16  C   UNL     1     -10.810  13.568  64.248  1.00  0.00    -0.322 C  
ENDROOT
BRANCH  10  17
HETATM   17  O   UNL     1     -10.657   9.929  66.333  1.00  0.00    -0.161 OA 
BRANCH  17  18
HETATM   18  C   UNL     1      -9.364   9.335  66.340  1.00  0.00    -0.192 C  
BRANCH  18  19
HETATM   19  O   UNL     1      -9.480   7.920  66.198  1.00  0.00    -0.169 OA 
BRANCH  19  20
HETATM   20  C   UNL     1     -10.345   7.378  67.085  1.00  0.00    -0.307 C  
HETATM   21  O   UNL     1     -11.270   6.621  66.826  1.00  0.00    -0.333 OA 
BRANCH  20  22
HETATM   22  O   UNL     1      -9.983   7.786  68.329  1.00  0.00    -0.167 OA 
HETATM   23  C   UNL     1     -10.715   7.150  69.369  1.00  0.00    -0.231 C  
ENDBRANCH  20  22
ENDBRANCH  19  20
ENDBRANCH  18  19
ENDBRANCH  17  18
ENDBRANCH  10  17
BRANCH  11  24
HETATM   24  C   UNL     1      -9.457  15.410  66.369  1.00  0.00    -0.296 C  
HETATM   25  C   UNL     1      -9.408  16.973  66.528  1.00  0.00    -0.291 A  
HETATM   26  C   UNL     1     -10.561  17.776  66.564  1.00  0.00    -0.220 A  
HETATM   27  C   UNL     1     -10.614  19.161  66.744  1.00  0.00    -0.528 A  
HETATM   28  C   UNL     1      -9.439  19.841  66.861  1.00  0.00    -0.371 A  
HETATM   29  C   UNL     1      -8.254  19.139  66.759  1.00  0.00    -0.280 A  
HETATM   30  F   UNL     1      -9.453  21.160  67.088  1.00  0.00    -0.518 F  
HETATM   31  F   UNL     1      -7.099  19.814  66.869  1.00  0.00    -0.211 F  
HETATM   32  C   UNL     1      -8.221  17.727  66.563  1.00  0.00    -0.300 A  
HETATM   33  C   UNL     1      -6.878  17.077  66.581  1.00  0.00    -0.244 C  
HETATM   34  S   UNL     1      -6.645  16.496  68.269  1.00  0.00    -0.141 SA 
HETATM   35  C   UNL     1      -7.486  14.926  68.156  1.00  0.00    -0.115 A  
HETATM   36  C   UNL     1      -6.921  13.997  69.062  1.00  0.00    -0.112 A  
HETATM   37  C   UNL     1      -7.206  12.643  68.999  1.00  0.00     0.009 A  
HETATM   38  C   UNL     1      -8.014  12.186  67.975  1.00  0.00    -0.152 A  
HETATM   39  C   UNL     1      -8.631  13.104  67.104  1.00  0.00    -0.194 A  
HETATM   40  C   UNL     1      -8.472  14.512  67.233  1.00  0.00    -0.234 A  
ENDBRANCH  11  24
TORSDOF 6
ENDMDL
MODEL       35
REMARK 921   NORMALIZED FREE ENERGY PREDICTED BY IDOCK:   -4.67 KCAL/MOL
REMARK 922        TOTAL FREE ENERGY PREDICTED BY IDOCK:   -7.05 KCAL/MOL
REMARK 923 INTER-LIGAND FREE ENERGY PREDICTED BY IDOCK:   -9.55 KCAL/MOL
REMARK 924 INTRA-LIGAND FREE ENERGY PREDICTED BY IDOCK:    2.51 KCAL/MOL
REMARK 927      BINDING AFFINITY PREDICTED BY RF-SCORE:    0.00 PKD
ROOT
HETATM    1  C   UNL     1      -8.824  12.047  68.676  1.00  0.00    -0.021 C  
HETATM    2  C   UNL     1      -8.142  13.136  67.795  1.00  0.00    -0.165 C  
HETATM    3  O   UNL     1      -6.822  12.797  67.347  1.00  0.00    -0.152 OA 
HETATM    4  C   UNL     1      -6.834  11.516  66.722  1.00  0.00    -0.114 C  
HETATM    5  C   UNL     1      -7.100  10.433  67.759  1.00  0.00    -0.084 C  
HETATM    6  N   UNL     1      -8.160  10.761  68.713  1.00  0.00    -0.134 N  
HETATM    7  C   UNL     1      -8.535   9.823  69.674  1.00  0.00    -0.185 C  
HETATM    8  O   UNL     1      -7.812   8.869  69.948  1.00  0.00    -0.083 OA 
HETATM    9  C   UNL     1     -10.005   9.934  70.108  1.00  0.00    -0.238 C  
HETATM   10  C   UNL     1     -10.581   8.895  70.765  1.00  0.00    -0.226 C  
HETATM   11  N   UNL     1     -10.271  11.829  68.534  1.00  0.00    -0.209 NA 
HETATM   12  C   UNL     1     -12.061   8.998  71.047  1.00  0.00    -0.251 C  
HETATM   13  O   UNL     1     -12.713   8.084  71.543  1.00  0.00    -0.308 OA 
HETATM   14  N   UNL     1     -10.769  11.015  69.606  1.00  0.00    -0.191 NA 
HETATM   15  C   UNL     1     -12.752  10.258  70.717  1.00  0.00    -0.434 C  
HETATM   16  C   UNL     1     -12.071  11.174  70.028  1.00  0.00    -0.359 C  
ENDROOT
BRANCH  10  17
HETATM   17  O   UNL     1      -9.903   7.716  71.005  1.00  0.00    -0.175 OA 
BRANCH  17  18
HETATM   18  C   UNL     1     -10.171   6.624  70.132  1.00  0.00    -0.187 C  
BRANCH  18  19
HETATM   19  O   UNL     1     -10.892   5.610  70.831  1.00  0.00    -0.265 OA 
BRANCH  19  20
HETATM   20  C   UNL     1     -10.091   4.620  71.285  1.00  0.00    -0.175 C  
HETATM   21  O   UNL     1      -9.490   3.803  70.602  1.00  0.00    -0.142 OA 
BRANCH  20  22
HETATM   22  O   UNL     1     -10.031   4.715  72.638  1.00  0.00    -0.152 OA 
HETATM   23  C   UNL     1     -11.303   4.878  73.252  1.00  0.00    -0.327 C  
ENDBRANCH  20  22
ENDBRANCH  19  20
ENDBRANCH  18  19
ENDBRANCH  17  18
ENDBRANCH  10  17
BRANCH  11  24
HETATM   24  C   UNL     1     -10.942  11.673  67.165  1.00  0.00    -0.280 C  
HETATM   25  C   UNL     1     -11.167  12.973  66.310  1.00  0.00    -0.332 A  
HETATM   26  C   UNL     1     -10.883  14.262  66.790  1.00  0.00    -0.298 A  
HETATM   27  C   UNL     1     -11.010  15.466  66.089  1.00  0.00    -0.279 A  
HETATM   28  C   UNL     1     -11.495  15.422  64.816  1.00  0.00    -0.336 A  
HETATM   29  C   UNL     1     -11.873  14.201  64.294  1.00  0.00    -0.397 A  
HETATM   30  F   UNL     1     -11.580  16.548  64.098  1.00  0.00    -0.518 F  
HETATM   31  F   UNL     1     -12.356  14.163  63.042  1.00  0.00    -0.241 F  
HETATM   32  C   UNL     1     -11.746  12.986  65.028  1.00  0.00    -0.376 A  
HETATM   33  C   UNL     1     -12.087  11.725  64.307  1.00  0.00    -0.158 C  
HETATM   34  S   UNL     1     -10.525  11.094  63.673  1.00  0.00    -0.339 SA 
HETATM   35  C   UNL     1      -9.962  10.206  65.115  1.00  0.00    -0.309 A  
HETATM   36  C   UNL     1      -9.150   9.111  64.735  1.00  0.00    -0.157 A  
HETATM   37  C   UNL     1      -8.798   8.111  65.627  1.00  0.00    -0.160 A  
HETATM   38  C   UNL     1      -9.316   8.159  66.907  1.00  0.00    -0.219 A  
HETATM   39  C   UNL     1     -10.075   9.271  67.318  1.00  0.00    -0.291 A  
HETATM   40  C   UNL     1     -10.332  10.383  66.467  1.00  0.00    -0.287 A  
ENDBRANCH  11  24
TORSDOF 6
ENDMDL
MODEL       36
REMARK 921   NORMALIZED FREE ENERGY PREDICTED BY IDOCK:   -4.64 KCAL/MOL
REMARK 922        TOTAL FREE ENERGY PREDICTED BY IDOCK:   -7.01 KCAL/MOL
REMARK 923 INTER-LIGAND FREE ENERGY PREDICTED BY IDOCK:   -6.02 KCAL/MOL
REMARK 924 INTRA-LIGAND FREE ENERGY PREDICTED BY IDOCK:   -0.99 KCAL/MOL
REMARK 927      BINDING AFFINITY PREDICTED BY RF-SCORE:    0.00 PKD
ROOT
HETATM    1  C   UNL     1      -8.548   6.390  71.671  1.00  0.00    -0.129 C  
HETATM    2  C   UNL     1      -8.219   7.080  73.028  1.00  0.00    -0.105 C  
HETATM    3  O   UNL     1      -6.967   6.687  73.607  1.00  0.00    -0.076 OA 
HETATM    4  C   UNL     1      -5.920   6.835  72.651  1.00  0.00    -0.042 C  
HETATM    5  C   UNL     1      -6.086   5.810  71.536  1.00  0.00    -0.034 C  
HETATM    6  N   UNL     1      -7.460   5.657  71.058  1.00  0.00    -0.087 N  
HETATM    7  C   UNL     1      -7.728   4.791  69.999  1.00  0.00    -0.055 C  
HETATM    8  O   UNL     1      -6.919   3.930  69.661  1.00  0.00    -0.041 OA 
HETATM    9  C   UNL     1      -8.940   5.205  69.150  1.00  0.00    -0.100 C  
HETATM   10  C   UNL     1      -9.103   4.659  67.918  1.00  0.00    -0.119 C  
HETATM   11  N   UNL     1      -9.239   7.169  70.633  1.00  0.00    -0.158 NA 
HETATM   12  C   UNL     1     -10.231   5.200  67.072  1.00  0.00    -0.223 C  
HETATM   13  O   UNL     1     -10.417   4.860  65.907  1.00  0.00    -0.264 OA 
HETATM   14  N   UNL     1      -9.712   6.309  69.585  1.00  0.00    -0.151 NA 
HETATM   15  C   UNL     1     -11.154   6.179  67.676  1.00  0.00    -0.311 C  
HETATM   16  C   UNL     1     -10.841   6.663  68.878  1.00  0.00    -0.277 C  
ENDROOT
BRANCH  10  17
HETATM   17  O   UNL     1      -8.180   3.784  67.379  1.00  0.00    -0.090 OA 
BRANCH  17  18
HETATM   18  C   UNL     1      -7.302   4.299  66.383  1.00  0.00    -0.080 C  
BRANCH  18  19
HETATM   19  O   UNL     1      -7.473   3.573  65.166  1.00  0.00    -0.071 OA 
BRANCH  19  20
HETATM   20  C   UNL     1      -7.383   4.363  64.072  1.00  0.00    -0.055 C  
HETATM   21  O   UNL     1      -7.343   3.989  62.908  1.00  0.00    -0.047 OA 
BRANCH  20  22
HETATM   22  O   UNL     1      -7.388   5.656  64.486  1.00  0.00    -0.062 OA 
HETATM   23  C   UNL     1      -7.905   6.560  63.517  1.00  0.00    -0.110 C  
ENDBRANCH  20  22
ENDBRANCH  19  20
ENDBRANCH  18  19
ENDBRANCH  17  18
ENDBRANCH  10  17
BRANCH  11  24
HETATM   24  C   UNL     1      -8.786   8.578  70.232  1.00  0.00    -0.142 C  
HETATM   25  C   UNL     1      -7.831   8.710  68.990  1.00  0.00    -0.100 A  
HETATM   26  C   UNL     1      -7.298   7.601  68.313  1.00  0.00    -0.099 A  
HETATM   27  C   UNL     1      -6.480   7.624  67.179  1.00  0.00    -0.055 A  
HETATM   28  C   UNL     1      -6.110   8.835  66.675  1.00  0.00    -0.057 A  
HETATM   29  C   UNL     1      -6.528   9.978  67.327  1.00  0.00    -0.068 A  
HETATM   30  F   UNL     1      -5.372   8.894  65.560  1.00  0.00    -0.036 F  
HETATM   31  F   UNL     1      -6.156  11.169  66.830  1.00  0.00    -0.061 F  
HETATM   32  C   UNL     1      -7.352   9.934  68.489  1.00  0.00    -0.078 A  
HETATM   33  C   UNL     1      -7.822  11.243  69.030  1.00  0.00    -0.079 C  
HETATM   34  S   UNL     1      -9.453  11.505  68.312  1.00  0.00    -0.192 SA 
HETATM   35  C   UNL     1     -10.437  10.583  69.480  1.00  0.00    -0.235 A  
HETATM   36  C   UNL     1     -11.739  11.131  69.570  1.00  0.00    -0.405 A  
HETATM   37  C   UNL     1     -12.618  10.778  70.581  1.00  0.00    -0.446 A  
HETATM   38  C   UNL     1     -12.177   9.912  71.564  1.00  0.00    -0.505 A  
HETATM   39  C   UNL     1     -10.908   9.313  71.456  1.00  0.00    -0.442 A  
HETATM   40  C   UNL     1     -10.040   9.546  70.353  1.00  0.00    -0.329 A  
ENDBRANCH  11  24
TORSDOF 6
ENDMDL
MODEL       37
REMARK 921   NORMALIZED FREE ENERGY PREDICTED BY IDOCK:   -4.64 KCAL/MOL
REMARK 922        TOTAL FREE ENERGY PREDICTED BY IDOCK:   -7.01 KCAL/MOL
REMARK 923 INTER-LIGAND FREE ENERGY PREDICTED BY IDOCK:   -6.23 KCAL/MOL
REMARK 924 INTRA-LIGAND FREE ENERGY PREDICTED BY IDOCK:   -0.77 KCAL/MOL
REMARK 927      BINDING AFFINITY PREDICTED BY RF-SCORE:    0.00 PKD
ROOT
HETATM    1  C   UNL     1     -10.561   9.222  71.409  1.00  0.00    -0.347 C  
HETATM    2  C   UNL     1     -11.082   8.591  72.734  1.00  0.00     0.014 C  
HETATM    3  O   UNL     1     -12.510   8.586  72.869  1.00  0.00    -0.276 OA 
HETATM    4  C   UNL     1     -13.107   8.002  71.714  1.00  0.00    -0.336 C  
HETATM    5  C   UNL     1     -12.909   8.913  70.510  1.00  0.00     0.569 C  
HETATM    6  N   UNL     1     -11.565   9.480  70.398  1.00  0.00    -0.243 N  
HETATM    7  C   UNL     1     -11.246  10.282  69.303  1.00  0.00    -0.228 C  
HETATM    8  O   UNL     1     -12.124  10.780  68.602  1.00  0.00    -0.480 OA 
HETATM    9  C   UNL     1      -9.762  10.229  68.906  1.00  0.00    -0.189 C  
HETATM   10  C   UNL     1      -9.388  10.680  67.682  1.00  0.00    -0.146 C  
HETATM   11  N   UNL     1      -9.380   8.632  70.763  1.00  0.00    -0.177 NA 
HETATM   12  C   UNL     1      -7.944  10.480  67.290  1.00  0.00    -0.114 C  
HETATM   13  O   UNL     1      -7.509  10.753  66.174  1.00  0.00    -0.135 OA 
HETATM   14  N   UNL     1      -8.877   9.501  69.736  1.00  0.00    -0.181 NA 
HETATM   15  C   UNL     1      -7.012   9.936  68.295  1.00  0.00    -0.072 C  
HETATM   16  C   UNL     1      -7.531   9.488  69.439  1.00  0.00    -0.088 C  
ENDROOT
BRANCH  10  17
HETATM   17  O   UNL     1     -10.309  11.133  66.758  1.00  0.00    -0.223 OA 
BRANCH  17  18
HETATM   18  C   UNL     1     -10.083  12.421  66.193  1.00  0.00    -0.248 C  
BRANCH  18  19
HETATM   19  O   UNL     1     -10.155  13.416  67.213  1.00  0.00    -0.234 OA 
BRANCH  19  20
HETATM   20  C   UNL     1      -9.084  14.240  67.213  1.00  0.00    -0.215 C  
HETATM   21  O   UNL     1      -7.920  13.917  67.403  1.00  0.00    -0.171 OA 
BRANCH  20  22
HETATM   22  O   UNL     1      -9.517  15.493  66.919  1.00  0.00    -0.214 OA 
HETATM   23  C   UNL     1      -9.747  16.297  68.070  1.00  0.00    -0.230 C  
ENDBRANCH  20  22
ENDBRANCH  19  20
ENDBRANCH  18  19
ENDBRANCH  17  18
ENDBRANCH  10  17
BRANCH  11  24
HETATM   24  C   UNL     1      -9.242   7.123  70.534  1.00  0.00    -0.158 C  
HETATM   25  C   UNL     1      -9.705   6.552  69.144  1.00  0.00    -0.143 A  
HETATM   26  C   UNL     1     -10.331   7.340  68.163  1.00  0.00    -0.234 A  
HETATM   27  C   UNL     1     -10.735   6.929  66.889  1.00  0.00    -0.386 A  
HETATM   28  C   UNL     1     -10.553   5.623  66.545  1.00  0.00    -0.255 A  
HETATM   29  C   UNL     1     -10.015   4.761  67.480  1.00  0.00    -0.144 A  
HETATM   30  F   UNL     1     -10.879   5.207  65.315  1.00  0.00    -0.015 F  
HETATM   31  F   UNL     1      -9.843   3.474  67.139  1.00  0.00    -0.238 F  
HETATM   32  C   UNL     1      -9.619   5.196  68.778  1.00  0.00    -0.198 A  
HETATM   33  C   UNL     1      -8.951   4.188  69.651  1.00  0.00    -0.101 C  
HETATM   34  S   UNL     1      -7.184   4.438  69.414  1.00  0.00    -0.051 SA 
HETATM   35  C   UNL     1      -6.914   5.750  70.593  1.00  0.00    -0.058 A  
HETATM   36  C   UNL     1      -5.592   5.695  71.098  1.00  0.00    -0.013 A  
HETATM   37  C   UNL     1      -5.198   6.424  72.207  1.00  0.00    -0.031 A  
HETATM   38  C   UNL     1      -6.149   7.173  72.875  1.00  0.00    -0.055 A  
HETATM   39  C   UNL     1      -7.451   7.285  72.352  1.00  0.00    -0.084 A  
HETATM   40  C   UNL     1      -7.845   6.663  71.134  1.00  0.00    -0.102 A  
ENDBRANCH  11  24
TORSDOF 6
ENDMDL
MODEL       38
REMARK 921   NORMALIZED FREE ENERGY PREDICTED BY IDOCK:   -4.62 KCAL/MOL
REMARK 922        TOTAL FREE ENERGY PREDICTED BY IDOCK:   -6.97 KCAL/MOL
REMARK 923 INTER-LIGAND FREE ENERGY PREDICTED BY IDOCK:   -6.13 KCAL/MOL
REMARK 924 INTRA-LIGAND FREE ENERGY PREDICTED BY IDOCK:   -0.84 KCAL/MOL
REMARK 927      BINDING AFFINITY PREDICTED BY RF-SCORE:    0.00 PKD
ROOT
HETATM    1  C   UNL     1      -7.745  12.897  68.641  1.00  0.00    -0.067 C  
HETATM    2  C   UNL     1      -7.089  14.176  68.043  1.00  0.00    -0.144 C  
HETATM    3  O   UNL     1      -5.655  14.184  68.084  1.00  0.00    -0.106 OA 
HETATM    4  C   UNL     1      -5.145  12.985  67.504  1.00  0.00    -0.002 C  
HETATM    5  C   UNL     1      -5.478  11.795  68.393  1.00  0.00    -0.045 C  
HETATM    6  N   UNL     1      -6.844  11.797  68.917  1.00  0.00    -0.095 N  
HETATM    7  C   UNL     1      -7.284  10.728  69.695  1.00  0.00    -0.125 C  
HETATM    8  O   UNL     1      -6.489   9.946  70.210  1.00  0.00    -0.075 OA 
HETATM    9  C   UNL     1      -8.795  10.466  69.592  1.00  0.00    -0.026 C  
HETATM   10  C   UNL     1      -9.291   9.276  70.016  1.00  0.00    -0.209 C  
HETATM   11  N   UNL     1      -8.961  12.365  68.008  1.00  0.00    -0.188 NA 
HETATM   12  C   UNL     1     -10.758   9.016  69.766  1.00  0.00    -0.225 C  
HETATM   13  O   UNL     1     -11.299   7.942  70.012  1.00  0.00    -0.172 OA 
HETATM   14  N   UNL     1      -9.580  11.379  68.847  1.00  0.00    -0.130 NA 
HETATM   15  C   UNL     1     -11.578  10.106  69.207  1.00  0.00    -0.120 C  
HETATM   16  C   UNL     1     -10.946  11.204  68.790  1.00  0.00    -0.219 C  
ENDROOT
BRANCH  10  17
HETATM   17  O   UNL     1      -8.472   8.268  70.485  1.00  0.00    -0.121 OA 
BRANCH  17  18
HETATM   18  C   UNL     1      -8.453   7.050  69.748  1.00  0.00    -0.137 C  
BRANCH  18  19
HETATM   19  O   UNL     1      -7.111   6.576  69.632  1.00  0.00    -0.068 OA 
BRANCH  19  20
HETATM   20  C   UNL     1      -6.950   5.722  68.597  1.00  0.00    -0.071 C  
HETATM   21  O   UNL     1      -6.005   5.693  67.821  1.00  0.00    -0.019 OA 
BRANCH  20  22
HETATM   22  O   UNL     1      -8.003   4.864  68.591  1.00  0.00    -0.083 OA 
HETATM   23  C   UNL     1      -8.390   4.451  67.286  1.00  0.00    -0.100 C  
ENDBRANCH  20  22
ENDBRANCH  19  20
ENDBRANCH  18  19
ENDBRANCH  17  18
ENDBRANCH  10  17
BRANCH  11  24
HETATM   24  C   UNL     1      -9.070  12.164  66.492  1.00  0.00    -0.199 C  
HETATM   25  C   UNL     1      -8.711  10.745  65.918  1.00  0.00    -0.189 A  
HETATM   26  C   UNL     1      -8.198   9.706  66.711  1.00  0.00    -0.113 A  
HETATM   27  C   UNL     1      -7.893   8.406  66.296  1.00  0.00    -0.098 A  
HETATM   28  C   UNL     1      -8.063   8.092  64.981  1.00  0.00    -0.155 A  
HETATM   29  C   UNL     1      -8.491   9.079  64.115  1.00  0.00    -0.170 A  
HETATM   30  F   UNL     1      -7.831   6.843  64.559  1.00  0.00    -0.093 F  
HETATM   31  F   UNL     1      -8.651   8.767  62.819  1.00  0.00    -0.194 F  
HETATM   32  C   UNL     1      -8.786  10.402  64.555  1.00  0.00    -0.205 A  
HETATM   33  C   UNL     1      -9.345  11.341  63.538  1.00  0.00    -0.204 C  
HETATM   34  S   UNL     1     -11.133  11.254  63.732  1.00  0.00    -0.072 SA 
HETATM   35  C   UNL     1     -11.341  12.439  65.050  1.00  0.00    -0.320 A  
HETATM   36  C   UNL     1     -12.611  13.057  64.962  1.00  0.00    -0.515 A  
HETATM   37  C   UNL     1     -12.931  14.189  65.693  1.00  0.00    -0.284 A  
HETATM   38  C   UNL     1     -11.950  14.764  66.479  1.00  0.00    -0.193 A  
HETATM   39  C   UNL     1     -10.702  14.129  66.623  1.00  0.00    -0.289 A  
HETATM   40  C   UNL     1     -10.395  12.888  65.998  1.00  0.00    -0.294 A  
ENDBRANCH  11  24
TORSDOF 6
ENDMDL
MODEL       39
REMARK 921   NORMALIZED FREE ENERGY PREDICTED BY IDOCK:   -4.61 KCAL/MOL
REMARK 922        TOTAL FREE ENERGY PREDICTED BY IDOCK:   -6.96 KCAL/MOL
REMARK 923 INTER-LIGAND FREE ENERGY PREDICTED BY IDOCK:   -6.76 KCAL/MOL
REMARK 924 INTRA-LIGAND FREE ENERGY PREDICTED BY IDOCK:   -0.20 KCAL/MOL
REMARK 927      BINDING AFFINITY PREDICTED BY RF-SCORE:    0.00 PKD
ROOT
HETATM    1  C   UNL     1      -7.408   8.968  71.666  1.00  0.00     0.050 C  
HETATM    2  C   UNL     1      -6.044   8.463  72.224  1.00  0.00    -0.065 C  
HETATM    3  O   UNL     1      -6.154   7.490  73.273  1.00  0.00    -0.058 OA 
HETATM    4  C   UNL     1      -7.004   6.424  72.861  1.00  0.00    -0.078 C  
HETATM    5  C   UNL     1      -8.439   6.919  72.741  1.00  0.00    -0.116 C  
HETATM    6  N   UNL     1      -8.575   8.221  72.087  1.00  0.00    -0.171 N  
HETATM    7  C   UNL     1      -9.845   8.751  71.866  1.00  0.00    -0.324 C  
HETATM    8  O   UNL     1     -10.826   8.323  72.469  1.00  0.00    -0.333 OA 
HETATM    9  C   UNL     1      -9.930   9.666  70.634  1.00  0.00    -0.231 C  
HETATM   10  C   UNL     1     -11.148   9.968  70.118  1.00  0.00    -0.310 C  
HETATM   11  N   UNL     1      -7.521   9.252  70.228  1.00  0.00    -0.096 NA 
HETATM   12  C   UNL     1     -11.170  10.756  68.829  1.00  0.00    -0.272 C  
HETATM   13  O   UNL     1     -12.203  11.003  68.213  1.00  0.00    -0.582 OA 
HETATM   14  N   UNL     1      -8.731   9.970  69.947  1.00  0.00    -0.184 NA 
HETATM   15  C   UNL     1      -9.892  11.256  68.291  1.00  0.00    -0.201 C  
HETATM   16  C   UNL     1      -8.769  10.838  68.877  1.00  0.00    -0.152 C  
ENDROOT
BRANCH  10  17
HETATM   17  O   UNL     1     -12.313   9.431  70.630  1.00  0.00    -0.182 OA 
BRANCH  17  18
HETATM   18  C   UNL     1     -13.159  10.303  71.372  1.00  0.00    -0.414 C  
BRANCH  18  19
HETATM   19  O   UNL     1     -12.413  11.435  71.820  1.00  0.00    -0.195 OA 
BRANCH  19  20
HETATM   20  C   UNL     1     -13.132  12.579  71.780  1.00  0.00    -0.347 C  
HETATM   21  O   UNL     1     -14.026  12.902  72.550  1.00  0.00    -0.581 OA 
BRANCH  20  22
HETATM   22  O   UNL     1     -12.658  13.338  70.758  1.00  0.00    -0.333 OA 
HETATM   23  C   UNL     1     -12.574  14.723  71.072  1.00  0.00    -0.333 C  
ENDBRANCH  20  22
ENDBRANCH  19  20
ENDBRANCH  18  19
ENDBRANCH  17  18
ENDBRANCH  10  17
BRANCH  11  24
HETATM   24  C   UNL     1      -7.024   8.270  69.161  1.00  0.00    -0.063 C  
HETATM   25  C   UNL     1      -7.963   7.066  68.785  1.00  0.00    -0.120 A  
HETATM   26  C   UNL     1      -9.167   6.797  69.456  1.00  0.00    -0.147 A  
HETATM   27  C   UNL     1     -10.081   5.779  69.164  1.00  0.00    -0.257 A  
HETATM   28  C   UNL     1      -9.783   4.916  68.152  1.00  0.00    -0.148 A  
HETATM   29  C   UNL     1      -8.580   5.062  67.491  1.00  0.00    -0.104 A  
HETATM   30  F   UNL     1     -10.660   3.964  67.811  1.00  0.00     0.302 F  
HETATM   31  F   UNL     1      -8.288   4.206  66.499  1.00  0.00    -0.103 F  
HETATM   32  C   UNL     1      -7.656   6.099  67.811  1.00  0.00    -0.097 A  
HETATM   33  C   UNL     1      -6.445   6.211  66.946  1.00  0.00    -0.050 C  
HETATM   34  S   UNL     1      -6.855   7.443  65.698  1.00  0.00    -0.057 SA 
HETATM   35  C   UNL     1      -6.439   8.924  66.603  1.00  0.00    -0.063 A  
HETATM   36  C   UNL     1      -6.030   9.947  65.714  1.00  0.00    -0.067 A  
HETATM   37  C   UNL     1      -5.410  11.103  66.158  1.00  0.00    -0.141 A  
HETATM   38  C   UNL     1      -5.126  11.221  67.505  1.00  0.00    -0.043 A  
HETATM   39  C   UNL     1      -5.579  10.241  68.409  1.00  0.00    -0.037 A  
HETATM   40  C   UNL     1      -6.345   9.114  67.999  1.00  0.00    -0.055 A  
ENDBRANCH  11  24
TORSDOF 6
ENDMDL
MODEL       40
REMARK 921   NORMALIZED FREE ENERGY PREDICTED BY IDOCK:   -4.53 KCAL/MOL
REMARK 922        TOTAL FREE ENERGY PREDICTED BY IDOCK:   -6.85 KCAL/MOL
REMARK 923 INTER-LIGAND FREE ENERGY PREDICTED BY IDOCK:   -6.15 KCAL/MOL
REMARK 924 INTRA-LIGAND FREE ENERGY PREDICTED BY IDOCK:   -0.70 KCAL/MOL
REMARK 927      BINDING AFFINITY PREDICTED BY RF-SCORE:    0.00 PKD
ROOT
HETATM    1  C   UNL     1      -6.789   7.409  70.029  1.00  0.00    -0.055 C  
HETATM    2  C   UNL     1      -6.094   7.993  71.295  1.00  0.00    -0.034 C  
HETATM    3  O   UNL     1      -5.178   9.065  71.029  1.00  0.00    -0.027 OA 
HETATM    4  C   UNL     1      -5.818  10.068  70.244  1.00  0.00    -0.064 C  
HETATM    5  C   UNL     1      -6.093   9.537  68.844  1.00  0.00    -0.042 C  
HETATM    6  N   UNL     1      -6.622   8.173  68.811  1.00  0.00    -0.052 N  
HETATM    7  C   UNL     1      -6.969   7.599  67.589  1.00  0.00    -0.081 C  
HETATM    8  O   UNL     1      -6.562   8.067  66.528  1.00  0.00    -0.053 OA 
HETATM    9  C   UNL     1      -8.098   6.562  67.688  1.00  0.00    -0.118 C  
HETATM   10  C   UNL     1      -8.752   6.186  66.560  1.00  0.00    -0.133 C  
HETATM   11  N   UNL     1      -8.190   6.977  70.130  1.00  0.00    -0.130 NA 
HETATM   12  C   UNL     1      -9.942   5.270  66.730  1.00  0.00    -0.199 C  
HETATM   13  O   UNL     1     -10.673   4.943  65.800  1.00  0.00    -0.270 OA 
HETATM   14  N   UNL     1      -8.569   6.211  68.976  1.00  0.00    -0.121 NA 
HETATM   15  C   UNL     1     -10.233   4.742  68.076  1.00  0.00    -0.057 C  
HETATM   16  C   UNL     1      -9.537   5.238  69.099  1.00  0.00    -0.145 C  
ENDROOT
BRANCH  10  17
HETATM   17  O   UNL     1      -8.474   6.750  65.331  1.00  0.00    -0.145 OA 
BRANCH  17  18
HETATM   18  C   UNL     1      -8.093   5.867  64.282  1.00  0.00    -0.119 C  
BRANCH  18  19
HETATM   19  O   UNL     1      -6.673   5.718  64.265  1.00  0.00    -0.043 OA 
BRANCH  19  20
HETATM   20  C   UNL     1      -6.256   4.635  64.957  1.00  0.00    -0.034 C  
HETATM   21  O   UNL     1      -5.425   4.622  65.855  1.00  0.00    -0.012 OA 
BRANCH  20  22
HETATM   22  O   UNL     1      -6.953   3.557  64.512  1.00  0.00    -0.050 OA 
HETATM   23  C   UNL     1      -7.366   2.680  65.553  1.00  0.00    -0.067 C  
ENDBRANCH  20  22
ENDBRANCH  19  20
ENDBRANCH  18  19
ENDBRANCH  17  18
ENDBRANCH  10  17
BRANCH  11  24
HETATM   24  C   UNL     1      -9.270   7.854  70.774  1.00  0.00    -0.157 C  
HETATM   25  C   UNL     1      -9.997   8.905  69.858  1.00  0.00    -0.197 A  
HETATM   26  C   UNL     1      -9.626   9.145  68.525  1.00  0.00    -0.156 A  
HETATM   27  C   UNL     1     -10.240  10.025  67.628  1.00  0.00    -0.249 A  
HETATM   28  C   UNL     1     -11.287  10.773  68.074  1.00  0.00    -0.307 A  
HETATM   29  C   UNL     1     -11.669  10.656  69.396  1.00  0.00    -0.273 A  
HETATM   30  F   UNL     1     -11.932  11.586  67.229  1.00  0.00    -0.299 F  
HETATM   31  F   UNL     1     -12.697  11.400  69.833  1.00  0.00    -0.241 F  
HETATM   32  C   UNL     1     -11.023   9.762  70.299  1.00  0.00    -0.352 A  
HETATM   33  C   UNL     1     -11.604   9.652  71.669  1.00  0.00    -0.336 C  
HETATM   34  S   UNL     1     -12.713   8.235  71.611  1.00  0.00    -0.326 SA 
HETATM   35  C   UNL     1     -11.537   6.931  71.924  1.00  0.00    -0.286 A  
HETATM   36  C   UNL     1     -12.167   5.844  72.577  1.00  0.00    -0.023 A  
HETATM   37  C   UNL     1     -11.443   4.820  73.164  1.00  0.00    -0.348 A  
HETATM   38  C   UNL     1     -10.064   4.905  73.167  1.00  0.00    -0.194 A  
HETATM   39  C   UNL     1      -9.422   5.947  72.471  1.00  0.00    -0.155 A  
HETATM   40  C   UNL     1     -10.137   6.933  71.736  1.00  0.00    -0.198 A  
ENDBRANCH  11  24
TORSDOF 6
ENDMDL
MODEL       41
REMARK 921   NORMALIZED FREE ENERGY PREDICTED BY IDOCK:   -4.48 KCAL/MOL
REMARK 922        TOTAL FREE ENERGY PREDICTED BY IDOCK:   -6.79 KCAL/MOL
REMARK 923 INTER-LIGAND FREE ENERGY PREDICTED BY IDOCK:   -9.29 KCAL/MOL
REMARK 924 INTRA-LIGAND FREE ENERGY PREDICTED BY IDOCK:    2.50 KCAL/MOL
REMARK 927      BINDING AFFINITY PREDICTED BY RF-SCORE:    0.00 PKD
ROOT
HETATM    1  C   UNL     1     -10.766   8.613  67.831  1.00  0.00    -0.093 C  
HETATM    2  C   UNL     1     -10.510   7.077  67.803  1.00  0.00    -0.223 C  
HETATM    3  O   UNL     1      -9.734   6.623  66.686  1.00  0.00    -0.169 OA 
HETATM    4  C   UNL     1      -8.530   7.380  66.590  1.00  0.00    -0.124 C  
HETATM    5  C   UNL     1      -8.847   8.814  66.189  1.00  0.00    -0.168 C  
HETATM    6  N   UNL     1      -9.991   9.397  66.892  1.00  0.00    -0.211 N  
HETATM    7  C   UNL     1     -10.341  10.725  66.653  1.00  0.00    -0.241 C  
HETATM    8  O   UNL     1      -9.930  11.322  65.661  1.00  0.00    -0.225 OA 
HETATM    9  C   UNL     1     -11.009  11.416  67.852  1.00  0.00    -0.240 C  
HETATM   10  C   UNL     1     -11.088  12.770  67.875  1.00  0.00    -0.246 C  
HETATM   11  N   UNL     1     -10.777   9.304  69.128  1.00  0.00    -0.213 NA 
HETATM   12  C   UNL     1     -11.628  13.404  69.135  1.00  0.00    -0.315 C  
HETATM   13  O   UNL     1     -11.654  14.619  69.315  1.00  0.00    -0.268 OA 
HETATM   14  N   UNL     1     -11.307  10.631  68.992  1.00  0.00    -0.263 NA 
HETATM   15  C   UNL     1     -12.152  12.523  70.195  1.00  0.00    -0.368 C  
HETATM   16  C   UNL     1     -11.962  11.210  70.056  1.00  0.00    -0.367 C  
ENDROOT
BRANCH  10  17
HETATM   17  O   UNL     1     -10.535  13.552  66.880  1.00  0.00    -0.267 OA 
BRANCH  17  18
HETATM   18  C   UNL     1     -11.408  14.441  66.191  1.00  0.00    -0.350 C  
BRANCH  18  19
HETATM   19  O   UNL     1     -10.839  14.798  64.931  1.00  0.00    -0.389 OA 
BRANCH  19  20
HETATM   20  C   UNL     1     -10.918  16.124  64.682  1.00  0.00    -0.245 C  
HETATM   21  O   UNL     1     -11.757  16.684  63.990  1.00  0.00    -1.143 OA 
BRANCH  20  22
HETATM   22  O   UNL     1      -9.925  16.742  65.373  1.00  0.00    -0.572 OA 
HETATM   23  C   UNL     1     -10.376  17.846  66.147  1.00  0.00    -0.352 C  
ENDBRANCH  20  22
ENDBRANCH  19  20
ENDBRANCH  18  19
ENDBRANCH  17  18
ENDBRANCH  10  17
BRANCH  11  24
HETATM   24  C   UNL     1      -9.677   9.092  70.175  1.00  0.00    -0.204 C  
HETATM   25  C   UNL     1      -9.608   7.692  70.887  1.00  0.00    -0.167 A  
HETATM   26  C   UNL     1     -10.566   6.684  70.686  1.00  0.00    -0.268 A  
HETATM   27  C   UNL     1     -10.561   5.401  71.241  1.00  0.00    -0.276 A  
HETATM   28  C   UNL     1      -9.557   5.074  72.102  1.00  0.00    -0.150 A  
HETATM   29  C   UNL     1      -8.615   6.034  72.416  1.00  0.00    -0.120 A  
HETATM   30  F   UNL     1      -9.492   3.837  72.611  1.00  0.00    -0.131 F  
HETATM   31  F   UNL     1      -7.631   5.710  73.270  1.00  0.00    -0.092 F  
HETATM   32  C   UNL     1      -8.643   7.341  71.849  1.00  0.00    -0.123 A  
HETATM   33  C   UNL     1      -7.505   8.246  72.186  1.00  0.00    -0.118 C  
HETATM   34  S   UNL     1      -6.328   8.066  70.835  1.00  0.00    -0.037 SA 
HETATM   35  C   UNL     1      -7.021   9.243  69.686  1.00  0.00    -0.056 A  
HETATM   36  C   UNL     1      -6.004   9.792  68.869  1.00  0.00    -0.038 A  
HETATM   37  C   UNL     1      -6.220  10.909  68.078  1.00  0.00    -0.053 A  
HETATM   38  C   UNL     1      -7.449  11.537  68.146  1.00  0.00    -0.101 A  
HETATM   39  C   UNL     1      -8.488  10.969  68.907  1.00  0.00    -0.124 A  
HETATM   40  C   UNL     1      -8.340   9.744  69.616  1.00  0.00    -0.180 A  
ENDBRANCH  11  24
TORSDOF 6
ENDMDL
MODEL       42
REMARK 921   NORMALIZED FREE ENERGY PREDICTED BY IDOCK:   -4.48 KCAL/MOL
REMARK 922        TOTAL FREE ENERGY PREDICTED BY IDOCK:   -6.79 KCAL/MOL
REMARK 923 INTER-LIGAND FREE ENERGY PREDICTED BY IDOCK:   -6.42 KCAL/MOL
REMARK 924 INTRA-LIGAND FREE ENERGY PREDICTED BY IDOCK:   -0.37 KCAL/MOL
REMARK 927      BINDING AFFINITY PREDICTED BY RF-SCORE:    0.00 PKD
ROOT
HETATM    1  C   UNL     1     -11.890  10.192  68.455  1.00  0.00     0.448 C  
HETATM    2  C   UNL     1     -12.851  10.795  69.523  1.00  0.00     0.488 C  
HETATM    3  O   UNL     1     -12.715  10.227  70.833  1.00  0.00    -0.332 OA 
HETATM    4  C   UNL     1     -11.350  10.266  71.241  1.00  0.00    -0.045 C  
HETATM    5  C   UNL     1     -10.527   9.303  70.396  1.00  0.00    -0.245 C  
HETATM    6  N   UNL     1     -10.836   9.343  68.966  1.00  0.00    -0.181 N  
HETATM    7  C   UNL     1     -10.105   8.549  68.083  1.00  0.00    -0.200 C  
HETATM    8  O   UNL     1      -9.435   7.601  68.485  1.00  0.00    -0.146 OA 
HETATM    9  C   UNL     1      -9.989   9.140  66.669  1.00  0.00    -0.273 C  
HETATM   10  C   UNL     1      -9.043   8.655  65.825  1.00  0.00    -0.187 C  
HETATM   11  N   UNL     1     -11.326  11.083  67.430  1.00  0.00    -0.462 NA 
HETATM   12  C   UNL     1      -8.880   9.361  64.500  1.00  0.00    -0.198 C  
HETATM   13  O   UNL     1      -7.994   9.080  63.697  1.00  0.00    -0.134 OA 
HETATM   14  N   UNL     1     -10.713  10.321  66.379  1.00  0.00    -0.094 NA 
HETATM   15  C   UNL     1      -9.831  10.432  64.154  1.00  0.00    -0.379 C  
HETATM   16  C   UNL     1     -10.677  10.837  65.102  1.00  0.00    -0.089 C  
ENDROOT
BRANCH  10  17
HETATM   17  O   UNL     1      -8.142   7.684  66.217  1.00  0.00    -0.103 OA 
BRANCH  17  18
HETATM   18  C   UNL     1      -8.306   6.383  65.663  1.00  0.00    -0.147 C  
BRANCH  18  19
HETATM   19  O   UNL     1      -7.663   5.418  66.495  1.00  0.00    -0.097 OA 
BRANCH  19  20
HETATM   20  C   UNL     1      -8.185   4.179  66.353  1.00  0.00    -0.101 C  
HETATM   21  O   UNL     1      -7.642   3.219  65.826  1.00  0.00    -0.075 OA 
BRANCH  20  22
HETATM   22  O   UNL     1      -9.409   4.169  66.941  1.00  0.00    -0.147 OA 
HETATM   23  C   UNL     1      -9.364   3.912  68.340  1.00  0.00    -0.163 C  
ENDBRANCH  20  22
ENDBRANCH  19  20
ENDBRANCH  18  19
ENDBRANCH  17  18
ENDBRANCH  10  17
BRANCH  11  24
HETATM   24  C   UNL     1     -10.690  12.432  67.782  1.00  0.00    -0.221 C  
HETATM   25  C   UNL     1      -9.191  12.428  68.256  1.00  0.00    -0.189 A  
HETATM   26  C   UNL     1      -8.459  11.249  68.473  1.00  0.00    -0.156 A  
HETATM   27  C   UNL     1      -7.117  11.151  68.851  1.00  0.00    -0.101 A  
HETATM   28  C   UNL     1      -6.426  12.304  69.080  1.00  0.00    -0.100 A  
HETATM   29  C   UNL     1      -7.092  13.508  68.966  1.00  0.00    -0.066 A  
HETATM   30  F   UNL     1      -5.126  12.249  69.393  1.00  0.00    -0.063 F  
HETATM   31  F   UNL     1      -6.410  14.641  69.198  1.00  0.00    -0.092 F  
HETATM   32  C   UNL     1      -8.465  13.587  68.590  1.00  0.00    -0.017 A  
HETATM   33  C   UNL     1      -9.032  14.953  68.395  1.00  0.00    -0.183 C  
HETATM   34  S   UNL     1      -8.893  15.287  66.631  1.00  0.00    -0.294 SA 
HETATM   35  C   UNL     1     -10.393  14.502  66.067  1.00  0.00    -0.309 A  
HETATM   36  C   UNL     1     -10.878  15.143  64.902  1.00  0.00    -0.437 A  
HETATM   37  C   UNL     1     -12.151  14.908  64.409  1.00  0.00    -0.417 A  
HETATM   38  C   UNL     1     -12.989  14.071  65.120  1.00  0.00    -0.260 A  
HETATM   39  C   UNL     1     -12.502  13.380  66.246  1.00  0.00    -0.338 A  
HETATM   40  C   UNL     1     -11.155  13.490  66.692  1.00  0.00    -0.309 A  
ENDBRANCH  11  24
TORSDOF 6
ENDMDL
MODEL       43
REMARK 921   NORMALIZED FREE ENERGY PREDICTED BY IDOCK:   -4.45 KCAL/MOL
REMARK 922        TOTAL FREE ENERGY PREDICTED BY IDOCK:   -6.74 KCAL/MOL
REMARK 923 INTER-LIGAND FREE ENERGY PREDICTED BY IDOCK:   -6.09 KCAL/MOL
REMARK 924 INTRA-LIGAND FREE ENERGY PREDICTED BY IDOCK:   -0.65 KCAL/MOL
REMARK 927      BINDING AFFINITY PREDICTED BY RF-SCORE:    0.00 PKD
ROOT
HETATM    1  C   UNL     1      -9.785   8.360  71.951  1.00  0.00    -0.261 C  
HETATM    2  C   UNL     1     -10.693   7.768  73.069  1.00  0.00    -0.384 C  
HETATM    3  O   UNL     1     -12.078   8.128  72.963  1.00  0.00    -0.242 OA 
HETATM    4  C   UNL     1     -12.559   7.833  71.654  1.00  0.00    -0.332 C  
HETATM    5  C   UNL     1     -11.914   8.768  70.640  1.00  0.00    -0.054 C  
HETATM    6  N   UNL     1     -10.478   8.968  70.834  1.00  0.00    -0.232 N  
HETATM    7  C   UNL     1      -9.765   9.756  69.931  1.00  0.00    -0.238 C  
HETATM    8  O   UNL     1     -10.340  10.531  69.172  1.00  0.00    -0.197 OA 
HETATM    9  C   UNL     1      -8.290   9.350  69.783  1.00  0.00    -0.157 C  
HETATM   10  C   UNL     1      -7.585   9.799  68.714  1.00  0.00    -0.076 C  
HETATM   11  N   UNL     1      -8.678   7.542  71.434  1.00  0.00    -0.123 NA 
HETATM   12  C   UNL     1      -6.184   9.262  68.542  1.00  0.00    -0.049 C  
HETATM   13  O   UNL     1      -5.485   9.514  67.565  1.00  0.00    -0.037 OA 
HETATM   14  N   UNL     1      -7.788   8.339  70.637  1.00  0.00    -0.087 NA 
HETATM   15  C   UNL     1      -5.628   8.400  69.602  1.00  0.00    -0.030 C  
HETATM   16  C   UNL     1      -6.454   8.000  70.569  1.00  0.00    -0.037 C  
ENDROOT
BRANCH  10  17
HETATM   17  O   UNL     1      -8.167  10.564  67.723  1.00  0.00    -0.107 OA 
BRANCH  17  18
HETATM   18  C   UNL     1      -8.619   9.882  66.557  1.00  0.00    -0.124 C  
BRANCH  18  19
HETATM   19  O   UNL     1      -8.540  10.751  65.428  1.00  0.00    -0.177 OA 
BRANCH  19  20
HETATM   20  C   UNL     1      -9.734  11.301  65.110  1.00  0.00    -0.244 C  
HETATM   21  O   UNL     1     -10.548  10.857  64.312  1.00  0.00    -0.368 OA 
BRANCH  20  22
HETATM   22  O   UNL     1      -9.898  12.416  65.867  1.00  0.00    -0.253 OA 
HETATM   23  C   UNL     1     -11.234  12.604  66.318  1.00  0.00    -0.311 C  
ENDBRANCH  20  22
ENDBRANCH  19  20
ENDBRANCH  18  19
ENDBRANCH  17  18
ENDBRANCH  10  17
BRANCH  11  24
HETATM   24  C   UNL     1      -8.869   6.079  71.020  1.00  0.00    -0.139 C  
HETATM   25  C   UNL     1      -9.214   5.786  69.514  1.00  0.00    -0.150 A  
HETATM   26  C   UNL     1      -9.460   6.801  68.575  1.00  0.00    -0.131 A  
HETATM   27  C   UNL     1      -9.730   6.636  67.213  1.00  0.00    -0.166 A  
HETATM   28  C   UNL     1      -9.810   5.367  66.721  1.00  0.00    -0.171 A  
HETATM   29  C   UNL     1      -9.658   4.308  67.593  1.00  0.00    -0.165 A  
HETATM   30  F   UNL     1     -10.015   5.173  65.412  1.00  0.00    -0.142 F  
HETATM   31  F   UNL     1      -9.743   3.060  67.105  1.00  0.00    -0.203 F  
HETATM   32  C   UNL     1      -9.394   4.497  68.981  1.00  0.00    -0.211 A  
HETATM   33  C   UNL     1      -9.141   3.269  69.791  1.00  0.00    -0.130 C  
HETATM   34  S   UNL     1      -7.351   3.079  69.836  1.00  0.00    -0.044 SA 
HETATM   35  C   UNL     1      -6.978   4.154  71.210  1.00  0.00    -0.035 A  
HETATM   36  C   UNL     1      -5.812   3.712  71.880  1.00  0.00    -0.009 A  
HETATM   37  C   UNL     1      -5.448   4.203  73.123  1.00  0.00    -0.007 A  
HETATM   38  C   UNL     1      -6.290   5.101  73.750  1.00  0.00    -0.065 A  
HETATM   39  C   UNL     1      -7.421   5.594  73.073  1.00  0.00    -0.092 A  
HETATM   40  C   UNL     1      -7.742   5.219  71.738  1.00  0.00    -0.109 A  
ENDBRANCH  11  24
TORSDOF 6
ENDMDL
MODEL       44
REMARK 921   NORMALIZED FREE ENERGY PREDICTED BY IDOCK:   -4.37 KCAL/MOL
REMARK 922        TOTAL FREE ENERGY PREDICTED BY IDOCK:   -6.64 KCAL/MOL
REMARK 923 INTER-LIGAND FREE ENERGY PREDICTED BY IDOCK:   -5.68 KCAL/MOL
REMARK 924 INTRA-LIGAND FREE ENERGY PREDICTED BY IDOCK:   -0.96 KCAL/MOL
REMARK 927      BINDING AFFINITY PREDICTED BY RF-SCORE:    0.00 PKD
ROOT
HETATM    1  C   UNL     1      -8.514   6.727  67.609  1.00  0.00    -0.122 C  
HETATM    2  C   UNL     1      -9.546   6.544  66.457  1.00  0.00    -0.140 C  
HETATM    3  O   UNL     1      -9.551   5.238  65.865  1.00  0.00    -0.159 OA 
HETATM    4  C   UNL     1      -9.681   4.244  66.879  1.00  0.00    -0.214 C  
HETATM    5  C   UNL     1      -8.418   4.199  67.728  1.00  0.00    -0.098 C  
HETATM    6  N   UNL     1      -7.891   5.514  68.094  1.00  0.00    -0.091 N  
HETATM    7  C   UNL     1      -6.771   5.600  68.920  1.00  0.00    -0.053 C  
HETATM    8  O   UNL     1      -6.034   4.633  69.095  1.00  0.00    -0.020 OA 
HETATM    9  C   UNL     1      -6.732   6.872  69.781  1.00  0.00    -0.049 C  
HETATM   10  C   UNL     1      -5.899   6.922  70.851  1.00  0.00    -0.028 C  
HETATM   11  N   UNL     1      -8.883   7.563  68.761  1.00  0.00    -0.131 NA 
HETATM   12  C   UNL     1      -5.999   8.137  71.742  1.00  0.00    -0.038 C  
HETATM   13  O   UNL     1      -5.372   8.251  72.792  1.00  0.00    -0.037 OA 
HETATM   14  N   UNL     1      -7.731   7.853  69.567  1.00  0.00    -0.102 NA 
HETATM   15  C   UNL     1      -6.886   9.240  71.329  1.00  0.00    -0.037 C  
HETATM   16  C   UNL     1      -7.684   9.030  70.280  1.00  0.00    -0.098 C  
ENDROOT
BRANCH  10  17
HETATM   17  O   UNL     1      -5.125   5.841  71.226  1.00  0.00    -0.009 OA 
BRANCH  17  18
HETATM   18  C   UNL     1      -5.473   5.181  72.438  1.00  0.00    -0.016 C  
BRANCH  18  19
HETATM   19  O   UNL     1      -5.517   3.770  72.226  1.00  0.00     0.000 OA 
BRANCH  19  20
HETATM   20  C   UNL     1      -5.919   3.091  73.323  1.00  0.00    -0.008 C  
HETATM   21  O   UNL     1      -5.626   3.347  74.483  1.00  0.00    -0.003 OA 
BRANCH  20  22
HETATM   22  O   UNL     1      -6.748   2.094  72.920  1.00  0.00    -0.020 OA 
HETATM   23  C   UNL     1      -6.591   1.745  71.550  1.00  0.00    -0.019 C  
ENDBRANCH  20  22
ENDBRANCH  19  20
ENDBRANCH  18  19
ENDBRANCH  17  18
ENDBRANCH  10  17
BRANCH  11  24
HETATM   24  C   UNL     1     -10.225   7.407  69.486  1.00  0.00    -0.204 C  
HETATM   25  C   UNL     1     -10.271   6.453  70.735  1.00  0.00    -0.228 A  
HETATM   26  C   UNL     1      -9.179   5.666  71.137  1.00  0.00    -0.169 A  
HETATM   27  C   UNL     1      -9.117   4.825  72.253  1.00  0.00    -0.144 A  
HETATM   28  C   UNL     1     -10.229   4.704  73.031  1.00  0.00    -0.169 A  
HETATM   29  C   UNL     1     -11.372   5.383  72.663  1.00  0.00    -0.266 A  
HETATM   30  F   UNL     1     -10.188   3.949  74.137  1.00  0.00    -0.152 F  
HETATM   31  F   UNL     1     -12.467   5.256  73.429  1.00  0.00     0.099 F  
HETATM   32  C   UNL     1     -11.420   6.227  71.515  1.00  0.00    -0.351 A  
HETATM   33  C   UNL     1     -12.683   6.989  71.291  1.00  0.00    -0.351 C  
HETATM   34  S   UNL     1     -12.409   8.607  72.034  1.00  0.00    -0.395 SA 
HETATM   35  C   UNL     1     -11.590   9.418  70.671  1.00  0.00    -0.269 A  
HETATM   36  C   UNL     1     -11.847  10.809  70.700  1.00  0.00    -0.460 A  
HETATM   37  C   UNL     1     -11.554  11.633  69.625  1.00  0.00    -0.401 A  
HETATM   38  C   UNL     1     -11.058  11.058  68.471  1.00  0.00    -0.297 A  
HETATM   39  C   UNL     1     -10.741   9.687  68.448  1.00  0.00    -0.251 A  
HETATM   40  C   UNL     1     -10.896   8.843  69.583  1.00  0.00    -0.186 A  
ENDBRANCH  11  24
TORSDOF 6
ENDMDL
MODEL       45
REMARK 921   NORMALIZED FREE ENERGY PREDICTED BY IDOCK:   -4.34 KCAL/MOL
REMARK 922        TOTAL FREE ENERGY PREDICTED BY IDOCK:   -6.60 KCAL/MOL
REMARK 923 INTER-LIGAND FREE ENERGY PREDICTED BY IDOCK:   -6.44 KCAL/MOL
REMARK 924 INTRA-LIGAND FREE ENERGY PREDICTED BY IDOCK:   -0.17 KCAL/MOL
REMARK 927      BINDING AFFINITY PREDICTED BY RF-SCORE:    0.00 PKD
ROOT
HETATM    1  C   UNL     1     -10.714  13.180  65.607  1.00  0.00    -0.280 C  
HETATM    2  C   UNL     1     -12.060  13.855  65.208  1.00  0.00    -0.410 C  
HETATM    3  O   UNL     1     -12.664  13.322  64.021  1.00  0.00    -0.659 OA 
HETATM    4  C   UNL     1     -12.773  11.905  64.124  1.00  0.00    -0.170 C  
HETATM    5  C   UNL     1     -11.388  11.272  64.082  1.00  0.00    -0.048 C  
HETATM    6  N   UNL     1     -10.386  11.962  64.895  1.00  0.00    -0.275 N  
HETATM    7  C   UNL     1      -9.096  11.442  64.984  1.00  0.00    -0.013 C  
HETATM    8  O   UNL     1      -8.686  10.616  64.172  1.00  0.00    -0.178 OA 
HETATM    9  C   UNL     1      -8.387  11.764  66.309  1.00  0.00     0.024 C  
HETATM   10  C   UNL     1      -7.287  11.051  66.661  1.00  0.00    -0.143 C  
HETATM   11  N   UNL     1     -10.416  12.989  67.034  1.00  0.00    -0.246 NA 
HETATM   12  C   UNL     1      -6.711  11.312  68.033  1.00  0.00    -0.062 C  
HETATM   13  O   UNL     1      -5.783  10.661  68.504  1.00  0.00    -0.041 OA 
HETATM   14  N   UNL     1      -9.039  12.629  67.220  1.00  0.00    -0.184 NA 
HETATM   15  C   UNL     1      -7.288  12.402  68.840  1.00  0.00    -0.031 C  
HETATM   16  C   UNL     1      -8.399  12.985  68.387  1.00  0.00    -0.118 C  
ENDROOT
BRANCH  10  17
HETATM   17  O   UNL     1      -6.818  10.004  65.892  1.00  0.00    -0.095 OA 
BRANCH  17  18
HETATM   18  C   UNL     1      -7.099   8.685  66.348  1.00  0.00    -0.079 C  
BRANCH  18  19
HETATM   19  O   UNL     1      -5.890   7.930  66.420  1.00  0.00    -0.039 OA 
BRANCH  19  20
HETATM   20  C   UNL     1      -5.904   6.848  65.611  1.00  0.00    -0.035 C  
HETATM   21  O   UNL     1      -5.560   6.814  64.437  1.00  0.00    -0.030 OA 
BRANCH  20  22
HETATM   22  O   UNL     1      -6.326   5.783  66.340  1.00  0.00    -0.036 OA 
HETATM   23  C   UNL     1      -7.043   4.820  65.575  1.00  0.00    -0.064 C  
ENDBRANCH  20  22
ENDBRANCH  19  20
ENDBRANCH  18  19
ENDBRANCH  17  18
ENDBRANCH  10  17
BRANCH  11  24
HETATM   24  C   UNL     1     -11.436  12.387  68.007  1.00  0.00    -0.322 C  
HETATM   25  C   UNL     1     -11.185  10.919  68.510  1.00  0.00    -0.335 A  
HETATM   26  C   UNL     1     -10.142  10.112  68.025  1.00  0.00    -0.186 A  
HETATM   27  C   UNL     1      -9.819   8.817  68.443  1.00  0.00    -0.189 A  
HETATM   28  C   UNL     1     -10.603   8.232  69.392  1.00  0.00    -0.196 A  
HETATM   29  C   UNL     1     -11.697   8.927  69.867  1.00  0.00     0.339 A  
HETATM   30  F   UNL     1     -10.292   7.015  69.853  1.00  0.00    -0.193 F  
HETATM   31  F   UNL     1     -12.470   8.344  70.798  1.00  0.00    -0.218 F  
HETATM   32  C   UNL     1     -12.017  10.242  69.420  1.00  0.00    -0.054 A  
HETATM   33  C   UNL     1     -13.160  10.923  70.095  1.00  0.00     0.167 C  
HETATM   34  S   UNL     1     -12.426  11.924  71.399  1.00  0.00    -0.039 SA 
HETATM   35  C   UNL     1     -12.019  13.381  70.454  1.00  0.00    -0.285 A  
HETATM   36  C   UNL     1     -12.054  14.531  71.279  1.00  0.00    -0.419 A  
HETATM   37  C   UNL     1     -12.034  15.813  70.755  1.00  0.00    -0.444 A  
HETATM   38  C   UNL     1     -12.049  15.964  69.382  1.00  0.00    -0.183 A  
HETATM   39  C   UNL     1     -11.954  14.833  68.549  1.00  0.00    -0.284 A  
HETATM   40  C   UNL     1     -11.827  13.511  69.060  1.00  0.00    -0.385 A  
ENDBRANCH  11  24
TORSDOF 6
ENDMDL
MODEL       46
REMARK 921   NORMALIZED FREE ENERGY PREDICTED BY IDOCK:   -4.27 KCAL/MOL
REMARK 922        TOTAL FREE ENERGY PREDICTED BY IDOCK:   -6.50 KCAL/MOL
REMARK 923 INTER-LIGAND FREE ENERGY PREDICTED BY IDOCK:   -5.99 KCAL/MOL
REMARK 924 INTRA-LIGAND FREE ENERGY PREDICTED BY IDOCK:   -0.51 KCAL/MOL
REMARK 927      BINDING AFFINITY PREDICTED BY RF-SCORE:    0.00 PKD
ROOT
HETATM    1  C   UNL     1      -8.359  12.132  68.313  1.00  0.00    -0.172 C  
HETATM    2  C   UNL     1      -8.022  13.609  67.950  1.00  0.00    -0.161 C  
HETATM    3  O   UNL     1      -6.770  14.078  68.468  1.00  0.00    -0.085 OA 
HETATM    4  C   UNL     1      -5.726  13.176  68.109  1.00  0.00    -0.097 C  
HETATM    5  C   UNL     1      -5.899  11.859  68.854  1.00  0.00    -0.052 C  
HETATM    6  N   UNL     1      -7.275  11.364  68.891  1.00  0.00    -0.107 N  
HETATM    7  C   UNL     1      -7.549  10.137  69.493  1.00  0.00    -0.139 C  
HETATM    8  O   UNL     1      -6.745   9.609  70.257  1.00  0.00    -0.071 OA 
HETATM    9  C   UNL     1      -8.763   9.409  68.895  1.00  0.00    -0.132 C  
HETATM   10  C   UNL     1      -8.932   8.087  69.147  1.00  0.00    -0.145 C  
HETATM   11  N   UNL     1      -9.050  11.300  67.318  1.00  0.00    -0.154 NA 
HETATM   12  C   UNL     1     -10.061   7.390  68.425  1.00  0.00    -0.177 C  
HETATM   13  O   UNL     1     -10.252   6.179  68.492  1.00  0.00    -0.155 OA 
HETATM   14  N   UNL     1      -9.531  10.087  67.917  1.00  0.00    -0.144 NA 
HETATM   15  C   UNL     1     -10.979   8.204  67.607  1.00  0.00     0.066 C  
HETATM   16  C   UNL     1     -10.660   9.483  67.409  1.00  0.00    -0.271 C  
ENDROOT
BRANCH  10  17
HETATM   17  O   UNL     1      -8.014   7.359  69.878  1.00  0.00    -0.115 OA 
BRANCH  17  18
HETATM   18  C   UNL     1      -8.440   6.857  71.141  1.00  0.00    -0.123 C  
BRANCH  18  19
HETATM   19  O   UNL     1      -8.400   5.431  71.133  1.00  0.00    -0.119 OA 
BRANCH  19  20
HETATM   20  C   UNL     1      -8.978   4.888  72.228  1.00  0.00    -0.130 C  
HETATM   21  O   UNL     1      -8.764   3.774  72.685  1.00  0.00    -0.093 OA 
BRANCH  20  22
HETATM   22  O   UNL     1      -9.810   5.816  72.767  1.00  0.00    -0.159 OA 
HETATM   23  C   UNL     1     -11.158   5.373  72.876  1.00  0.00    -0.305 C  
ENDBRANCH  20  22
ENDBRANCH  19  20
ENDBRANCH  18  19
ENDBRANCH  17  18
ENDBRANCH  10  17
BRANCH  11  24
HETATM   24  C   UNL     1      -8.594  11.228  65.856  1.00  0.00    -0.096 C  
HETATM   25  C   UNL     1      -7.738   9.983  65.421  1.00  0.00    -0.137 A  
HETATM   26  C   UNL     1      -7.288   9.009  66.328  1.00  0.00    -0.091 A  
HETATM   27  C   UNL     1      -6.562   7.853  66.025  1.00  0.00    -0.049 A  
HETATM   28  C   UNL     1      -6.202   7.638  64.729  1.00  0.00    -0.038 A  
HETATM   29  C   UNL     1      -6.537   8.587  63.783  1.00  0.00    -0.076 A  
HETATM   30  F   UNL     1      -5.552   6.516  64.395  1.00  0.00    -0.026 F  
HETATM   31  F   UNL     1      -6.175   8.375  62.508  1.00  0.00    -0.084 F  
HETATM   32  C   UNL     1      -7.268   9.766  64.113  1.00  0.00    -0.129 A  
HETATM   33  C   UNL     1      -7.660  10.653  62.980  1.00  0.00     0.023 C  
HETATM   34  S   UNL     1      -9.335  10.161  62.537  1.00  0.00    -0.231 SA 
HETATM   35  C   UNL     1     -10.248  11.140  63.718  1.00  0.00    -0.377 A  
HETATM   36  C   UNL     1     -11.523  11.471  63.203  1.00  0.00    -0.039 A  
HETATM   37  C   UNL     1     -12.329  12.431  63.794  1.00  0.00    -0.625 A  
HETATM   38  C   UNL     1     -11.834  13.127  64.881  1.00  0.00    -0.399 A  
HETATM   39  C   UNL     1     -10.594  12.768  65.441  1.00  0.00    -0.309 A  
HETATM   40  C   UNL     1      -9.809  11.690  64.943  1.00  0.00    -0.267 A  
ENDBRANCH  11  24
TORSDOF 6
ENDMDL
MODEL       47
REMARK 921   NORMALIZED FREE ENERGY PREDICTED BY IDOCK:   -4.26 KCAL/MOL
REMARK 922        TOTAL FREE ENERGY PREDICTED BY IDOCK:   -6.49 KCAL/MOL
REMARK 923 INTER-LIGAND FREE ENERGY PREDICTED BY IDOCK:   -6.37 KCAL/MOL
REMARK 924 INTRA-LIGAND FREE ENERGY PREDICTED BY IDOCK:   -0.12 KCAL/MOL
REMARK 927      BINDING AFFINITY PREDICTED BY RF-SCORE:    0.00 PKD
ROOT
HETATM    1  C   UNL     1      -8.775   6.777  67.293  1.00  0.00    -0.119 C  
HETATM    2  C   UNL     1      -9.819   6.235  66.273  1.00  0.00    -0.009 C  
HETATM    3  O   UNL     1      -9.671   4.845  65.951  1.00  0.00    -0.164 OA 
HETATM    4  C   UNL     1      -9.622   4.071  67.147  1.00  0.00    -0.196 C  
HETATM    5  C   UNL     1      -8.330   4.358  67.901  1.00  0.00    -0.095 C  
HETATM    6  N   UNL     1      -7.973   5.775  67.964  1.00  0.00    -0.100 N  
HETATM    7  C   UNL     1      -6.842   6.168  68.679  1.00  0.00    -0.070 C  
HETATM    8  O   UNL     1      -5.973   5.357  68.990  1.00  0.00    -0.021 OA 
HETATM    9  C   UNL     1      -6.941   7.584  69.268  1.00  0.00    -0.068 C  
HETATM   10  C   UNL     1      -6.078   7.955  70.248  1.00  0.00    -0.032 C  
HETATM   11  N   UNL     1      -9.206   7.777  68.280  1.00  0.00    -0.140 NA 
HETATM   12  C   UNL     1      -6.305   9.304  70.887  1.00  0.00    -0.076 C  
HETATM   13  O   UNL     1      -5.657   9.707  71.848  1.00  0.00    -0.132 OA 
HETATM   14  N   UNL     1      -8.071   8.367  68.933  1.00  0.00    -0.112 NA 
HETATM   15  C   UNL     1      -7.351  10.179  70.325  1.00  0.00    -0.108 C  
HETATM   16  C   UNL     1      -8.155   9.662  69.395  1.00  0.00    -0.118 C  
ENDROOT
BRANCH  10  17
HETATM   17  O   UNL     1      -5.150   7.078  70.774  1.00  0.00    -0.022 OA 
BRANCH  17  18
HETATM   18  C   UNL     1      -5.196   6.849  72.178  1.00  0.00    -0.036 C  
BRANCH  18  19
HETATM   19  O   UNL     1      -6.355   6.083  72.506  1.00  0.00    -0.051 OA 
BRANCH  19  20
HETATM   20  C   UNL     1      -6.614   6.074  73.832  1.00  0.00    -0.075 C  
HETATM   21  O   UNL     1      -6.723   5.085  74.544  1.00  0.00    -0.068 OA 
BRANCH  20  22
HETATM   22  O   UNL     1      -6.692   7.363  74.254  1.00  0.00    -0.086 OA 
HETATM   23  C   UNL     1      -8.024   7.855  74.332  1.00  0.00    -0.234 C  
ENDBRANCH  20  22
ENDBRANCH  19  20
ENDBRANCH  18  19
ENDBRANCH  17  18
ENDBRANCH  10  17
BRANCH  11  24
HETATM   24  C   UNL     1     -10.482   7.607  69.111  1.00  0.00    -0.214 C  
HETATM   25  C   UNL     1     -10.423   6.636  70.347  1.00  0.00    -0.249 A  
HETATM   26  C   UNL     1      -9.299   5.849  70.648  1.00  0.00    -0.181 A  
HETATM   27  C   UNL     1      -9.142   4.995  71.744  1.00  0.00    -0.160 A  
HETATM   28  C   UNL     1     -10.185   4.859  72.610  1.00  0.00    -0.188 A  
HETATM   29  C   UNL     1     -11.358   5.538  72.345  1.00  0.00    -0.234 A  
HETATM   30  F   UNL     1     -10.051   4.090  73.698  1.00  0.00    -0.137 F  
HETATM   31  F   UNL     1     -12.385   5.396  73.197  1.00  0.00    -0.179 F  
HETATM   32  C   UNL     1     -11.503   6.396  71.216  1.00  0.00    -0.371 A  
HETATM   33  C   UNL     1     -12.782   7.155  71.108  1.00  0.00    -0.315 C  
HETATM   34  S   UNL     1     -12.453   8.764  71.846  1.00  0.00    -0.400 SA 
HETATM   35  C   UNL     1     -11.752   9.596  70.431  1.00  0.00    -0.202 A  
HETATM   36  C   UNL     1     -12.010  10.986  70.498  1.00  0.00    -0.474 A  
HETATM   37  C   UNL     1     -11.809  11.825  69.414  1.00  0.00    -0.398 A  
HETATM   38  C   UNL     1     -11.408  11.267  68.215  1.00  0.00    -0.359 A  
HETATM   39  C   UNL     1     -11.090   9.897  68.149  1.00  0.00    -0.215 A  
HETATM   40  C   UNL     1     -11.148   9.039  69.282  1.00  0.00     0.037 A  
ENDBRANCH  11  24
TORSDOF 6
ENDMDL
MODEL       48
REMARK 921   NORMALIZED FREE ENERGY PREDICTED BY IDOCK:   -4.24 KCAL/MOL
REMARK 922        TOTAL FREE ENERGY PREDICTED BY IDOCK:   -6.47 KCAL/MOL
REMARK 923 INTER-LIGAND FREE ENERGY PREDICTED BY IDOCK:   -5.92 KCAL/MOL
REMARK 924 INTRA-LIGAND FREE ENERGY PREDICTED BY IDOCK:   -0.54 KCAL/MOL
REMARK 927      BINDING AFFINITY PREDICTED BY RF-SCORE:    0.00 PKD
ROOT
HETATM    1  C   UNL     1     -11.626  10.463  68.623  1.00  0.00    -0.101 C  
HETATM    2  C   UNL     1     -11.647  11.923  68.080  1.00  0.00    -0.334 C  
HETATM    3  O   UNL     1     -12.328  12.862  68.925  1.00  0.00    -0.093 OA 
HETATM    4  C   UNL     1     -11.818  12.780  70.254  1.00  0.00    -0.212 C  
HETATM    5  C   UNL     1     -12.213  11.449  70.881  1.00  0.00    -0.344 C  
HETATM    6  N   UNL     1     -12.057  10.296  69.995  1.00  0.00    -0.201 N  
HETATM    7  C   UNL     1     -12.330   9.016  70.477  1.00  0.00     0.203 C  
HETATM    8  O   UNL     1     -12.985   8.849  71.502  1.00  0.00    -0.329 OA 
HETATM    9  C   UNL     1     -11.511   7.909  69.795  1.00  0.00     0.231 C  
HETATM   10  C   UNL     1     -11.427   6.690  70.385  1.00  0.00    -0.386 C  
HETATM   11  N   UNL     1     -10.424   9.646  68.401  1.00  0.00    -0.214 NA 
HETATM   12  C   UNL     1     -10.501   5.682  69.748  1.00  0.00    -0.306 C  
HETATM   13  O   UNL     1     -10.263   4.583  70.244  1.00  0.00    -0.219 OA 
HETATM   14  N   UNL     1     -10.687   8.267  68.702  1.00  0.00    -0.096 NA 
HETATM   15  C   UNL     1      -9.856   6.031  68.469  1.00  0.00    -0.156 C  
HETATM   16  C   UNL     1      -9.990   7.284  68.033  1.00  0.00    -0.157 C  
ENDROOT
BRANCH  10  17
HETATM   17  O   UNL     1     -12.009   6.429  71.611  1.00  0.00    -0.323 OA 
BRANCH  17  18
HETATM   18  C   UNL     1     -11.135   6.132  72.695  1.00  0.00    -0.272 C  
BRANCH  18  19
HETATM   19  O   UNL     1     -11.546   4.921  73.329  1.00  0.00    -0.336 OA 
BRANCH  19  20
HETATM   20  C   UNL     1     -10.558   4.000  73.381  1.00  0.00    -0.195 C  
HETATM   21  O   UNL     1     -10.658   2.812  73.109  1.00  0.00    -0.147 OA 
BRANCH  20  22
HETATM   22  O   UNL     1      -9.413   4.632  73.748  1.00  0.00    -0.123 OA 
HETATM   23  C   UNL     1      -8.237   4.019  73.233  1.00  0.00    -0.089 C  
ENDBRANCH  20  22
ENDBRANCH  19  20
ENDBRANCH  18  19
ENDBRANCH  17  18
ENDBRANCH  10  17
BRANCH  11  24
HETATM   24  C   UNL     1      -9.014  10.171  68.693  1.00  0.00    -0.136 C  
HETATM   25  C   UNL     1      -8.327   9.708  70.030  1.00  0.00    -0.197 A  
HETATM   26  C   UNL     1      -8.985   8.935  71.001  1.00  0.00    -0.298 A  
HETATM   27  C   UNL     1      -8.442   8.444  72.192  1.00  0.00    -0.245 A  
HETATM   28  C   UNL     1      -7.152   8.764  72.492  1.00  0.00     0.109 A  
HETATM   29  C   UNL     1      -6.455   9.586  71.628  1.00  0.00     0.173 A  
HETATM   30  F   UNL     1      -6.583   8.268  73.598  1.00  0.00    -0.104 F  
HETATM   31  F   UNL     1      -5.186   9.903  71.930  1.00  0.00    -0.066 F  
HETATM   32  C   UNL     1      -7.030  10.086  70.423  1.00  0.00    -0.137 A  
HETATM   33  C   UNL     1      -6.134  10.872  69.526  1.00  0.00    -0.061 C  
HETATM   34  S   UNL     1      -5.502   9.692  68.320  1.00  0.00    -0.036 SA 
HETATM   35  C   UNL     1      -6.842   9.733  67.143  1.00  0.00    -0.083 A  
HETATM   36  C   UNL     1      -6.363   9.454  65.841  1.00  0.00    -0.068 A  
HETATM   37  C   UNL     1      -7.134   9.674  64.711  1.00  0.00    -0.115 A  
HETATM   38  C   UNL     1      -8.382  10.247  64.866  1.00  0.00    -0.173 A  
HETATM   39  C   UNL     1      -8.895  10.475  66.157  1.00  0.00    -0.172 A  
HETATM   40  C   UNL     1      -8.185  10.124  67.339  1.00  0.00    -0.114 A  
ENDBRANCH  11  24
TORSDOF 6
ENDMDL
MODEL       49
REMARK 921   NORMALIZED FREE ENERGY PREDICTED BY IDOCK:   -4.23 KCAL/MOL
REMARK 922        TOTAL FREE ENERGY PREDICTED BY IDOCK:   -6.46 KCAL/MOL
REMARK 923 INTER-LIGAND FREE ENERGY PREDICTED BY IDOCK:   -6.69 KCAL/MOL
REMARK 924 INTRA-LIGAND FREE ENERGY PREDICTED BY IDOCK:    0.23 KCAL/MOL
REMARK 927      BINDING AFFINITY PREDICTED BY RF-SCORE:    0.00 PKD
ROOT
HETATM    1  C   UNL     1      -9.860   9.825  65.070  1.00  0.00    -0.173 C  
HETATM    2  C   UNL     1      -8.966   9.100  64.020  1.00  0.00     0.017 C  
HETATM    3  O   UNL     1      -8.955   9.714  62.724  1.00  0.00    -0.238 OA 
HETATM    4  C   UNL     1      -8.642  11.100  62.845  1.00  0.00    -0.075 C  
HETATM    5  C   UNL     1      -9.788  11.834  63.529  1.00  0.00    -0.365 C  
HETATM    6  N   UNL     1     -10.345  11.134  64.687  1.00  0.00    -0.309 N  
HETATM    7  C   UNL     1     -11.359  11.735  65.432  1.00  0.00    -0.222 C  
HETATM    8  O   UNL     1     -12.009  12.673  64.979  1.00  0.00    -0.372 OA 
HETATM    9  C   UNL     1     -11.369  11.323  66.912  1.00  0.00    -0.155 C  
HETATM   10  C   UNL     1     -12.068  12.071  67.803  1.00  0.00     0.101 C  
HETATM   11  N   UNL     1      -9.405   9.879  66.467  1.00  0.00    -0.158 NA 
HETATM   12  C   UNL     1     -11.934  11.704  69.261  1.00  0.00    -0.317 C  
HETATM   13  O   UNL     1     -12.434  12.366  70.167  1.00  0.00    -0.153 OA 
HETATM   14  N   UNL     1     -10.466  10.316  67.330  1.00  0.00    -0.236 NA 
HETATM   15  C   UNL     1     -11.172  10.492  69.613  1.00  0.00    -0.342 C  
HETATM   16  C   UNL     1     -10.497   9.883  68.637  1.00  0.00    -0.206 C  
ENDROOT
BRANCH  10  17
HETATM   17  O   UNL     1     -12.724  13.228  67.429  1.00  0.00     0.168 OA 
BRANCH  17  18
HETATM   18  C   UNL     1     -12.034  14.458  67.625  1.00  0.00    -0.343 C  
BRANCH  18  19
HETATM   19  O   UNL     1     -11.448  14.483  68.926  1.00  0.00    -0.267 OA 
BRANCH  19  20
HETATM   20  C   UNL     1     -10.914  15.686  69.233  1.00  0.00    -0.267 C  
HETATM   21  O   UNL     1     -10.115  15.918  70.130  1.00  0.00    -0.220 OA 
BRANCH  20  22
HETATM   22  O   UNL     1     -11.386  16.595  68.341  1.00  0.00    -0.321 OA 
HETATM   23  C   UNL     1     -10.369  17.413  67.775  1.00  0.00    -0.358 C  
ENDBRANCH  20  22
ENDBRANCH  19  20
ENDBRANCH  18  19
ENDBRANCH  17  18
ENDBRANCH  10  17
BRANCH  11  24
HETATM   24  C   UNL     1      -7.978  10.292  66.846  1.00  0.00    -0.112 C  
HETATM   25  C   UNL     1      -7.722  11.809  67.173  1.00  0.00    -0.162 A  
HETATM   26  C   UNL     1      -8.707  12.800  67.028  1.00  0.00    -0.197 A  
HETATM   27  C   UNL     1      -8.582  14.158  67.335  1.00  0.00    -0.219 A  
HETATM   28  C   UNL     1      -7.378  14.609  67.788  1.00  0.00    -0.173 A  
HETATM   29  C   UNL     1      -6.331  13.714  67.887  1.00  0.00    -0.156 A  
HETATM   30  F   UNL     1      -7.238  15.892  68.142  1.00  0.00    -0.117 F  
HETATM   31  F   UNL     1      -5.146  14.163  68.328  1.00  0.00    -0.084 F  
HETATM   32  C   UNL     1      -6.475  12.335  67.558  1.00  0.00    -0.137 A  
HETATM   33  C   UNL     1      -5.297  11.455  67.815  1.00  0.00    -0.046 C  
HETATM   34  S   UNL     1      -5.577  10.735  69.441  1.00  0.00    -0.038 SA 
HETATM   35  C   UNL     1      -6.603   9.352  68.975  1.00  0.00    -0.046 A  
HETATM   36  C   UNL     1      -6.429   8.281  69.885  1.00  0.00    -0.039 A  
HETATM   37  C   UNL     1      -6.901   7.006  69.617  1.00  0.00    -0.050 A  
HETATM   38  C   UNL     1      -7.498   6.767  68.394  1.00  0.00    -0.095 A  
HETATM   39  C   UNL     1      -7.731   7.834  67.505  1.00  0.00    -0.117 A  
HETATM   40  C   UNL     1      -7.388   9.180  67.814  1.00  0.00    -0.084 A  
ENDBRANCH  11  24
TORSDOF 6
ENDMDL
MODEL       50
REMARK 921   NORMALIZED FREE ENERGY PREDICTED BY IDOCK:   -4.20 KCAL/MOL
REMARK 922        TOTAL FREE ENERGY PREDICTED BY IDOCK:   -6.41 KCAL/MOL
REMARK 923 INTER-LIGAND FREE ENERGY PREDICTED BY IDOCK:   -8.86 KCAL/MOL
REMARK 924 INTRA-LIGAND FREE ENERGY PREDICTED BY IDOCK:    2.45 KCAL/MOL
REMARK 927      BINDING AFFINITY PREDICTED BY RF-SCORE:    0.00 PKD
ROOT
HETATM    1  C   UNL     1     -11.560  12.155  66.556  1.00  0.00    -0.359 C  
HETATM    2  C   UNL     1     -11.285  10.972  65.581  1.00  0.00     0.169 C  
HETATM    3  O   UNL     1     -10.740  11.361  64.313  1.00  0.00    -0.323 OA 
HETATM    4  C   UNL     1      -9.595  12.186  64.507  1.00  0.00     0.075 C  
HETATM    5  C   UNL     1     -10.014  13.528  65.093  1.00  0.00    -0.176 C  
HETATM    6  N   UNL     1     -11.004  13.434  66.166  1.00  0.00    -0.276 N  
HETATM    7  C   UNL     1     -11.420  14.592  66.821  1.00  0.00    -0.367 C  
HETATM    8  O   UNL     1     -11.228  15.703  66.333  1.00  0.00    -0.201 OA 
HETATM    9  C   UNL     1     -11.847  14.360  68.279  1.00  0.00    -0.326 C  
HETATM   10  C   UNL     1     -11.946  15.424  69.117  1.00  0.00    -0.299 C  
HETATM   11  N   UNL     1     -11.323  11.955  67.994  1.00  0.00    -0.264 NA 
HETATM   12  C   UNL     1     -12.234  15.129  70.569  1.00  0.00    -0.341 C  
HETATM   13  O   UNL     1     -12.247  15.995  71.439  1.00  0.00    -0.432 OA 
HETATM   14  N   UNL     1     -11.895  13.029  68.756  1.00  0.00    -0.318 NA 
HETATM   15  C   UNL     1     -12.518  13.735  70.959  1.00  0.00    -0.458 C  
HETATM   16  C   UNL     1     -12.334  12.787  70.040  1.00  0.00    -0.112 C  
ENDROOT
BRANCH  10  17
HETATM   17  O   UNL     1     -11.619  16.704  68.714  1.00  0.00    -0.178 OA 
BRANCH  17  18
HETATM   18  C   UNL     1     -10.430  17.271  69.253  1.00  0.00    -0.220 C  
BRANCH  18  19
HETATM   19  O   UNL     1      -9.603  17.757  68.196  1.00  0.00    -0.281 OA 
BRANCH  19  20
HETATM   20  C   UNL     1      -9.186  19.026  68.403  1.00  0.00    -0.352 C  
HETATM   21  O   UNL     1      -8.071  19.374  68.763  1.00  0.00    -0.359 OA 
BRANCH  20  22
HETATM   22  O   UNL     1     -10.213  19.861  68.098  1.00  0.00    -0.425 OA 
HETATM   23  C   UNL     1     -10.533  19.882  66.712  1.00  0.00    -0.451 C  
ENDBRANCH  20  22
ENDBRANCH  19  20
ENDBRANCH  18  19
ENDBRANCH  17  18
ENDBRANCH  10  17
BRANCH  11  24
HETATM   24  C   UNL     1     -10.031  11.326  68.528  1.00  0.00    -0.202 C  
HETATM   25  C   UNL     1      -9.789   9.800  68.236  1.00  0.00    -0.167 A  
HETATM   26  C   UNL     1     -10.743   8.979  67.613  1.00  0.00    -0.232 A  
HETATM   27  C   UNL     1     -10.598   7.630  67.276  1.00  0.00    -0.388 A  
HETATM   28  C   UNL     1      -9.435   7.004  67.610  1.00  0.00    -0.121 A  
HETATM   29  C   UNL     1      -8.472   7.718  68.296  1.00  0.00    -0.124 A  
HETATM   30  F   UNL     1      -9.241   5.727  67.257  1.00  0.00    -0.114 F  
HETATM   31  F   UNL     1      -7.330   7.096  68.628  1.00  0.00    -0.084 F  
HETATM   32  C   UNL     1      -8.643   9.090  68.640  1.00  0.00    -0.129 A  
HETATM   33  C   UNL     1      -7.482   9.773  69.282  1.00  0.00    -0.090 C  
HETATM   34  S   UNL     1      -6.595  10.583  67.941  1.00  0.00    -0.061 SA 
HETATM   35  C   UNL     1      -7.531  12.100  67.847  1.00  0.00    -0.117 A  
HETATM   36  C   UNL     1      -6.711  13.158  67.387  1.00  0.00    -0.107 A  
HETATM   37  C   UNL     1      -7.107  14.483  67.467  1.00  0.00    -0.199 A  
HETATM   38  C   UNL     1      -8.311  14.775  68.078  1.00  0.00    -0.143 A  
HETATM   39  C   UNL     1      -9.164  13.732  68.486  1.00  0.00    -0.138 A  
HETATM   40  C   UNL     1      -8.849  12.359  68.285  1.00  0.00    -0.174 A  
ENDBRANCH  11  24
TORSDOF 6
ENDMDL
MODEL       51
REMARK 921   NORMALIZED FREE ENERGY PREDICTED BY IDOCK:   -4.10 KCAL/MOL
REMARK 922        TOTAL FREE ENERGY PREDICTED BY IDOCK:   -6.28 KCAL/MOL
REMARK 923 INTER-LIGAND FREE ENERGY PREDICTED BY IDOCK:   -8.52 KCAL/MOL
REMARK 924 INTRA-LIGAND FREE ENERGY PREDICTED BY IDOCK:    2.24 KCAL/MOL
REMARK 927      BINDING AFFINITY PREDICTED BY RF-SCORE:    0.00 PKD
ROOT
HETATM    1  C   UNL     1     -10.403   7.819  68.160  1.00  0.00    -0.200 C  
HETATM    2  C   UNL     1      -9.894   6.401  67.763  1.00  0.00    -0.123 C  
HETATM    3  O   UNL     1      -9.046   6.376  66.606  1.00  0.00    -0.136 OA 
HETATM    4  C   UNL     1      -7.984   7.315  66.761  1.00  0.00    -0.118 C  
HETATM    5  C   UNL     1      -8.534   8.734  66.715  1.00  0.00    -0.111 C  
HETATM    6  N   UNL     1      -9.763   8.929  67.485  1.00  0.00    -0.162 N  
HETATM    7  C   UNL     1     -10.329  10.200  67.568  1.00  0.00    -0.230 C  
HETATM    8  O   UNL     1     -10.017  11.088  66.778  1.00  0.00    -0.192 OA 
HETATM    9  C   UNL     1     -11.110  10.448  68.869  1.00  0.00    -0.247 C  
HETATM   10  C   UNL     1     -11.415  11.722  69.225  1.00  0.00    -0.306 C  
HETATM   11  N   UNL     1     -10.536   8.146  69.587  1.00  0.00    -0.228 NA 
HETATM   12  C   UNL     1     -12.060  11.920  70.576  1.00  0.00    -0.331 C  
HETATM   13  O   UNL     1     -12.290  13.028  71.052  1.00  0.00    -0.355 OA 
HETATM   14  N   UNL     1     -11.280   9.363  69.761  1.00  0.00    -0.170 NA 
HETATM   15  C   UNL     1     -12.436  10.726  71.356  1.00  0.00    -0.478 C  
HETATM   16  C   UNL     1     -12.029   9.540  70.904  1.00  0.00    -0.295 C  
ENDROOT
BRANCH  10  17
HETATM   17  O   UNL     1     -10.994  12.808  68.484  1.00  0.00    -0.237 OA 
BRANCH  17  18
HETATM   18  C   UNL     1     -12.002  13.635  67.912  1.00  0.00    -0.347 C  
BRANCH  18  19
HETATM   19  O   UNL     1     -11.529  14.198  66.688  1.00  0.00    -0.337 OA 
BRANCH  19  20
HETATM   20  C   UNL     1     -12.285  13.842  65.626  1.00  0.00    -0.454 C  
HETATM   21  O   UNL     1     -13.489  14.021  65.499  1.00  0.00    -0.677 OA 
BRANCH  20  22
HETATM   22  O   UNL     1     -11.467  13.287  64.695  1.00  0.00    -0.318 OA 
HETATM   23  C   UNL     1     -12.165  12.585  63.673  1.00  0.00    -0.550 C  
ENDBRANCH  20  22
ENDBRANCH  19  20
ENDBRANCH  18  19
ENDBRANCH  17  18
ENDBRANCH  10  17
BRANCH  11  24
HETATM   24  C   UNL     1      -9.423   7.855  70.600  1.00  0.00    -0.162 C  
HETATM   25  C   UNL     1      -9.181   6.355  71.004  1.00  0.00    -0.157 A  
HETATM   26  C   UNL     1     -10.002   5.302  70.568  1.00  0.00    -0.299 A  
HETATM   27  C   UNL     1      -9.837   3.941  70.841  1.00  0.00    -0.213 A  
HETATM   28  C   UNL     1      -8.804   3.565  71.646  1.00  0.00    -0.095 A  
HETATM   29  C   UNL     1      -7.992   4.545  72.182  1.00  0.00    -0.100 A  
HETATM   30  F   UNL     1      -8.585   2.267  71.885  1.00  0.00    -0.058 F  
HETATM   31  F   UNL     1      -6.979   4.171  72.979  1.00  0.00    -0.051 F  
HETATM   32  C   UNL     1      -8.183   5.930  71.901  1.00  0.00    -0.115 A  
HETATM   33  C   UNL     1      -7.170   6.875  72.455  1.00  0.00    -0.078 C  
HETATM   34  S   UNL     1      -5.974   7.131  71.133  1.00  0.00    -0.036 SA 
HETATM   35  C   UNL     1      -6.806   8.430  70.236  1.00  0.00    -0.036 A  
HETATM   36  C   UNL     1      -5.863   9.261  69.584  1.00  0.00    -0.033 A  
HETATM   37  C   UNL     1      -6.215  10.484  69.038  1.00  0.00    -0.044 A  
HETATM   38  C   UNL     1      -7.514  10.928  69.198  1.00  0.00    -0.130 A  
HETATM   39  C   UNL     1      -8.476  10.089  69.791  1.00  0.00    -0.189 A  
HETATM   40  C   UNL     1      -8.177   8.769  70.231  1.00  0.00    -0.120 A  
ENDBRANCH  11  24
TORSDOF 6
ENDMDL
MODEL       52
REMARK 921   NORMALIZED FREE ENERGY PREDICTED BY IDOCK:   -4.08 KCAL/MOL
REMARK 922        TOTAL FREE ENERGY PREDICTED BY IDOCK:   -6.25 KCAL/MOL
REMARK 923 INTER-LIGAND FREE ENERGY PREDICTED BY IDOCK:   -5.65 KCAL/MOL
REMARK 924 INTRA-LIGAND FREE ENERGY PREDICTED BY IDOCK:   -0.60 KCAL/MOL
REMARK 927      BINDING AFFINITY PREDICTED BY RF-SCORE:    0.00 PKD
ROOT
HETATM    1  C   UNL     1      -6.519   7.328  70.829  1.00  0.00    -0.043 C  
HETATM    2  C   UNL     1      -5.368   7.028  71.834  1.00  0.00    -0.036 C  
HETATM    3  O   UNL     1      -5.257   7.970  72.910  1.00  0.00    -0.036 OA 
HETATM    4  C   UNL     1      -6.520   8.123  73.554  1.00  0.00    -0.108 C  
HETATM    5  C   UNL     1      -7.498   8.825  72.622  1.00  0.00     0.179 C  
HETATM    6  N   UNL     1      -7.465   8.342  71.241  1.00  0.00    -0.080 N  
HETATM    7  C   UNL     1      -8.358   8.868  70.308  1.00  0.00    -0.147 C  
HETATM    8  O   UNL     1      -8.948   9.925  70.517  1.00  0.00    -0.103 OA 
HETATM    9  C   UNL     1      -8.734   7.885  69.187  1.00  0.00    -0.138 C  
HETATM   10  C   UNL     1      -9.827   8.140  68.424  1.00  0.00    -0.171 C  
HETATM   11  N   UNL     1      -7.258   6.199  70.245  1.00  0.00    -0.081 NA 
HETATM   12  C   UNL     1     -10.232   7.076  67.431  1.00  0.00    -0.215 C  
HETATM   13  O   UNL     1     -11.256   7.145  66.757  1.00  0.00    -0.158 OA 
HETATM   14  N   UNL     1      -8.067   6.638  69.144  1.00  0.00    -0.115 NA 
HETATM   15  C   UNL     1      -9.353   5.905  67.259  1.00  0.00    -0.113 C  
HETATM   16  C   UNL     1      -8.339   5.763  68.114  1.00  0.00    -0.107 C  
ENDROOT
BRANCH  10  17
HETATM   17  O   UNL     1     -10.647   9.226  68.660  1.00  0.00    -0.215 OA 
BRANCH  17  18
HETATM   18  C   UNL     1     -10.763  10.191  67.619  1.00  0.00    -0.285 C  
BRANCH  18  19
HETATM   19  O   UNL     1     -12.021  10.857  67.715  1.00  0.00    -0.553 OA 
BRANCH  19  20
HETATM   20  C   UNL     1     -11.899  12.144  68.112  1.00  0.00    -0.299 C  
HETATM   21  O   UNL     1     -11.592  12.533  69.230  1.00  0.00    -0.284 OA 
BRANCH  20  22
HETATM   22  O   UNL     1     -12.135  12.939  67.036  1.00  0.00    -0.376 OA 
HETATM   23  C   UNL     1     -12.061  14.328  67.331  1.00  0.00    -0.336 C  
ENDBRANCH  20  22
ENDBRANCH  19  20
ENDBRANCH  18  19
ENDBRANCH  17  18
ENDBRANCH  10  17
BRANCH  11  24
HETATM   24  C   UNL     1      -7.804   5.051  71.102  1.00  0.00    -0.093 C  
HETATM   25  C   UNL     1      -9.274   5.181  71.644  1.00  0.00    -0.174 A  
HETATM   26  C   UNL     1     -10.054   6.336  71.470  1.00  0.00    -0.218 A  
HETATM   27  C   UNL     1     -11.378   6.524  71.878  1.00  0.00    -0.327 A  
HETATM   28  C   UNL     1     -11.994   5.513  72.553  1.00  0.00    -0.016 A  
HETATM   29  C   UNL     1     -11.273   4.370  72.835  1.00  0.00    -0.066 A  
HETATM   30  F   UNL     1     -13.278   5.638  72.912  1.00  0.00     0.021 F  
HETATM   31  F   UNL     1     -11.882   3.379  73.506  1.00  0.00    -0.292 F  
HETATM   32  C   UNL     1      -9.920   4.202  72.421  1.00  0.00    -0.229 A  
HETATM   33  C   UNL     1      -9.292   2.876  72.693  1.00  0.00    -0.101 C  
HETATM   34  S   UNL     1      -9.505   1.920  71.182  1.00  0.00    -0.138 SA 
HETATM   35  C   UNL     1      -8.080   2.492  70.273  1.00  0.00    -0.041 A  
HETATM   36  C   UNL     1      -7.624   1.486  69.388  1.00  0.00    -0.042 A  
HETATM   37  C   UNL     1      -6.393   1.564  68.758  1.00  0.00    -0.025 A  
HETATM   38  C   UNL     1      -5.564   2.627  69.061  1.00  0.00    -0.021 A  
HETATM   39  C   UNL     1      -6.027   3.665  69.892  1.00  0.00    -0.022 A  
HETATM   40  C   UNL     1      -7.341   3.684  70.438  1.00  0.00    -0.041 A  
ENDBRANCH  11  24
TORSDOF 6
ENDMDL
MODEL       53
REMARK 921   NORMALIZED FREE ENERGY PREDICTED BY IDOCK:   -4.08 KCAL/MOL
REMARK 922        TOTAL FREE ENERGY PREDICTED BY IDOCK:   -6.25 KCAL/MOL
REMARK 923 INTER-LIGAND FREE ENERGY PREDICTED BY IDOCK:   -5.57 KCAL/MOL
REMARK 924 INTRA-LIGAND FREE ENERGY PREDICTED BY IDOCK:   -0.67 KCAL/MOL
REMARK 927      BINDING AFFINITY PREDICTED BY RF-SCORE:    0.00 PKD
ROOT
HETATM    1  C   UNL     1      -5.782  10.680  69.436  1.00  0.00    -0.038 C  
HETATM    2  C   UNL     1      -5.154  11.342  70.698  1.00  0.00    -0.103 C  
HETATM    3  O   UNL     1      -5.260  12.772  70.736  1.00  0.00    -0.117 OA 
HETATM    4  C   UNL     1      -6.615  13.164  70.530  1.00  0.00     0.694 C  
HETATM    5  C   UNL     1      -7.033  12.856  69.098  1.00  0.00    -0.015 C  
HETATM    6  N   UNL     1      -6.598  11.547  68.612  1.00  0.00    -0.060 N  
HETATM    7  C   UNL     1      -6.973  11.127  67.336  1.00  0.00    -0.093 C  
HETATM    8  O   UNL     1      -7.383  11.927  66.499  1.00  0.00     0.004 OA 
HETATM    9  C   UNL     1      -7.101   9.602  67.197  1.00  0.00    -0.086 C  
HETATM   10  C   UNL     1      -7.773   9.089  66.136  1.00  0.00    -0.099 C  
HETATM   11  N   UNL     1      -6.464   9.386  69.583  1.00  0.00    -0.039 NA 
HETATM   12  C   UNL     1      -7.989   7.594  66.118  1.00  0.00    -0.110 C  
HETATM   13  O   UNL     1      -8.666   7.025  65.267  1.00  0.00    -0.054 OA 
HETATM   14  N   UNL     1      -6.718   8.799  68.298  1.00  0.00    -0.064 NA 
HETATM   15  C   UNL     1      -7.351   6.781  67.171  1.00  0.00    -0.086 C  
HETATM   16  C   UNL     1      -6.764   7.427  68.179  1.00  0.00    -0.055 C  
ENDROOT
BRANCH  10  17
HETATM   17  O   UNL     1      -8.395   9.897  65.204  1.00  0.00    -0.134 OA 
BRANCH  17  18
HETATM   18  C   UNL     1      -9.816   9.969  65.253  1.00  0.00    -0.318 C  
BRANCH  18  19
HETATM   19  O   UNL     1     -10.232  11.334  65.266  1.00  0.00    -0.249 OA 
BRANCH  19  20
HETATM   20  C   UNL     1     -10.663  11.758  64.058  1.00  0.00    -0.378 C  
HETATM   21  O   UNL     1      -9.963  12.056  63.100  1.00  0.00    -0.407 OA 
BRANCH  20  22
HETATM   22  O   UNL     1     -12.021  11.755  64.071  1.00  0.00    -0.348 OA 
HETATM   23  C   UNL     1     -12.581  12.670  65.006  1.00  0.00    -0.430 C  
ENDBRANCH  20  22
ENDBRANCH  19  20
ENDBRANCH  18  19
ENDBRANCH  17  18
ENDBRANCH  10  17
BRANCH  11  24
HETATM   24  C   UNL     1      -7.493   9.127  70.689  1.00  0.00    -0.124 C  
HETATM   25  C   UNL     1      -8.989   9.511  70.395  1.00  0.00    -0.291 A  
HETATM   26  C   UNL     1      -9.394  10.173  69.224  1.00  0.00    -0.227 A  
HETATM   27  C   UNL     1     -10.701  10.514  68.862  1.00  0.00    -0.253 A  
HETATM   28  C   UNL     1     -11.708  10.223  69.733  1.00  0.00    -0.191 A  
HETATM   29  C   UNL     1     -11.388   9.642  70.944  1.00  0.00    -0.360 A  
HETATM   30  F   UNL     1     -12.976  10.488  69.396  1.00  0.00    -0.097 F  
HETATM   31  F   UNL     1     -12.383   9.363  71.801  1.00  0.00    -0.372 F  
HETATM   32  C   UNL     1     -10.048   9.312  71.300  1.00  0.00    -0.361 A  
HETATM   33  C   UNL     1      -9.854   8.588  72.590  1.00  0.00    -0.211 C  
HETATM   34  S   UNL     1      -9.797   6.840  72.159  1.00  0.00    -0.146 SA 
HETATM   35  C   UNL     1      -8.070   6.700  71.734  1.00  0.00    -0.103 A  
HETATM   36  C   UNL     1      -7.601   5.391  71.997  1.00  0.00    -0.099 A  
HETATM   37  C   UNL     1      -6.251   5.081  72.004  1.00  0.00    -0.030 A  
HETATM   38  C   UNL     1      -5.340   6.102  71.814  1.00  0.00    -0.022 A  
HETATM   39  C   UNL     1      -5.790   7.396  71.492  1.00  0.00    -0.036 A  
HETATM   40  C   UNL     1      -7.169   7.713  71.335  1.00  0.00    -0.066 A  
ENDBRANCH  11  24
TORSDOF 6
ENDMDL
MODEL       54
REMARK 921   NORMALIZED FREE ENERGY PREDICTED BY IDOCK:   -4.05 KCAL/MOL
REMARK 922        TOTAL FREE ENERGY PREDICTED BY IDOCK:   -6.21 KCAL/MOL
REMARK 923 INTER-LIGAND FREE ENERGY PREDICTED BY IDOCK:   -8.52 KCAL/MOL
REMARK 924 INTRA-LIGAND FREE ENERGY PREDICTED BY IDOCK:    2.31 KCAL/MOL
REMARK 927      BINDING AFFINITY PREDICTED BY RF-SCORE:    0.00 PKD
ROOT
HETATM    1  C   UNL     1      -9.869  13.667  65.418  1.00  0.00    -0.126 C  
HETATM    2  C   UNL     1     -10.664  14.903  64.903  1.00  0.00    -0.405 C  
HETATM    3  O   UNL     1     -12.028  14.630  64.553  1.00  0.00    -0.444 OA 
HETATM    4  C   UNL     1     -12.684  13.970  65.632  1.00  0.00    -0.481 C  
HETATM    5  C   UNL     1     -12.118  12.566  65.805  1.00  0.00    -0.378 C  
HETATM    6  N   UNL     1     -10.660  12.490  65.716  1.00  0.00    -0.264 N  
HETATM    7  C   UNL     1     -10.021  11.268  65.917  1.00  0.00    -0.234 C  
HETATM    8  O   UNL     1     -10.641  10.209  65.858  1.00  0.00    -0.117 OA 
HETATM    9  C   UNL     1      -8.602  11.396  66.492  1.00  0.00    -0.175 C  
HETATM   10  C   UNL     1      -8.010  10.307  67.044  1.00  0.00    -0.111 C  
HETATM   11  N   UNL     1      -8.884  13.859  66.492  1.00  0.00    -0.078 NA 
HETATM   12  C   UNL     1      -6.675  10.518  67.717  1.00  0.00    -0.069 C  
HETATM   13  O   UNL     1      -6.090   9.635  68.337  1.00  0.00    -0.043 OA 
HETATM   14  N   UNL     1      -8.056  12.694  66.635  1.00  0.00     0.090 NA 
HETATM   15  C   UNL     1      -6.042  11.847  67.618  1.00  0.00    -0.084 C  
HETATM   16  C   UNL     1      -6.763  12.836  67.089  1.00  0.00     0.038 C  
ENDROOT
BRANCH  10  17
HETATM   17  O   UNL     1      -8.667   9.097  67.158  1.00  0.00    -0.122 OA 
BRANCH  17  18
HETATM   18  C   UNL     1      -9.180   8.754  68.441  1.00  0.00    -0.137 C  
BRANCH  18  19
HETATM   19  O   UNL     1     -10.116   7.684  68.318  1.00  0.00    -0.174 OA 
BRANCH  19  20
HETATM   20  C   UNL     1     -10.673   7.341  69.501  1.00  0.00    -0.232 C  
HETATM   21  O   UNL     1     -11.288   6.312  69.742  1.00  0.00    -0.405 OA 
BRANCH  20  22
HETATM   22  O   UNL     1     -10.394   8.323  70.397  1.00  0.00    -0.199 OA 
HETATM   23  C   UNL     1     -11.355   8.428  71.440  1.00  0.00    -0.264 C  
ENDBRANCH  20  22
ENDBRANCH  19  20
ENDBRANCH  18  19
ENDBRANCH  17  18
ENDBRANCH  10  17
BRANCH  11  24
HETATM   24  C   UNL     1      -9.208  14.649  67.765  1.00  0.00    -0.196 C  
HETATM   25  C   UNL     1      -9.399  16.203  67.629  1.00  0.00    -0.214 A  
HETATM   26  C   UNL     1      -9.180  16.899  66.428  1.00  0.00    -0.308 A  
HETATM   27  C   UNL     1      -9.366  18.267  66.205  1.00  0.00    -0.146 A  
HETATM   28  C   UNL     1      -9.764  19.043  67.252  1.00  0.00    -0.314 A  
HETATM   29  C   UNL     1      -9.928  18.452  68.489  1.00  0.00    -0.387 A  
HETATM   30  F   UNL     1     -10.003  20.346  67.062  1.00  0.00    -0.528 F  
HETATM   31  F   UNL     1     -10.314  19.221  69.519  1.00  0.00    -0.337 F  
HETATM   32  C   UNL     1      -9.722  17.057  68.700  1.00  0.00    -0.282 A  
HETATM   33  C   UNL     1     -10.040  16.527  70.058  1.00  0.00     0.271 C  
HETATM   34  S   UNL     1     -11.727  15.905  69.951  1.00  0.00    -0.288 SA 
HETATM   35  C   UNL     1     -11.395  14.273  69.311  1.00  0.00    -0.283 A  
HETATM   36  C   UNL     1     -12.392  13.363  69.738  1.00  0.00    -0.219 A  
HETATM   37  C   UNL     1     -12.242  11.993  69.604  1.00  0.00    -0.202 A  
HETATM   38  C   UNL     1     -11.052  11.506  69.099  1.00  0.00    -0.316 A  
HETATM   39  C   UNL     1     -10.076  12.398  68.615  1.00  0.00    -0.143 A  
HETATM   40  C   UNL     1     -10.262  13.809  68.606  1.00  0.00    -0.209 A  
ENDBRANCH  11  24
TORSDOF 6
ENDMDL
MODEL       55
REMARK 921   NORMALIZED FREE ENERGY PREDICTED BY IDOCK:   -4.04 KCAL/MOL
REMARK 922        TOTAL FREE ENERGY PREDICTED BY IDOCK:   -6.20 KCAL/MOL
REMARK 923 INTER-LIGAND FREE ENERGY PREDICTED BY IDOCK:   -8.57 KCAL/MOL
REMARK 924 INTRA-LIGAND FREE ENERGY PREDICTED BY IDOCK:    2.38 KCAL/MOL
REMARK 927      BINDING AFFINITY PREDICTED BY RF-SCORE:    0.00 PKD
ROOT
HETATM    1  C   UNL     1     -10.689   9.556  67.395  1.00  0.00    -0.227 C  
HETATM    2  C   UNL     1     -10.382   8.099  66.936  1.00  0.00    -0.331 C  
HETATM    3  O   UNL     1      -9.512   8.004  65.800  1.00  0.00    -0.045 OA 
HETATM    4  C   UNL     1      -8.329   8.766  66.027  1.00  0.00    -0.126 C  
HETATM    5  C   UNL     1      -8.662  10.252  66.044  1.00  0.00    -0.150 C  
HETATM    6  N   UNL     1      -9.872  10.589  66.794  1.00  0.00    -0.186 N  
HETATM    7  C   UNL     1     -10.247  11.925  66.930  1.00  0.00    -0.208 C  
HETATM    8  O   UNL     1      -9.784  12.794  66.195  1.00  0.00    -0.258 OA 
HETATM    9  C   UNL     1     -11.022  12.223  68.223  1.00  0.00    -0.232 C  
HETATM   10  C   UNL     1     -11.147  13.509  68.638  1.00  0.00    -0.269 C  
HETATM   11  N   UNL     1     -10.816   9.830  68.834  1.00  0.00    -0.214 NA 
HETATM   12  C   UNL     1     -11.797  13.736  69.983  1.00  0.00    -0.307 C  
HETATM   13  O   UNL     1     -11.876  14.842  70.510  1.00  0.00    -0.270 OA 
HETATM   14  N   UNL     1     -11.377  11.133  69.053  1.00  0.00    -0.248 NA 
HETATM   15  C   UNL     1     -12.369  12.575  70.690  1.00  0.00    -0.369 C  
HETATM   16  C   UNL     1     -12.127  11.365  70.186  1.00  0.00    -0.357 C  
ENDROOT
BRANCH  10  17
HETATM   17  O   UNL     1     -10.548  14.556  67.965  1.00  0.00    -0.233 OA 
BRANCH  17  18
HETATM   18  C   UNL     1     -11.407  15.513  67.356  1.00  0.00    -0.203 C  
BRANCH  18  19
HETATM   19  O   UNL     1     -10.695  16.730  67.133  1.00  0.00    -0.287 OA 
BRANCH  19  20
HETATM   20  C   UNL     1     -10.247  16.845  65.863  1.00  0.00    -0.314 C  
HETATM   21  O   UNL     1     -10.848  16.521  64.849  1.00  0.00    -0.684 OA 
BRANCH  20  22
HETATM   22  O   UNL     1      -9.021  17.429  65.901  1.00  0.00    -0.521 OA 
HETATM   23  C   UNL     1      -9.034  18.738  66.458  1.00  0.00    -0.319 C  
ENDBRANCH  20  22
ENDBRANCH  19  20
ENDBRANCH  18  19
ENDBRANCH  17  18
ENDBRANCH  10  17
BRANCH  11  24
HETATM   24  C   UNL     1      -9.789   9.328  69.855  1.00  0.00    -0.199 C  
HETATM   25  C   UNL     1      -9.797   7.794  70.202  1.00  0.00    -0.184 A  
HETATM   26  C   UNL     1     -10.762   6.902  69.705  1.00  0.00    -0.276 A  
HETATM   27  C   UNL     1     -10.821   5.522  69.925  1.00  0.00    -0.298 A  
HETATM   28  C   UNL     1      -9.881   4.958  70.734  1.00  0.00    -0.215 A  
HETATM   29  C   UNL     1      -8.939   5.776  71.326  1.00  0.00    -0.140 A  
HETATM   30  F   UNL     1      -9.875   3.633  70.923  1.00  0.00    -0.232 F  
HETATM   31  F   UNL     1      -8.018   5.216  72.127  1.00  0.00    -0.102 F  
HETATM   32  C   UNL     1      -8.902   7.183  71.099  1.00  0.00    -0.144 A  
HETATM   33  C   UNL     1      -7.768   7.934  71.712  1.00  0.00    -0.094 C  
HETATM   34  S   UNL     1      -6.513   8.047  70.426  1.00  0.00    -0.037 SA 
HETATM   35  C   UNL     1      -7.106   9.495  69.567  1.00  0.00    -0.068 A  
HETATM   36  C   UNL     1      -6.027  10.190  68.969  1.00  0.00    -0.037 A  
HETATM   37  C   UNL     1      -6.168  11.473  68.467  1.00  0.00    -0.050 A  
HETATM   38  C   UNL     1      -7.384  12.111  68.620  1.00  0.00    -0.109 A  
HETATM   39  C   UNL     1      -8.482  11.413  69.158  1.00  0.00     0.150 A  
HETATM   40  C   UNL     1      -8.406  10.046  69.549  1.00  0.00    -0.180 A  
ENDBRANCH  11  24
TORSDOF 6
ENDMDL
MODEL       56
REMARK 921   NORMALIZED FREE ENERGY PREDICTED BY IDOCK:   -4.03 KCAL/MOL
REMARK 922        TOTAL FREE ENERGY PREDICTED BY IDOCK:   -6.18 KCAL/MOL
REMARK 923 INTER-LIGAND FREE ENERGY PREDICTED BY IDOCK:   -5.97 KCAL/MOL
REMARK 924 INTRA-LIGAND FREE ENERGY PREDICTED BY IDOCK:   -0.21 KCAL/MOL
REMARK 927      BINDING AFFINITY PREDICTED BY RF-SCORE:    0.00 PKD
ROOT
HETATM    1  C   UNL     1      -7.146  12.223  69.031  1.00  0.00    -0.051 C  
HETATM    2  C   UNL     1      -6.541  13.651  69.171  1.00  0.00    -0.109 C  
HETATM    3  O   UNL     1      -5.204  13.783  68.667  1.00  0.00    -0.079 OA 
HETATM    4  C   UNL     1      -5.137  13.290  67.331  1.00  0.00     0.167 C  
HETATM    5  C   UNL     1      -5.327  11.779  67.324  1.00  0.00    -0.100 C  
HETATM    6  N   UNL     1      -6.400  11.303  68.198  1.00  0.00    -0.052 N  
HETATM    7  C   UNL     1      -6.709   9.944  68.231  1.00  0.00    -0.060 C  
HETATM    8  O   UNL     1      -5.923   9.103  67.800  1.00  0.00    -0.048 OA 
HETATM    9  C   UNL     1      -8.180   9.649  68.562  1.00  0.00    -0.105 C  
HETATM   10  C   UNL     1      -8.684   8.417  68.298  1.00  0.00    -0.143 C  
HETATM   11  N   UNL     1      -8.577  12.091  68.719  1.00  0.00     0.001 NA 
HETATM   12  C   UNL     1     -10.166   8.222  68.514  1.00  0.00    -0.208 C  
HETATM   13  O   UNL     1     -10.755   7.186  68.216  1.00  0.00    -0.201 OA 
HETATM   14  N   UNL     1      -9.015  10.737  68.913  1.00  0.00    -0.163 NA 
HETATM   15  C   UNL     1     -10.939   9.324  69.116  1.00  0.00    -0.083 C  
HETATM   16  C   UNL     1     -10.322  10.495  69.276  1.00  0.00    -0.227 C  
ENDROOT
BRANCH  10  17
HETATM   17  O   UNL     1      -7.930   7.435  67.686  1.00  0.00    -0.111 OA 
BRANCH  17  18
HETATM   18  C   UNL     1      -8.156   6.091  68.098  1.00  0.00    -0.110 C  
BRANCH  18  19
HETATM   19  O   UNL     1      -7.970   5.208  66.992  1.00  0.00    -0.099 OA 
BRANCH  19  20
HETATM   20  C   UNL     1      -8.642   5.608  65.889  1.00  0.00    -0.144 C  
HETATM   21  O   UNL     1      -8.248   6.404  65.048  1.00  0.00    -0.140 OA 
BRANCH  20  22
HETATM   22  O   UNL     1      -9.821   4.936  65.849  1.00  0.00    -0.172 OA 
HETATM   23  C   UNL     1      -9.834   3.870  64.907  1.00  0.00    -0.197 C  
ENDBRANCH  20  22
ENDBRANCH  19  20
ENDBRANCH  18  19
ENDBRANCH  17  18
ENDBRANCH  10  17
BRANCH  11  24
HETATM   24  C   UNL     1      -9.245  12.889  67.594  1.00  0.00    -0.193 C  
HETATM   25  C   UNL     1      -9.483  12.156  66.223  1.00  0.00    -0.238 A  
HETATM   26  C   UNL     1      -9.017  10.858  65.959  1.00  0.00    -0.200 A  
HETATM   27  C   UNL     1      -9.218  10.115  64.791  1.00  0.00    -0.291 A  
HETATM   28  C   UNL     1      -9.902  10.699  63.766  1.00  0.00    -0.335 A  
HETATM   29  C   UNL     1     -10.329  12.003  63.914  1.00  0.00    -0.402 A  
HETATM   30  F   UNL     1     -10.159   9.999  62.655  1.00  0.00    -0.132 F  
HETATM   31  F   UNL     1     -10.997  12.576  62.900  1.00  0.00    -0.382 F  
HETATM   32  C   UNL     1     -10.104  12.748  65.108  1.00  0.00    -0.246 A  
HETATM   33  C   UNL     1     -10.714  14.108  65.178  1.00  0.00    -0.388 C  
HETATM   34  S   UNL     1     -12.286  13.890  66.029  1.00  0.00    -0.468 SA 
HETATM   35  C   UNL     1     -11.718  13.975  67.718  1.00  0.00    -0.368 A  
HETATM   36  C   UNL     1     -12.737  14.489  68.556  1.00  0.00     0.744 A  
HETATM   37  C   UNL     1     -12.483  14.901  69.854  1.00  0.00    -0.273 A  
HETATM   38  C   UNL     1     -11.180  14.868  70.313  1.00  0.00    -0.270 A  
HETATM   39  C   UNL     1     -10.167  14.304  69.514  1.00  0.00     0.152 A  
HETATM   40  C   UNL     1     -10.424  13.740  68.233  1.00  0.00    -0.251 A  
ENDBRANCH  11  24
TORSDOF 6
ENDMDL
MODEL       57
REMARK 921   NORMALIZED FREE ENERGY PREDICTED BY IDOCK:   -3.99 KCAL/MOL
REMARK 922        TOTAL FREE ENERGY PREDICTED BY IDOCK:   -6.13 KCAL/MOL
REMARK 923 INTER-LIGAND FREE ENERGY PREDICTED BY IDOCK:   -5.89 KCAL/MOL
REMARK 924 INTRA-LIGAND FREE ENERGY PREDICTED BY IDOCK:   -0.24 KCAL/MOL
REMARK 927      BINDING AFFINITY PREDICTED BY RF-SCORE:    0.00 PKD
ROOT
HETATM    1  C   UNL     1      -6.906   9.241  68.687  1.00  0.00    -0.061 C  
HETATM    2  C   UNL     1      -5.511   8.610  68.975  1.00  0.00    -0.036 C  
HETATM    3  O   UNL     1      -5.479   7.730  70.107  1.00  0.00    -0.023 OA 
HETATM    4  C   UNL     1      -6.508   6.751  69.992  1.00  0.00    -0.040 C  
HETATM    5  C   UNL     1      -7.872   7.409  70.146  1.00  0.00    -0.099 C  
HETATM    6  N   UNL     1      -8.017   8.672  69.421  1.00  0.00    -0.100 N  
HETATM    7  C   UNL     1      -9.242   9.338  69.437  1.00  0.00    -0.159 C  
HETATM    8  O   UNL     1     -10.098   9.074  70.278  1.00  0.00    -0.179 OA 
HETATM    9  C   UNL     1      -9.511  10.173  68.176  1.00  0.00    -0.142 C  
HETATM   10  C   UNL     1     -10.776  10.588  67.914  1.00  0.00    -0.260 C  
HETATM   11  N   UNL     1      -7.315   9.441  67.289  1.00  0.00    -0.087 NA 
HETATM   12  C   UNL     1     -11.010  11.286  66.596  1.00  0.00    -0.268 C  
HETATM   13  O   UNL     1     -12.125  11.616  66.202  1.00  0.00    -0.308 OA 
HETATM   14  N   UNL     1      -8.476  10.283  67.216  1.00  0.00    -0.125 NA 
HETATM   15  C   UNL     1      -9.844  11.589  65.746  1.00  0.00    -0.266 C  
HETATM   16  C   UNL     1      -8.667  11.077  66.106  1.00  0.00    -0.184 C  
ENDROOT
BRANCH  10  17
HETATM   17  O   UNL     1     -11.842  10.232  68.717  1.00  0.00    -0.128 OA 
BRANCH  17  18
HETATM   18  C   UNL     1     -12.235  11.159  69.724  1.00  0.00    -0.300 C  
BRANCH  18  19
HETATM   19  O   UNL     1     -13.321  10.622  70.479  1.00  0.00    -0.152 OA 
BRANCH  19  20
HETATM   20  C   UNL     1     -13.274  10.978  71.782  1.00  0.00    -0.400 C  
HETATM   21  O   UNL     1     -12.930  12.065  72.226  1.00  0.00    -0.294 OA 
BRANCH  20  22
HETATM   22  O   UNL     1     -13.721   9.930  72.521  1.00  0.00    -0.285 OA 
HETATM   23  C   UNL     1     -13.779   8.708  71.794  1.00  0.00    -0.417 C  
ENDBRANCH  20  22
ENDBRANCH  19  20
ENDBRANCH  18  19
ENDBRANCH  17  18
ENDBRANCH  10  17
BRANCH  11  24
HETATM   24  C   UNL     1      -7.182   8.338  66.233  1.00  0.00    -0.074 C  
HETATM   25  C   UNL     1      -8.354   7.297  66.115  1.00  0.00    -0.133 A  
HETATM   26  C   UNL     1      -9.447   7.273  66.997  1.00  0.00    -0.196 A  
HETATM   27  C   UNL     1     -10.551   6.416  66.941  1.00  0.00    -0.379 A  
HETATM   28  C   UNL     1     -10.581   5.466  65.965  1.00  0.00    -0.052 A  
HETATM   29  C   UNL     1      -9.508   5.370  65.101  1.00  0.00     0.200 A  
HETATM   30  F   UNL     1     -11.646   4.664  65.850  1.00  0.00     0.168 F  
HETATM   31  F   UNL     1      -9.539   4.429  64.144  1.00  0.00    -0.158 F  
HETATM   32  C   UNL     1      -8.386   6.246  65.181  1.00  0.00    -0.119 A  
HETATM   33  C   UNL     1      -7.347   6.106  64.120  1.00  0.00    -0.070 C  
HETATM   34  S   UNL     1      -7.767   7.328  62.866  1.00  0.00    -0.128 SA 
HETATM   35  C   UNL     1      -6.963   8.757  63.571  1.00  0.00    -0.089 A  
HETATM   36  C   UNL     1      -6.560   9.650  62.549  1.00  0.00    -0.098 A  
HETATM   37  C   UNL     1      -5.692  10.701  62.792  1.00  0.00    -0.154 A  
HETATM   38  C   UNL     1      -5.157  10.834  64.060  1.00  0.00    -0.137 A  
HETATM   39  C   UNL     1      -5.594   9.992  65.099  1.00  0.00    -0.084 A  
HETATM   40  C   UNL     1      -6.593   8.996  64.913  1.00  0.00    -0.069 A  
ENDBRANCH  11  24
TORSDOF 6
ENDMDL
MODEL       58
REMARK 921   NORMALIZED FREE ENERGY PREDICTED BY IDOCK:   -3.97 KCAL/MOL
REMARK 922        TOTAL FREE ENERGY PREDICTED BY IDOCK:   -6.10 KCAL/MOL
REMARK 923 INTER-LIGAND FREE ENERGY PREDICTED BY IDOCK:   -8.58 KCAL/MOL
REMARK 924 INTRA-LIGAND FREE ENERGY PREDICTED BY IDOCK:    2.48 KCAL/MOL
REMARK 927      BINDING AFFINITY PREDICTED BY RF-SCORE:    0.00 PKD
ROOT
HETATM    1  C   UNL     1      -9.375  11.861  68.689  1.00  0.00    -0.069 C  
HETATM    2  C   UNL     1      -9.670  10.332  68.643  1.00  0.00    -0.167 C  
HETATM    3  O   UNL     1     -11.002   9.971  69.034  1.00  0.00    -0.223 OA 
HETATM    4  C   UNL     1     -11.950  10.733  68.291  1.00  0.00     0.153 C  
HETATM    5  C   UNL     1     -11.886  12.195  68.712  1.00  0.00    -0.303 C  
HETATM    6  N   UNL     1     -10.528  12.719  68.866  1.00  0.00    -0.141 N  
HETATM    7  C   UNL     1     -10.342  14.062  69.190  1.00  0.00    -0.049 C  
HETATM    8  O   UNL     1     -11.258  14.738  69.651  1.00  0.00    -0.256 OA 
HETATM    9  C   UNL     1      -9.029  14.653  68.653  1.00  0.00    -0.184 C  
HETATM   10  C   UNL     1      -8.882  16.001  68.601  1.00  0.00    -0.210 C  
HETATM   11  N   UNL     1      -8.505  12.444  67.657  1.00  0.00    -0.158 NA 
HETATM   12  C   UNL     1      -7.632  16.530  67.939  1.00  0.00    -0.152 C  
HETATM   13  O   UNL     1      -7.434  17.725  67.742  1.00  0.00    -0.197 OA 
HETATM   14  N   UNL     1      -8.115  13.778  68.017  1.00  0.00    -0.149 NA 
HETATM   15  C   UNL     1      -6.600  15.565  67.516  1.00  0.00    -0.206 C  
HETATM   16  C   UNL     1      -6.903  14.268  67.582  1.00  0.00    -0.182 C  
ENDROOT
BRANCH  10  17
HETATM   17  O   UNL     1      -9.900  16.861  68.963  1.00  0.00    -0.259 OA 
BRANCH  17  18
HETATM   18  C   UNL     1     -10.807  17.261  67.941  1.00  0.00    -0.283 C  
BRANCH  18  19
HETATM   19  O   UNL     1     -10.499  18.587  67.512  1.00  0.00    -0.381 OA 
BRANCH  19  20
HETATM   20  C   UNL     1     -10.364  18.681  66.170  1.00  0.00    -0.443 C  
HETATM   21  O   UNL     1     -10.696  17.839  65.346  1.00  0.00    -0.626 OA 
BRANCH  20  22
HETATM   22  O   UNL     1      -9.833  19.898  65.885  1.00  0.00    -0.420 OA 
HETATM   23  C   UNL     1      -9.341  20.584  67.030  1.00  0.00    -0.345 C  
ENDBRANCH  20  22
ENDBRANCH  19  20
ENDBRANCH  18  19
ENDBRANCH  17  18
ENDBRANCH  10  17
BRANCH  11  24
HETATM   24  C   UNL     1      -8.698  12.148  66.166  1.00  0.00     0.099 C  
HETATM   25  C   UNL     1      -8.296  10.719  65.649  1.00  0.00    -0.144 A  
HETATM   26  C   UNL     1      -7.676   9.757  66.463  1.00  0.00    -0.105 A  
HETATM   27  C   UNL     1      -7.324   8.452  66.102  1.00  0.00    -0.084 A  
HETATM   28  C   UNL     1      -7.558   8.053  64.820  1.00  0.00    -0.105 A  
HETATM   29  C   UNL     1      -8.095   8.963  63.931  1.00  0.00    -0.163 A  
HETATM   30  F   UNL     1      -7.283   6.795  64.455  1.00  0.00    -0.054 F  
HETATM   31  F   UNL     1      -8.319   8.567  62.668  1.00  0.00    -0.165 F  
HETATM   32  C   UNL     1      -8.437  10.292  64.315  1.00  0.00    -0.181 A  
HETATM   33  C   UNL     1      -9.110  11.138  63.287  1.00  0.00    -0.190 C  
HETATM   34  S   UNL     1     -10.875  10.969  63.603  1.00  0.00     0.098 SA 
HETATM   35  C   UNL     1     -11.067  12.217  64.863  1.00  0.00    -0.319 A  
HETATM   36  C   UNL     1     -12.373  12.760  64.825  1.00  0.00    -0.540 A  
HETATM   37  C   UNL     1     -12.710  13.915  65.512  1.00  0.00    -0.536 A  
HETATM   38  C   UNL     1     -11.716  14.587  66.198  1.00  0.00    -0.355 A  
HETATM   39  C   UNL     1     -10.427  14.028  66.295  1.00  0.00    -0.286 A  
HETATM   40  C   UNL     1     -10.090  12.770  65.721  1.00  0.00    -0.296 A  
ENDBRANCH  11  24
TORSDOF 6
ENDMDL
MODEL       59
REMARK 921   NORMALIZED FREE ENERGY PREDICTED BY IDOCK:   -3.90 KCAL/MOL
REMARK 922        TOTAL FREE ENERGY PREDICTED BY IDOCK:   -6.00 KCAL/MOL
REMARK 923 INTER-LIGAND FREE ENERGY PREDICTED BY IDOCK:   -5.39 KCAL/MOL
REMARK 924 INTRA-LIGAND FREE ENERGY PREDICTED BY IDOCK:   -0.62 KCAL/MOL
REMARK 927      BINDING AFFINITY PREDICTED BY RF-SCORE:    0.00 PKD
ROOT
HETATM    1  C   UNL     1     -11.078  10.069  68.401  1.00  0.00    -0.182 C  
HETATM    2  C   UNL     1     -12.508  10.484  68.857  1.00  0.00     0.802 C  
HETATM    3  O   UNL     1     -12.809  10.179  70.226  1.00  0.00    -0.179 OA 
HETATM    4  C   UNL     1     -11.791  10.702  71.076  1.00  0.00    -0.296 C  
HETATM    5  C   UNL     1     -10.491   9.938  70.862  1.00  0.00    -0.122 C  
HETATM    6  N   UNL     1     -10.171   9.675  69.459  1.00  0.00    -0.204 N  
HETATM    7  C   UNL     1      -8.976   9.035  69.134  1.00  0.00    -0.140 C  
HETATM    8  O   UNL     1      -8.338   8.412  69.979  1.00  0.00    -0.118 OA 
HETATM    9  C   UNL     1      -8.416   9.426  67.757  1.00  0.00    -0.116 C  
HETATM   10  C   UNL     1      -7.120   9.148  67.466  1.00  0.00    -0.079 C  
HETATM   11  N   UNL     1     -10.358  10.937  67.458  1.00  0.00    -0.193 NA 
HETATM   12  C   UNL     1      -6.583   9.674  66.157  1.00  0.00    -0.078 C  
HETATM   13  O   UNL     1      -5.404   9.576  65.828  1.00  0.00    -0.038 OA 
HETATM   14  N   UNL     1      -9.203  10.266  66.933  1.00  0.00    -0.149 NA 
HETATM   15  C   UNL     1      -7.520  10.332  65.228  1.00  0.00    -0.141 C  
HETATM   16  C   UNL     1      -8.754  10.581  65.669  1.00  0.00    -0.180 C  
ENDROOT
BRANCH  10  17
HETATM   17  O   UNL     1      -6.270   8.575  68.392  1.00  0.00    -0.051 OA 
BRANCH  17  18
HETATM   18  C   UNL     1      -5.482   7.473  67.956  1.00  0.00    -0.027 C  
BRANCH  18  19
HETATM   19  O   UNL     1      -6.306   6.316  67.813  1.00  0.00    -0.033 OA 
BRANCH  19  20
HETATM   20  C   UNL     1      -5.918   5.524  66.789  1.00  0.00    -0.019 C  
HETATM   21  O   UNL     1      -5.780   4.309  66.822  1.00  0.00    -0.020 OA 
BRANCH  20  22
HETATM   22  O   UNL     1      -5.746   6.308  65.693  1.00  0.00    -0.020 OA 
HETATM   23  C   UNL     1      -6.479   5.864  64.558  1.00  0.00    -0.034 C  
ENDBRANCH  20  22
ENDBRANCH  19  20
ENDBRANCH  18  19
ENDBRANCH  17  18
ENDBRANCH  10  17
BRANCH  11  24
HETATM   24  C   UNL     1     -10.258  12.454  67.658  1.00  0.00    -0.207 C  
HETATM   25  C   UNL     1      -8.918  13.023  68.252  1.00  0.00    -0.177 A  
HETATM   26  C   UNL     1      -7.871  12.202  68.702  1.00  0.00    -0.078 A  
HETATM   27  C   UNL     1      -6.634  12.619  69.203  1.00  0.00    -0.099 A  
HETATM   28  C   UNL     1      -6.402  13.957  69.316  1.00  0.00    -0.112 A  
HETATM   29  C   UNL     1      -7.409  14.835  68.968  1.00  0.00    -0.139 A  
HETATM   30  F   UNL     1      -5.210  14.393  69.741  1.00  0.00    -0.092 F  
HETATM   31  F   UNL     1      -7.179  16.153  69.086  1.00  0.00    -0.161 F  
HETATM   32  C   UNL     1      -8.669  14.390  68.470  1.00  0.00    -0.180 A  
HETATM   33  C   UNL     1      -9.628  15.444  68.027  1.00  0.00    -0.206 C  
HETATM   34  S   UNL     1      -9.380  15.608  66.251  1.00  0.00    -0.348 SA 
HETATM   35  C   UNL     1     -10.446  14.294  65.685  1.00  0.00    -0.324 A  
HETATM   36  C   UNL     1     -10.961  14.594  64.402  1.00  0.00    -0.098 A  
HETATM   37  C   UNL     1     -12.008  13.879  63.843  1.00  0.00    -0.372 A  
HETATM   38  C   UNL     1     -12.604  12.887  64.598  1.00  0.00    -0.459 A  
HETATM   39  C   UNL     1     -12.066  12.537  65.851  1.00  0.00    -0.420 A  
HETATM   40  C   UNL     1     -10.903  13.156  66.387  1.00  0.00    -0.299 A  
ENDBRANCH  11  24
TORSDOF 6
ENDMDL
MODEL       60
REMARK 921   NORMALIZED FREE ENERGY PREDICTED BY IDOCK:   -3.89 KCAL/MOL
REMARK 922        TOTAL FREE ENERGY PREDICTED BY IDOCK:   -5.99 KCAL/MOL
REMARK 923 INTER-LIGAND FREE ENERGY PREDICTED BY IDOCK:   -8.25 KCAL/MOL
REMARK 924 INTRA-LIGAND FREE ENERGY PREDICTED BY IDOCK:    2.26 KCAL/MOL
REMARK 927      BINDING AFFINITY PREDICTED BY RF-SCORE:    0.00 PKD
ROOT
HETATM    1  C   UNL     1     -10.992   7.945  68.839  1.00  0.00     0.135 C  
HETATM    2  C   UNL     1     -10.671   6.423  68.919  1.00  0.00    -0.288 C  
HETATM    3  O   UNL     1      -9.906   5.917  67.816  1.00  0.00    -0.114 OA 
HETATM    4  C   UNL     1      -8.739   6.713  67.627  1.00  0.00    -0.118 C  
HETATM    5  C   UNL     1      -9.130   8.098  67.129  1.00  0.00    -0.140 C  
HETATM    6  N   UNL     1     -10.278   8.685  67.820  1.00  0.00    -0.212 N  
HETATM    7  C   UNL     1     -10.692   9.976  67.493  1.00  0.00    -0.281 C  
HETATM    8  O   UNL     1     -10.335  10.512  66.447  1.00  0.00    -0.232 OA 
HETATM    9  C   UNL     1     -11.356  10.728  68.656  1.00  0.00    -0.291 C  
HETATM   10  C   UNL     1     -11.494  12.076  68.580  1.00  0.00    -0.293 C  
HETATM   11  N   UNL     1     -10.997   8.732  70.081  1.00  0.00    -0.238 NA 
HETATM   12  C   UNL     1     -12.025  12.782  69.804  1.00  0.00    -0.292 C  
HETATM   13  O   UNL     1     -12.100  14.004  69.893  1.00  0.00    -0.307 OA 
HETATM   14  N   UNL     1     -11.588  10.022  69.861  1.00  0.00    -0.212 NA 
HETATM   15  C   UNL     1     -12.482  11.964  70.943  1.00  0.00    -0.397 C  
HETATM   16  C   UNL     1     -12.238  10.653  70.898  1.00  0.00    -0.395 C  
ENDROOT
BRANCH  10  17
HETATM   17  O   UNL     1     -11.003  12.801  67.512  1.00  0.00    -0.236 OA 
BRANCH  17  18
HETATM   18  C   UNL     1     -11.940  13.562  66.757  1.00  0.00    -0.404 C  
BRANCH  18  19
HETATM   19  O   UNL     1     -11.597  14.946  66.814  1.00  0.00    -0.344 OA 
BRANCH  19  20
HETATM   20  C   UNL     1     -10.287  15.169  66.567  1.00  0.00    -0.282 C  
HETATM   21  O   UNL     1      -9.704  14.973  65.510  1.00  0.00    -0.337 OA 
BRANCH  20  22
HETATM   22  O   UNL     1      -9.731  15.693  67.690  1.00  0.00    -0.223 OA 
HETATM   23  C   UNL     1     -10.567  16.634  68.351  1.00  0.00    -0.343 C  
ENDBRANCH  20  22
ENDBRANCH  19  20
ENDBRANCH  18  19
ENDBRANCH  17  18
ENDBRANCH  10  17
BRANCH  11  24
HETATM   24  C   UNL     1      -9.860   8.647  71.105  1.00  0.00    -0.222 C  
HETATM   25  C   UNL     1      -9.772   7.349  71.989  1.00  0.00    -0.182 A  
HETATM   26  C   UNL     1     -10.740   6.332  71.954  1.00  0.00    -0.271 A  
HETATM   27  C   UNL     1     -10.721   5.130  72.669  1.00  0.00    -0.291 A  
HETATM   28  C   UNL     1      -9.687   4.908  73.529  1.00  0.00    -0.136 A  
HETATM   29  C   UNL     1      -8.731   5.892  73.682  1.00  0.00    -0.125 A  
HETATM   30  F   UNL     1      -9.609   3.746  74.189  1.00  0.00    -0.103 F  
HETATM   31  F   UNL     1      -7.717   5.672  74.535  1.00  0.00    -0.096 F  
HETATM   32  C   UNL     1      -8.774   7.116  72.953  1.00  0.00    -0.144 A  
HETATM   33  C   UNL     1      -7.620   8.046  73.130  1.00  0.00    -0.145 C  
HETATM   34  S   UNL     1      -6.495   7.684  71.772  1.00  0.00    -0.043 SA 
HETATM   35  C   UNL     1      -7.224   8.710  70.507  1.00  0.00    -0.053 A  
HETATM   36  C   UNL     1      -6.235   9.141  69.591  1.00  0.00    -0.039 A  
HETATM   37  C   UNL     1      -6.475  10.148  68.670  1.00  0.00    -0.052 A  
HETATM   38  C   UNL     1      -7.698  10.791  68.701  1.00  0.00    -0.114 A  
HETATM   39  C   UNL     1      -8.711  10.334  69.565  1.00  0.00    -0.155 A  
HETATM   40  C   UNL     1      -8.543   9.209  70.420  1.00  0.00    -0.236 A  
ENDBRANCH  11  24
TORSDOF 6
ENDMDL
MODEL       61
REMARK 921   NORMALIZED FREE ENERGY PREDICTED BY IDOCK:   -3.84 KCAL/MOL
REMARK 922        TOTAL FREE ENERGY PREDICTED BY IDOCK:   -5.93 KCAL/MOL
REMARK 923 INTER-LIGAND FREE ENERGY PREDICTED BY IDOCK:   -5.44 KCAL/MOL
REMARK 924 INTRA-LIGAND FREE ENERGY PREDICTED BY IDOCK:   -0.49 KCAL/MOL
REMARK 927      BINDING AFFINITY PREDICTED BY RF-SCORE:    0.00 PKD
ROOT
HETATM    1  C   UNL     1      -5.490   6.596  70.987  1.00  0.00    -0.026 C  
HETATM    2  C   UNL     1      -5.335   5.146  71.533  1.00  0.00    -0.005 C  
HETATM    3  O   UNL     1      -5.233   5.056  72.961  1.00  0.00    -0.008 OA 
HETATM    4  C   UNL     1      -6.314   5.757  73.571  1.00  0.00    -0.067 C  
HETATM    5  C   UNL     1      -6.159   7.254  73.340  1.00  0.00    -0.056 C  
HETATM    6  N   UNL     1      -5.765   7.615  71.978  1.00  0.00    -0.036 N  
HETATM    7  C   UNL     1      -5.650   8.960  71.629  1.00  0.00    -0.053 C  
HETATM    8  O   UNL     1      -5.562   9.835  72.487  1.00  0.00    -0.272 OA 
HETATM    9  C   UNL     1      -5.937   9.243  70.146  1.00  0.00    -0.035 C  
HETATM   10  C   UNL     1      -6.191  10.517  69.752  1.00  0.00    -0.074 C  
HETATM   11  N   UNL     1      -6.358   6.822  69.822  1.00  0.00    -0.041 NA 
HETATM   12  C   UNL     1      -6.602  10.722  68.314  1.00  0.00    -0.058 C  
HETATM   13  O   UNL     1      -6.953  11.809  67.866  1.00  0.00    -0.076 OA 
HETATM   14  N   UNL     1      -6.156   8.139  69.287  1.00  0.00    -0.037 NA 
HETATM   15  C   UNL     1      -6.573   9.561  67.404  1.00  0.00    -0.070 C  
HETATM   16  C   UNL     1      -6.354   8.361  67.942  1.00  0.00    -0.056 C  
ENDROOT
BRANCH  10  17
HETATM   17  O   UNL     1      -6.255  11.561  70.654  1.00  0.00    -0.322 OA 
BRANCH  17  18
HETATM   18  C   UNL     1      -5.170  12.483  70.661  1.00  0.00    -0.138 C  
BRANCH  18  19
HETATM   19  O   UNL     1      -5.508  13.633  69.886  1.00  0.00    -0.092 OA 
BRANCH  19  20
HETATM   20  C   UNL     1      -5.844  14.695  70.652  1.00  0.00    -0.167 C  
HETATM   21  O   UNL     1      -5.211  15.134  71.602  1.00  0.00    -0.136 OA 
BRANCH  20  22
HETATM   22  O   UNL     1      -6.991  15.226  70.154  1.00  0.00    -0.110 OA 
HETATM   23  C   UNL     1      -6.779  16.112  69.062  1.00  0.00    -0.170 C  
ENDBRANCH  20  22
ENDBRANCH  19  20
ENDBRANCH  18  19
ENDBRANCH  17  18
ENDBRANCH  10  17
BRANCH  11  24
HETATM   24  C   UNL     1      -7.773   6.239  69.732  1.00  0.00    -0.105 C  
HETATM   25  C   UNL     1      -8.955   7.103  70.305  1.00  0.00    -0.152 A  
HETATM   26  C   UNL     1      -8.757   8.318  70.982  1.00  0.00    -0.169 A  
HETATM   27  C   UNL     1      -9.745   9.170  71.484  1.00  0.00    -0.313 A  
HETATM   28  C   UNL     1     -11.048   8.793  71.354  1.00  0.00    -0.291 A  
HETATM   29  C   UNL     1     -11.329   7.574  70.769  1.00  0.00    -0.280 A  
HETATM   30  F   UNL     1     -12.022   9.608  71.776  1.00  0.00    -0.412 F  
HETATM   31  F   UNL     1     -12.614   7.204  70.648  1.00  0.00    -0.335 F  
HETATM   32  C   UNL     1     -10.307   6.714  70.273  1.00  0.00    -0.235 A  
HETATM   33  C   UNL     1     -10.752   5.478  69.565  1.00  0.00    -0.262 C  
HETATM   34  S   UNL     1     -10.757   5.900  67.814  1.00  0.00    -0.233 SA 
HETATM   35  C   UNL     1      -9.042   5.591  67.434  1.00  0.00    -0.110 A  
HETATM   36  C   UNL     1      -8.899   5.199  66.081  1.00  0.00    -0.132 A  
HETATM   37  C   UNL     1      -7.723   4.652  65.594  1.00  0.00    -0.094 A  
HETATM   38  C   UNL     1      -6.686   4.425  66.479  1.00  0.00    -0.050 A  
HETATM   39  C   UNL     1      -6.791   4.863  67.813  1.00  0.00    -0.060 A  
HETATM   40  C   UNL     1      -7.931   5.558  68.306  1.00  0.00    -0.096 A  
ENDBRANCH  11  24
TORSDOF 6
ENDMDL
MODEL       62
REMARK 921   NORMALIZED FREE ENERGY PREDICTED BY IDOCK:   -3.82 KCAL/MOL
REMARK 922        TOTAL FREE ENERGY PREDICTED BY IDOCK:   -5.90 KCAL/MOL
REMARK 923 INTER-LIGAND FREE ENERGY PREDICTED BY IDOCK:   -5.15 KCAL/MOL
REMARK 924 INTRA-LIGAND FREE ENERGY PREDICTED BY IDOCK:   -0.75 KCAL/MOL
REMARK 927      BINDING AFFINITY PREDICTED BY RF-SCORE:    0.00 PKD
ROOT
HETATM    1  C   UNL     1     -10.322   6.656  72.197  1.00  0.00    -0.200 C  
HETATM    2  C   UNL     1     -11.458   5.712  72.691  1.00  0.00    -0.285 C  
HETATM    3  O   UNL     1     -12.779   6.259  72.577  1.00  0.00     0.022 OA 
HETATM    4  C   UNL     1     -12.998   6.729  71.250  1.00  0.00    -0.146 C  
HETATM    5  C   UNL     1     -12.128   7.950  70.980  1.00  0.00    -0.230 C  
HETATM    6  N   UNL     1     -10.754   7.829  71.466  1.00  0.00    -0.221 N  
HETATM    7  C   UNL     1      -9.846   8.859  71.224  1.00  0.00    -0.291 C  
HETATM    8  O   UNL     1     -10.228   9.981  70.900  1.00  0.00    -0.112 OA 
HETATM    9  C   UNL     1      -8.387   8.388  71.115  1.00  0.00    -0.137 C  
HETATM   10  C   UNL     1      -7.465   9.213  70.557  1.00  0.00    -0.116 C  
HETATM   11  N   UNL     1      -9.165   6.067  71.507  1.00  0.00    -0.143 NA 
HETATM   12  C   UNL     1      -6.079   8.650  70.347  1.00  0.00    -0.031 C  
HETATM   13  O   UNL     1      -5.190   9.262  69.762  1.00  0.00    -0.033 OA 
HETATM   14  N   UNL     1      -8.105   7.028  71.386  1.00  0.00    -0.107 NA 
HETATM   15  C   UNL     1      -5.780   7.307  70.876  1.00  0.00    -0.027 C  
HETATM   16  C   UNL     1      -6.798   6.592  71.357  1.00  0.00    -0.063 C  
ENDROOT
BRANCH  10  17
HETATM   17  O   UNL     1      -7.809  10.443  70.030  1.00  0.00    -0.125 OA 
BRANCH  17  18
HETATM   18  C   UNL     1      -7.720  10.592  68.617  1.00  0.00    -0.110 C  
BRANCH  18  19
HETATM   19  O   UNL     1      -9.026  10.756  68.065  1.00  0.00    -0.133 OA 
BRANCH  19  20
HETATM   20  C   UNL     1      -9.153  11.905  67.363  1.00  0.00    -0.178 C  
HETATM   21  O   UNL     1      -9.023  12.035  66.154  1.00  0.00    -0.178 OA 
BRANCH  20  22
HETATM   22  O   UNL     1      -9.497  12.891  68.231  1.00  0.00    -0.217 OA 
HETATM   23  C   UNL     1     -10.878  12.890  68.572  1.00  0.00    -0.257 C  
ENDBRANCH  20  22
ENDBRANCH  19  20
ENDBRANCH  18  19
ENDBRANCH  17  18
ENDBRANCH  10  17
BRANCH  11  24
HETATM   24  C   UNL     1      -9.323   5.051  70.370  1.00  0.00    -0.158 C  
HETATM   25  C   UNL     1      -9.215   5.584  68.895  1.00  0.00    -0.141 A  
HETATM   26  C   UNL     1      -9.094   6.948  68.582  1.00  0.00    -0.131 A  
HETATM   27  C   UNL     1      -8.950   7.507  67.308  1.00  0.00    -0.130 A  
HETATM   28  C   UNL     1      -8.965   6.670  66.232  1.00  0.00    -0.152 A  
HETATM   29  C   UNL     1      -9.159   5.320  66.446  1.00  0.00    -0.137 A  
HETATM   30  F   UNL     1      -8.777   7.165  65.002  1.00  0.00    -0.090 F  
HETATM   31  F   UNL     1      -9.179   4.501  65.382  1.00  0.00    -0.130 F  
HETATM   32  C   UNL     1      -9.315   4.771  67.752  1.00  0.00    -0.163 A  
HETATM   33  C   UNL     1      -9.405   3.285  67.850  1.00  0.00    -0.194 C  
HETATM   34  S   UNL     1      -7.731   2.720  68.195  1.00  0.00    -0.055 SA 
HETATM   35  C   UNL     1      -7.718   2.912  69.969  1.00  0.00    -0.043 A  
HETATM   36  C   UNL     1      -6.843   1.970  70.560  1.00  0.00    -0.033 A  
HETATM   37  C   UNL     1      -6.838   1.725  71.924  1.00  0.00    -0.019 A  
HETATM   38  C   UNL     1      -7.767   2.377  72.713  1.00  0.00    -0.052 A  
HETATM   39  C   UNL     1      -8.602   3.360  72.149  1.00  0.00    -0.102 A  
HETATM   40  C   UNL     1      -8.530   3.736  70.779  1.00  0.00    -0.100 A  
ENDBRANCH  11  24
TORSDOF 6
ENDMDL
MODEL       63
REMARK 921   NORMALIZED FREE ENERGY PREDICTED BY IDOCK:   -3.79 KCAL/MOL
REMARK 922        TOTAL FREE ENERGY PREDICTED BY IDOCK:   -5.86 KCAL/MOL
REMARK 923 INTER-LIGAND FREE ENERGY PREDICTED BY IDOCK:   -5.17 KCAL/MOL
REMARK 924 INTRA-LIGAND FREE ENERGY PREDICTED BY IDOCK:   -0.69 KCAL/MOL
REMARK 927      BINDING AFFINITY PREDICTED BY RF-SCORE:    0.00 PKD
ROOT
HETATM    1  C   UNL     1      -8.093   4.988  65.435  1.00  0.00    -0.116 C  
HETATM    2  C   UNL     1      -8.598   4.636  64.005  1.00  0.00    -0.136 C  
HETATM    3  O   UNL     1      -9.728   3.753  63.973  1.00  0.00    -0.147 OA 
HETATM    4  C   UNL     1     -10.764   4.259  64.810  1.00  0.00    -0.103 C  
HETATM    5  C   UNL     1     -10.341   4.175  66.271  1.00  0.00     0.151 C  
HETATM    6  N   UNL     1      -8.964   4.597  66.524  1.00  0.00    -0.111 N  
HETATM    7  C   UNL     1      -8.481   4.620  67.831  1.00  0.00    -0.102 C  
HETATM    8  O   UNL     1      -9.054   4.014  68.733  1.00  0.00    -0.111 OA 
HETATM    9  C   UNL     1      -7.390   5.677  68.071  1.00  0.00    -0.073 C  
HETATM   10  C   UNL     1      -7.083   6.033  69.344  1.00  0.00    -0.066 C  
HETATM   11  N   UNL     1      -7.593   6.347  65.693  1.00  0.00    -0.082 NA 
HETATM   12  C   UNL     1      -6.105   7.171  69.520  1.00  0.00    -0.030 C  
HETATM   13  O   UNL     1      -5.826   7.650  70.616  1.00  0.00    -0.030 OA 
HETATM   14  N   UNL     1      -6.912   6.405  66.956  1.00  0.00    -0.069 NA 
HETATM   15  C   UNL     1      -5.452   7.727  68.321  1.00  0.00    -0.031 C  
HETATM   16  C   UNL     1      -5.891   7.313  67.131  1.00  0.00    -0.030 C  
ENDROOT
BRANCH  10  17
HETATM   17  O   UNL     1      -7.761   5.518  70.431  1.00  0.00    -0.081 OA 
BRANCH  17  18
HETATM   18  C   UNL     1      -8.849   6.282  70.941  1.00  0.00    -0.136 C  
BRANCH  18  19
HETATM   19  O   UNL     1      -8.485   6.869  72.190  1.00  0.00    -0.113 OA 
BRANCH  19  20
HETATM   20  C   UNL     1      -8.972   8.121  72.337  1.00  0.00    -0.201 C  
HETATM   21  O   UNL     1      -8.541   9.135  71.806  1.00  0.00    -0.340 OA 
BRANCH  20  22
HETATM   22  O   UNL     1     -10.058   8.057  73.149  1.00  0.00    -0.307 OA 
HETATM   23  C   UNL     1     -11.294   8.141  72.450  1.00  0.00    -0.391 C  
ENDBRANCH  20  22
ENDBRANCH  19  20
ENDBRANCH  18  19
ENDBRANCH  17  18
ENDBRANCH  10  17
BRANCH  11  24
HETATM   24  C   UNL     1      -8.365   7.597  65.255  1.00  0.00    -0.115 C  
HETATM   25  C   UNL     1      -9.264   8.312  66.328  1.00  0.00    -0.258 A  
HETATM   26  C   UNL     1      -9.472   7.797  67.618  1.00  0.00    -0.168 A  
HETATM   27  C   UNL     1     -10.216   8.383  68.647  1.00  0.00    -0.220 A  
HETATM   28  C   UNL     1     -10.853   9.560  68.390  1.00  0.00    -0.137 A  
HETATM   29  C   UNL     1     -10.765  10.098  67.122  1.00  0.00    -0.221 A  
HETATM   30  F   UNL     1     -11.531  10.176  69.367  1.00  0.00    -0.252 F  
HETATM   31  F   UNL     1     -11.399  11.255  66.872  1.00  0.00    -0.342 F  
HETATM   32  C   UNL     1     -10.010   9.479  66.083  1.00  0.00    -0.342 A  
HETATM   33  C   UNL     1      -9.907  10.221  64.792  1.00  0.00    -0.334 C  
HETATM   34  S   UNL     1      -8.363  11.141  64.886  1.00  0.00     0.418 SA 
HETATM   35  C   UNL     1      -7.234   9.874  64.334  1.00  0.00    -0.134 A  
HETATM   36  C   UNL     1      -6.116  10.455  63.689  1.00  0.00    -0.094 A  
HETATM   37  C   UNL     1      -5.224   9.703  62.943  1.00  0.00    -0.082 A  
HETATM   38  C   UNL     1      -5.480   8.355  62.774  1.00  0.00    -0.070 A  
HETATM   39  C   UNL     1      -6.552   7.752  63.457  1.00  0.00    -0.062 A  
HETATM   40  C   UNL     1      -7.399   8.471  64.346  1.00  0.00    -0.097 A  
ENDBRANCH  11  24
TORSDOF 6
ENDMDL
MODEL       64
REMARK 921   NORMALIZED FREE ENERGY PREDICTED BY IDOCK:   -3.74 KCAL/MOL
REMARK 922        TOTAL FREE ENERGY PREDICTED BY IDOCK:   -5.79 KCAL/MOL
REMARK 923 INTER-LIGAND FREE ENERGY PREDICTED BY IDOCK:   -4.96 KCAL/MOL
REMARK 924 INTRA-LIGAND FREE ENERGY PREDICTED BY IDOCK:   -0.82 KCAL/MOL
REMARK 927      BINDING AFFINITY PREDICTED BY RF-SCORE:    0.00 PKD
ROOT
HETATM    1  C   UNL     1      -5.449   7.623  71.051  1.00  0.00    -0.030 C  
HETATM    2  C   UNL     1      -5.138   6.572  72.157  1.00  0.00    -0.027 C  
HETATM    3  O   UNL     1      -5.141   7.096  73.493  1.00  0.00    -0.041 OA 
HETATM    4  C   UNL     1      -6.355   7.802  73.736  1.00  0.00    -0.082 C  
HETATM    5  C   UNL     1      -6.392   9.075  72.900  1.00  0.00     0.145 C  
HETATM    6  N   UNL     1      -5.943   8.901  71.518  1.00  0.00    -0.055 N  
HETATM    7  C   UNL     1      -5.989   9.982  70.639  1.00  0.00    -0.094 C  
HETATM    8  O   UNL     1      -6.094  11.134  71.052  1.00  0.00    -0.366 OA 
HETATM    9  C   UNL     1      -6.192   9.578  69.170  1.00  0.00    -0.041 C  
HETATM   10  C   UNL     1      -6.587  10.518  68.274  1.00  0.00    -0.059 C  
HETATM   11  N   UNL     1      -6.242   7.206  69.885  1.00  0.00    -0.027 NA 
HETATM   12  C   UNL     1      -6.904  10.043  66.876  1.00  0.00    -0.087 C  
HETATM   13  O   UNL     1      -7.367  10.777  66.008  1.00  0.00    -0.142 OA 
HETATM   14  N   UNL     1      -6.184   8.200  68.850  1.00  0.00    -0.039 NA 
HETATM   15  C   UNL     1      -6.640   8.632  66.538  1.00  0.00    -0.063 C  
HETATM   16  C   UNL     1      -6.300   7.812  67.533  1.00  0.00    -0.055 C  
ENDROOT
BRANCH  10  17
HETATM   17  O   UNL     1      -6.871  11.816  68.653  1.00  0.00    -0.069 OA 
BRANCH  17  18
HETATM   18  C   UNL     1      -8.243  12.193  68.704  1.00  0.00    -0.033 C  
BRANCH  18  19
HETATM   19  O   UNL     1      -8.442  13.394  67.960  1.00  0.00    -0.153 OA 
BRANCH  19  20
HETATM   20  C   UNL     1      -9.683  13.478  67.431  1.00  0.00    -0.229 C  
HETATM   21  O   UNL     1     -10.296  14.506  67.178  1.00  0.00    -0.262 OA 
BRANCH  20  22
HETATM   22  O   UNL     1     -10.121  12.217  67.183  1.00  0.00    -0.205 OA 
HETATM   23  C   UNL     1     -10.703  12.062  65.894  1.00  0.00    -0.275 C  
ENDBRANCH  20  22
ENDBRANCH  19  20
ENDBRANCH  18  19
ENDBRANCH  17  18
ENDBRANCH  10  17
BRANCH  11  24
HETATM   24  C   UNL     1      -7.550   6.418  70.027  1.00  0.00    -0.096 C  
HETATM   25  C   UNL     1      -8.878   7.238  70.215  1.00  0.00    -0.147 A  
HETATM   26  C   UNL     1      -8.900   8.635  70.366  1.00  0.00    -0.170 A  
HETATM   27  C   UNL     1     -10.031   9.447  70.495  1.00  0.00    -0.328 A  
HETATM   28  C   UNL     1     -11.255   8.849  70.519  1.00  0.00    -0.252 A  
HETATM   29  C   UNL     1     -11.320   7.471  70.454  1.00  0.00    -0.233 A  
HETATM   30  F   UNL     1     -12.361   9.599  70.588  1.00  0.00    -0.316 F  
HETATM   31  F   UNL     1     -12.527   6.885  70.484  1.00  0.00    -0.401 F  
HETATM   32  C   UNL     1     -10.154   6.659  70.334  1.00  0.00    -0.205 A  
HETATM   33  C   UNL     1     -10.371   5.193  70.162  1.00  0.00    -0.270 C  
HETATM   34  S   UNL     1     -10.327   4.903  68.385  1.00  0.00     0.128 SA 
HETATM   35  C   UNL     1      -8.564   4.745  68.159  1.00  0.00    -0.102 A  
HETATM   36  C   UNL     1      -8.281   3.892  67.066  1.00  0.00    -0.099 A  
HETATM   37  C   UNL     1      -7.010   3.393  66.833  1.00  0.00    -0.054 A  
HETATM   38  C   UNL     1      -6.009   3.689  67.739  1.00  0.00    -0.027 A  
HETATM   39  C   UNL     1      -6.260   4.584  68.796  1.00  0.00    -0.032 A  
HETATM   40  C   UNL     1      -7.517   5.226  68.977  1.00  0.00    -0.070 A  
ENDBRANCH  11  24
TORSDOF 6
ENDMDL
MODEL       65
REMARK 921   NORMALIZED FREE ENERGY PREDICTED BY IDOCK:   -3.70 KCAL/MOL
REMARK 922        TOTAL FREE ENERGY PREDICTED BY IDOCK:   -5.73 KCAL/MOL
REMARK 923 INTER-LIGAND FREE ENERGY PREDICTED BY IDOCK:   -7.88 KCAL/MOL
REMARK 924 INTRA-LIGAND FREE ENERGY PREDICTED BY IDOCK:    2.15 KCAL/MOL
REMARK 927      BINDING AFFINITY PREDICTED BY RF-SCORE:    0.00 PKD
ROOT
HETATM    1  C   UNL     1     -10.046  13.043  68.694  1.00  0.00    -0.136 C  
HETATM    2  C   UNL     1     -10.390  11.711  69.423  1.00  0.00     0.178 C  
HETATM    3  O   UNL     1     -11.745  11.271  69.250  1.00  0.00    -0.275 OA 
HETATM    4  C   UNL     1     -12.071  11.235  67.863  1.00  0.00     0.215 C  
HETATM    5  C   UNL     1     -12.128  12.651  67.305  1.00  0.00    -0.114 C  
HETATM    6  N   UNL     1     -11.035  13.517  67.749  1.00  0.00    -0.261 N  
HETATM    7  C   UNL     1     -10.947  14.819  67.258  1.00  0.00    -0.318 C  
HETATM    8  O   UNL     1     -11.908  15.362  66.718  1.00  0.00     0.009 OA 
HETATM    9  C   UNL     1      -9.510  15.360  67.191  1.00  0.00    -0.213 C  
HETATM   10  C   UNL     1      -9.250  16.456  66.433  1.00  0.00    -0.302 C  
HETATM   11  N   UNL     1      -8.711  13.196  68.098  1.00  0.00    -0.188 NA 
HETATM   12  C   UNL     1      -7.803  16.864  66.292  1.00  0.00    -0.311 C  
HETATM   13  O   UNL     1      -7.433  17.774  65.554  1.00  0.00    -0.491 OA 
HETATM   14  N   UNL     1      -8.472  14.564  67.733  1.00  0.00    -0.163 NA 
HETATM   15  C   UNL     1      -6.789  16.141  67.081  1.00  0.00    -0.240 C  
HETATM   16  C   UNL     1      -7.184  15.052  67.743  1.00  0.00    -0.168 C  
ENDROOT
BRANCH  10  17
HETATM   17  O   UNL     1     -10.228  17.067  65.672  1.00  0.00    -0.556 OA 
BRANCH  17  18
HETATM   18  C   UNL     1     -10.538  18.421  65.979  1.00  0.00    -0.309 C  
BRANCH  18  19
HETATM   19  O   UNL     1     -10.814  18.550  67.374  1.00  0.00    -0.421 OA 
BRANCH  19  20
HETATM   20  C   UNL     1     -10.065  19.507  67.965  1.00  0.00    -0.420 C  
HETATM   21  O   UNL     1     -10.058  19.792  69.155  1.00  0.00    -0.438 OA 
BRANCH  20  22
HETATM   22  O   UNL     1      -9.279  20.075  67.014  1.00  0.00    -0.338 OA 
HETATM   23  C   UNL     1      -8.031  20.540  67.512  1.00  0.00    -0.266 C  
ENDBRANCH  20  22
ENDBRANCH  19  20
ENDBRANCH  18  19
ENDBRANCH  17  18
ENDBRANCH  10  17
BRANCH  11  24
HETATM   24  C   UNL     1      -8.084  12.115  67.210  1.00  0.00    -0.176 C  
HETATM   25  C   UNL     1      -7.582  10.799  67.910  1.00  0.00    -0.091 A  
HETATM   26  C   UNL     1      -7.584  10.625  69.304  1.00  0.00    -0.138 A  
HETATM   27  C   UNL     1      -7.199   9.480  70.007  1.00  0.00    -0.101 A  
HETATM   28  C   UNL     1      -6.729   8.415  69.298  1.00  0.00    -0.046 A  
HETATM   29  C   UNL     1      -6.621   8.530  67.926  1.00  0.00    -0.061 A  
HETATM   30  F   UNL     1      -6.402   7.284  69.934  1.00  0.00    -0.031 F  
HETATM   31  F   UNL     1      -6.152   7.481  67.232  1.00  0.00    -0.040 F  
HETATM   32  C   UNL     1      -7.008   9.711  67.228  1.00  0.00    -0.085 A  
HETATM   33  C   UNL     1      -6.944   9.663  65.738  1.00  0.00    -0.098 C  
HETATM   34  S   UNL     1      -8.603   9.221  65.196  1.00  0.00    -0.182 SA 
HETATM   35  C   UNL     1      -9.349  10.842  65.187  1.00  0.00    -0.218 A  
HETATM   36  C   UNL     1     -10.376  10.908  64.215  1.00  0.00    -0.436 A  
HETATM   37  C   UNL     1     -10.937  12.110  63.819  1.00  0.00    -0.494 A  
HETATM   38  C   UNL     1     -10.426  13.281  64.345  1.00  0.00    -0.424 A  
HETATM   39  C   UNL     1      -9.448  13.230  65.356  1.00  0.00     0.228 A  
HETATM   40  C   UNL     1      -8.955  12.005  65.887  1.00  0.00     0.035 A  
ENDBRANCH  11  24
TORSDOF 6
ENDMDL
MODEL       66
REMARK 921   NORMALIZED FREE ENERGY PREDICTED BY IDOCK:   -3.51 KCAL/MOL
REMARK 922        TOTAL FREE ENERGY PREDICTED BY IDOCK:   -5.48 KCAL/MOL
REMARK 923 INTER-LIGAND FREE ENERGY PREDICTED BY IDOCK:   -8.10 KCAL/MOL
REMARK 924 INTRA-LIGAND FREE ENERGY PREDICTED BY IDOCK:    2.62 KCAL/MOL
REMARK 927      BINDING AFFINITY PREDICTED BY RF-SCORE:    0.00 PKD
ROOT
HETATM    1  C   UNL     1      -7.910  11.525  68.395  1.00  0.00    -0.136 C  
HETATM    2  C   UNL     1      -7.274  12.705  67.601  1.00  0.00    -0.142 C  
HETATM    3  O   UNL     1      -6.015  12.399  66.988  1.00  0.00    -0.254 OA 
HETATM    4  C   UNL     1      -6.130  11.213  66.205  1.00  0.00    -0.084 C  
HETATM    5  C   UNL     1      -6.337  10.008  67.113  1.00  0.00    -0.067 C  
HETATM    6  N   UNL     1      -7.291  10.230  68.200  1.00  0.00    -0.084 N  
HETATM    7  C   UNL     1      -7.609   9.182  69.061  1.00  0.00    -0.074 C  
HETATM    8  O   UNL     1      -6.897   8.183  69.138  1.00  0.00    -0.053 OA 
HETATM    9  C   UNL     1      -9.027   9.267  69.647  1.00  0.00    -0.160 C  
HETATM   10  C   UNL     1      -9.576   8.164  70.215  1.00  0.00    -0.171 C  
HETATM   11  N   UNL     1      -9.371  11.361  68.366  1.00  0.00    -0.189 NA 
HETATM   12  C   UNL     1     -11.019   8.262  70.650  1.00  0.00    -0.240 C  
HETATM   13  O   UNL     1     -11.655   7.305  71.083  1.00  0.00    -0.272 OA 
HETATM   14  N   UNL     1      -9.795  10.422  69.366  1.00  0.00    -0.225 NA 
HETATM   15  C   UNL     1     -11.693   9.570  70.555  1.00  0.00    -0.285 C  
HETATM   16  C   UNL     1     -11.046  10.554  69.929  1.00  0.00    -0.307 C  
ENDROOT
BRANCH  10  17
HETATM   17  O   UNL     1      -8.921   6.948  70.232  1.00  0.00    -0.151 OA 
BRANCH  17  18
HETATM   18  C   UNL     1      -8.477   6.467  71.496  1.00  0.00    -0.129 C  
BRANCH  18  19
HETATM   19  O   UNL     1      -8.779   7.423  72.511  1.00  0.00    -0.119 OA 
BRANCH  19  20
HETATM   20  C   UNL     1      -7.754   7.609  73.373  1.00  0.00    -0.112 C  
HETATM   21  O   UNL     1      -7.819   8.135  74.475  1.00  0.00    -0.219 OA 
BRANCH  20  22
HETATM   22  O   UNL     1      -6.638   7.068  72.820  1.00  0.00    -0.060 OA 
HETATM   23  C   UNL     1      -5.496   7.138  73.666  1.00  0.00    -0.046 C  
ENDBRANCH  20  22
ENDBRANCH  19  20
ENDBRANCH  18  19
ENDBRANCH  17  18
ENDBRANCH  10  17
BRANCH  11  24
HETATM   24  C   UNL     1     -10.171  11.403  67.059  1.00  0.00    -0.213 C  
HETATM   25  C   UNL     1     -10.406  12.808  66.394  1.00  0.00    -0.271 A  
HETATM   26  C   UNL     1     -10.015  14.015  66.996  1.00  0.00    -0.257 A  
HETATM   27  C   UNL     1     -10.144  15.301  66.461  1.00  0.00    -0.280 A  
HETATM   28  C   UNL     1     -10.745  15.436  65.246  1.00  0.00    -0.421 A  
HETATM   29  C   UNL     1     -11.230  14.305  64.618  1.00  0.00    -0.366 A  
HETATM   30  F   UNL     1     -10.839  16.645  64.681  1.00  0.00    -0.362 F  
HETATM   31  F   UNL     1     -11.827  14.444  63.424  1.00  0.00    -0.068 F  
HETATM   32  C   UNL     1     -11.099  13.004  65.185  1.00  0.00    -0.317 A  
HETATM   33  C   UNL     1     -11.568  11.858  64.353  1.00  0.00    -0.292 C  
HETATM   34  S   UNL     1     -10.104  11.250  63.499  1.00  0.00    -0.432 SA 
HETATM   35  C   UNL     1      -9.458  10.167  64.762  1.00  0.00    -0.295 A  
HETATM   36  C   UNL     1      -8.740   9.098  64.175  1.00  0.00    -0.170 A  
HETATM   37  C   UNL     1      -8.359   7.982  64.901  1.00  0.00    -0.108 A  
HETATM   38  C   UNL     1      -8.755   7.889  66.222  1.00  0.00    -0.174 A  
HETATM   39  C   UNL     1      -9.416   8.970  66.836  1.00  0.00    -0.219 A  
HETATM   40  C   UNL     1      -9.693  10.188  66.154  1.00  0.00    -0.275 A  
ENDBRANCH  11  24
TORSDOF 6
ENDMDL
MODEL       67
REMARK 921   NORMALIZED FREE ENERGY PREDICTED BY IDOCK:   -3.46 KCAL/MOL
REMARK 922        TOTAL FREE ENERGY PREDICTED BY IDOCK:   -5.41 KCAL/MOL
REMARK 923 INTER-LIGAND FREE ENERGY PREDICTED BY IDOCK:   -4.87 KCAL/MOL
REMARK 924 INTRA-LIGAND FREE ENERGY PREDICTED BY IDOCK:   -0.55 KCAL/MOL
REMARK 927      BINDING AFFINITY PREDICTED BY RF-SCORE:    0.00 PKD
ROOT
HETATM    1  C   UNL     1      -7.873   5.112  66.082  1.00  0.00    -0.103 C  
HETATM    2  C   UNL     1      -8.176   5.188  64.557  1.00  0.00    -0.133 C  
HETATM    3  O   UNL     1      -9.205   4.294  64.109  1.00  0.00    -0.146 OA 
HETATM    4  C   UNL     1     -10.374   4.458  64.907  1.00  0.00    -0.106 C  
HETATM    5  C   UNL     1     -10.113   3.953  66.320  1.00  0.00     0.087 C  
HETATM    6  N   UNL     1      -8.820   4.355  66.874  1.00  0.00    -0.112 N  
HETATM    7  C   UNL     1      -8.494   4.004  68.183  1.00  0.00    -0.093 C  
HETATM    8  O   UNL     1      -9.105   3.117  68.775  1.00  0.00    -0.121 OA 
HETATM    9  C   UNL     1      -7.545   4.996  68.874  1.00  0.00    -0.073 C  
HETATM   10  C   UNL     1      -7.420   4.961  70.225  1.00  0.00    -0.058 C  
HETATM   11  N   UNL     1      -7.540   6.351  66.799  1.00  0.00    -0.097 NA 
HETATM   12  C   UNL     1      -6.583   6.043  70.864  1.00  0.00    -0.045 C  
HETATM   13  O   UNL     1      -6.477   6.177  72.080  1.00  0.00    -0.055 OA 
HETATM   14  N   UNL     1      -7.015   6.058  68.103  1.00  0.00    -0.073 NA 
HETATM   15  C   UNL     1      -5.855   6.978  69.986  1.00  0.00    -0.023 C  
HETATM   16  C   UNL     1      -6.113   6.925  68.679  1.00  0.00    -0.026 C  
ENDROOT
BRANCH  10  17
HETATM   17  O   UNL     1      -8.164   4.098  71.006  1.00  0.00    -0.072 OA 
BRANCH  17  18
HETATM   18  C   UNL     1      -9.248   4.657  71.739  1.00  0.00    -0.137 C  
BRANCH  18  19
HETATM   19  O   UNL     1     -10.174   3.630  72.093  1.00  0.00    -0.167 OA 
BRANCH  19  20
HETATM   20  C   UNL     1     -10.797   3.873  73.268  1.00  0.00    -0.204 C  
HETATM   21  O   UNL     1     -11.291   4.935  73.621  1.00  0.00    -0.303 OA 
BRANCH  20  22
HETATM   22  O   UNL     1     -10.819   2.716  73.979  1.00  0.00    -0.173 OA 
HETATM   23  C   UNL     1     -11.876   1.841  73.603  1.00  0.00    -0.161 C  
ENDBRANCH  20  22
ENDBRANCH  19  20
ENDBRANCH  18  19
ENDBRANCH  17  18
ENDBRANCH  10  17
BRANCH  11  24
HETATM   24  C   UNL     1      -8.373   7.629  66.650  1.00  0.00    -0.127 C  
HETATM   25  C   UNL     1      -9.419   7.952  67.779  1.00  0.00    -0.165 A  
HETATM   26  C   UNL     1      -9.693   7.076  68.842  1.00  0.00    -0.144 A  
HETATM   27  C   UNL     1     -10.571   7.298  69.908  1.00  0.00    -0.244 A  
HETATM   28  C   UNL     1     -11.280   8.461  69.927  1.00  0.00    -0.026 A  
HETATM   29  C   UNL     1     -11.129   9.346  68.878  1.00  0.00     0.033 A  
HETATM   30  F   UNL     1     -12.089   8.730  70.959  1.00  0.00    -0.301 F  
HETATM   31  F   UNL     1     -11.834  10.488  68.898  1.00  0.00    -0.315 F  
HETATM   32  C   UNL     1     -10.237   9.097  67.794  1.00  0.00    -0.278 A  
HETATM   33  C   UNL     1     -10.086  10.184  66.783  1.00  0.00    -0.219 C  
HETATM   34  S   UNL     1      -8.639  11.124  67.297  1.00  0.00    -0.143 SA 
HETATM   35  C   UNL     1      -7.364  10.135  66.535  1.00  0.00    -0.108 A  
HETATM   36  C   UNL     1      -6.248  10.940  66.203  1.00  0.00    -0.130 A  
HETATM   37  C   UNL     1      -5.234  10.486  65.375  1.00  0.00    -0.114 A  
HETATM   38  C   UNL     1      -5.359   9.233  64.807  1.00  0.00    -0.049 A  
HETATM   39  C   UNL     1      -6.432   8.398  65.173  1.00  0.00    -0.056 A  
HETATM   40  C   UNL     1      -7.411   8.782  66.133  1.00  0.00    -0.086 A  
ENDBRANCH  11  24
TORSDOF 6
ENDMDL
MODEL       68
REMARK 921   NORMALIZED FREE ENERGY PREDICTED BY IDOCK:   -3.43 KCAL/MOL
REMARK 922        TOTAL FREE ENERGY PREDICTED BY IDOCK:   -5.37 KCAL/MOL
REMARK 923 INTER-LIGAND FREE ENERGY PREDICTED BY IDOCK:   -7.69 KCAL/MOL
REMARK 924 INTRA-LIGAND FREE ENERGY PREDICTED BY IDOCK:    2.33 KCAL/MOL
REMARK 927      BINDING AFFINITY PREDICTED BY RF-SCORE:    0.00 PKD
ROOT
HETATM    1  C   UNL     1      -9.938  13.442  65.459  1.00  0.00    -0.210 C  
HETATM    2  C   UNL     1     -10.731  14.684  64.955  1.00  0.00    -0.430 C  
HETATM    3  O   UNL     1     -12.102  14.420  64.624  1.00  0.00    -0.430 OA 
HETATM    4  C   UNL     1     -12.747  13.763  65.712  1.00  0.00    -0.446 C  
HETATM    5  C   UNL     1     -12.188  12.356  65.876  1.00  0.00    -0.144 C  
HETATM    6  N   UNL     1     -10.732  12.271  65.766  1.00  0.00    -0.255 N  
HETATM    7  C   UNL     1     -10.099  11.043  65.958  1.00  0.00    -0.247 C  
HETATM    8  O   UNL     1     -10.726   9.989  65.907  1.00  0.00    -0.011 OA 
HETATM    9  C   UNL     1      -8.670  11.162  66.514  1.00  0.00    -0.174 C  
HETATM   10  C   UNL     1      -8.079  10.068  67.057  1.00  0.00    -0.117 C  
HETATM   11  N   UNL     1      -8.936  13.626  66.520  1.00  0.00    -0.118 NA 
HETATM   12  C   UNL     1      -6.733  10.271  67.711  1.00  0.00    -0.073 C  
HETATM   13  O   UNL     1      -6.145   9.383  68.323  1.00  0.00    -0.048 OA 
HETATM   14  N   UNL     1      -8.114  12.457  66.650  1.00  0.00     0.016 NA 
HETATM   15  C   UNL     1      -6.092  11.595  67.604  1.00  0.00    -0.068 C  
HETATM   16  C   UNL     1      -6.814  12.589  67.086  1.00  0.00    -0.052 C  
ENDROOT
BRANCH  10  17
HETATM   17  O   UNL     1      -8.742   8.863  67.179  1.00  0.00    -0.119 OA 
BRANCH  17  18
HETATM   18  C   UNL     1      -8.142   7.726  66.567  1.00  0.00    -0.111 C  
BRANCH  18  19
HETATM   19  O   UNL     1      -7.943   7.974  65.176  1.00  0.00    -0.112 OA 
BRANCH  19  20
HETATM   20  C   UNL     1      -6.870   7.319  64.679  1.00  0.00    -0.050 C  
HETATM   21  O   UNL     1      -5.894   6.939  65.312  1.00  0.00    -0.034 OA 
BRANCH  20  22
HETATM   22  O   UNL     1      -7.080   7.112  63.353  1.00  0.00    -0.058 OA 
HETATM   23  C   UNL     1      -8.158   7.874  62.825  1.00  0.00    -0.130 C  
ENDBRANCH  20  22
ENDBRANCH  19  20
ENDBRANCH  18  19
ENDBRANCH  17  18
ENDBRANCH  10  17
BRANCH  11  24
HETATM   24  C   UNL     1      -9.237  14.418  67.798  1.00  0.00    -0.192 C  
HETATM   25  C   UNL     1      -9.472  15.966  67.658  1.00  0.00    -0.219 A  
HETATM   26  C   UNL     1      -9.311  16.658  66.446  1.00  0.00    -0.309 A  
HETATM   27  C   UNL     1      -9.538  18.019  66.220  1.00  0.00    -0.246 A  
HETATM   28  C   UNL     1      -9.921  18.792  67.275  1.00  0.00    -0.331 A  
HETATM   29  C   UNL     1     -10.028  18.206  68.520  1.00  0.00    -0.395 A  
HETATM   30  F   UNL     1     -10.198  20.088  67.084  1.00  0.00    -0.485 F  
HETATM   31  F   UNL     1     -10.399  18.973  69.558  1.00  0.00    -0.305 F  
HETATM   32  C   UNL     1      -9.781  16.819  68.733  1.00  0.00    -0.261 A  
HETATM   33  C   UNL     1     -10.040  16.292  70.105  1.00  0.00     0.268 C  
HETATM   34  S   UNL     1     -11.713  15.627  70.059  1.00  0.00    -0.369 SA 
HETATM   35  C   UNL     1     -11.362  13.999  69.418  1.00  0.00    -0.268 A  
HETATM   36  C   UNL     1     -12.321  13.068  69.884  1.00  0.00    -0.177 A  
HETATM   37  C   UNL     1     -12.141  11.700  69.754  1.00  0.00    -0.357 A  
HETATM   38  C   UNL     1     -10.956  11.240  69.213  1.00  0.00    -0.297 A  
HETATM   39  C   UNL     1     -10.020  12.152  68.691  1.00  0.00    -0.137 A  
HETATM   40  C   UNL     1     -10.242  13.558  68.678  1.00  0.00    -0.193 A  
ENDBRANCH  11  24
TORSDOF 6
ENDMDL
MODEL       69
REMARK 921   NORMALIZED FREE ENERGY PREDICTED BY IDOCK:   -3.42 KCAL/MOL
REMARK 922        TOTAL FREE ENERGY PREDICTED BY IDOCK:   -5.35 KCAL/MOL
REMARK 923 INTER-LIGAND FREE ENERGY PREDICTED BY IDOCK:   -7.88 KCAL/MOL
REMARK 924 INTRA-LIGAND FREE ENERGY PREDICTED BY IDOCK:    2.53 KCAL/MOL
REMARK 927      BINDING AFFINITY PREDICTED BY RF-SCORE:    0.00 PKD
ROOT
HETATM    1  C   UNL     1      -9.079  10.966  68.637  1.00  0.00    -0.175 C  
HETATM    2  C   UNL     1      -8.812   9.438  68.499  1.00  0.00    -0.128 C  
HETATM    3  O   UNL     1      -9.975   8.614  68.664  1.00  0.00    -0.172 OA 
HETATM    4  C   UNL     1     -11.018   9.066  67.804  1.00  0.00     0.067 C  
HETATM    5  C   UNL     1     -11.527  10.423  68.273  1.00  0.00    -0.144 C  
HETATM    6  N   UNL     1     -10.472  11.363  68.654  1.00  0.00    -0.195 N  
HETATM    7  C   UNL     1     -10.812  12.657  69.043  1.00  0.00    -0.146 C  
HETATM    8  O   UNL     1     -11.960  12.941  69.374  1.00  0.00    -0.302 OA 
HETATM    9  C   UNL     1      -9.727  13.702  68.738  1.00  0.00    -0.034 C  
HETATM   10  C   UNL     1     -10.054  15.019  68.750  1.00  0.00    -0.231 C  
HETATM   11  N   UNL     1      -8.334  11.893  67.772  1.00  0.00    -0.140 NA 
HETATM   12  C   UNL     1      -8.989  15.995  68.309  1.00  0.00    -0.183 C  
HETATM   13  O   UNL     1      -9.195  17.198  68.181  1.00  0.00    -0.246 OA 
HETATM   14  N   UNL     1      -8.487  13.246  68.229  1.00  0.00    -0.165 NA 
HETATM   15  C   UNL     1      -7.638  15.477  68.025  1.00  0.00    -0.133 C  
HETATM   16  C   UNL     1      -7.475  14.154  68.005  1.00  0.00    -0.140 C  
ENDROOT
BRANCH  10  17
HETATM   17  O   UNL     1     -11.348  15.449  68.972  1.00  0.00    -0.275 OA 
BRANCH  17  18
HETATM   18  C   UNL     1     -11.585  16.219  70.145  1.00  0.00    -0.136 C  
BRANCH  18  19
HETATM   19  O   UNL     1     -12.667  15.654  70.885  1.00  0.00    -0.451 OA 
BRANCH  19  20
HETATM   20  C   UNL     1     -12.554  15.864  72.215  1.00  0.00    -0.454 C  
HETATM   21  O   UNL     1     -11.808  16.664  72.763  1.00  0.00    -0.519 OA 
BRANCH  20  22
HETATM   22  O   UNL     1     -13.448  15.059  72.845  1.00  0.00    -0.457 OA 
HETATM   23  C   UNL     1     -14.074  14.120  71.979  1.00  0.00    -0.528 C  
ENDBRANCH  20  22
ENDBRANCH  19  20
ENDBRANCH  18  19
ENDBRANCH  17  18
ENDBRANCH  10  17
BRANCH  11  24
HETATM   24  C   UNL     1      -8.204  11.674  66.261  1.00  0.00     0.012 C  
HETATM   25  C   UNL     1      -7.405  10.410  65.774  1.00  0.00    -0.147 A  
HETATM   26  C   UNL     1      -6.724   9.551  66.652  1.00  0.00    -0.072 A  
HETATM   27  C   UNL     1      -6.027   8.386  66.314  1.00  0.00    -0.045 A  
HETATM   28  C   UNL     1      -5.948   8.041  64.999  1.00  0.00    -0.045 A  
HETATM   29  C   UNL     1      -6.525   8.874  64.060  1.00  0.00    -0.083 A  
HETATM   30  F   UNL     1      -5.334   6.906  64.644  1.00  0.00    -0.025 F  
HETATM   31  F   UNL     1      -6.439   8.533  62.764  1.00  0.00    -0.088 F  
HETATM   32  C   UNL     1      -7.221  10.063  64.423  1.00  0.00    -0.134 A  
HETATM   33  C   UNL     1      -7.892  10.814  63.321  1.00  0.00     0.131 C  
HETATM   34  S   UNL     1      -9.597  10.237  63.312  1.00  0.00    -0.164 SA 
HETATM   35  C   UNL     1     -10.276  11.316  64.561  1.00  0.00    -0.314 A  
HETATM   36  C   UNL     1     -11.648  11.559  64.310  1.00  0.00    -0.219 A  
HETATM   37  C   UNL     1     -12.350  12.557  64.965  1.00  0.00    -0.522 A  
HETATM   38  C   UNL     1     -11.664  13.379  65.840  1.00  0.00    -0.389 A  
HETATM   39  C   UNL     1     -10.316  13.112  66.145  1.00  0.00    -0.287 A  
HETATM   40  C   UNL     1      -9.609  12.005  65.597  1.00  0.00    -0.205 A  
ENDBRANCH  11  24
TORSDOF 6
ENDMDL
MODEL       70
REMARK 921   NORMALIZED FREE ENERGY PREDICTED BY IDOCK:   -3.28 KCAL/MOL
REMARK 922        TOTAL FREE ENERGY PREDICTED BY IDOCK:   -5.17 KCAL/MOL
REMARK 923 INTER-LIGAND FREE ENERGY PREDICTED BY IDOCK:   -5.10 KCAL/MOL
REMARK 924 INTRA-LIGAND FREE ENERGY PREDICTED BY IDOCK:   -0.08 KCAL/MOL
REMARK 927      BINDING AFFINITY PREDICTED BY RF-SCORE:    0.00 PKD
ROOT
HETATM    1  C   UNL     1      -8.439  11.217  68.821  1.00  0.00    -0.134 C  
HETATM    2  C   UNL     1      -7.897  12.653  68.556  1.00  0.00    -0.104 C  
HETATM    3  O   UNL     1      -6.778  13.026  69.372  1.00  0.00    -0.095 OA 
HETATM    4  C   UNL     1      -5.759  12.033  69.286  1.00  0.00    -0.072 C  
HETATM    5  C   UNL     1      -6.225  10.750  69.962  1.00  0.00    -0.119 C  
HETATM    6  N   UNL     1      -7.605  10.373  69.651  1.00  0.00    -0.158 N  
HETATM    7  C   UNL     1      -8.125   9.186  70.164  1.00  0.00    -0.140 C  
HETATM    8  O   UNL     1      -7.585   8.608  71.105  1.00  0.00    -0.085 OA 
HETATM    9  C   UNL     1      -9.208   8.550  69.279  1.00  0.00    -0.153 C  
HETATM   10  C   UNL     1      -9.548   7.251  69.479  1.00  0.00    -0.155 C  
HETATM   11  N   UNL     1      -8.928  10.425  67.683  1.00  0.00    -0.137 NA 
HETATM   12  C   UNL     1     -10.515   6.636  68.496  1.00  0.00    -0.213 C  
HETATM   13  O   UNL     1     -10.820   5.447  68.511  1.00  0.00    -0.104 OA 
HETATM   14  N   UNL     1      -9.645   9.269  68.141  1.00  0.00    -0.141 NA 
HETATM   15  C   UNL     1     -11.126   7.507  67.474  1.00  0.00     0.025 C  
HETATM   16  C   UNL     1     -10.659   8.751  67.365  1.00  0.00    -0.233 C  
ENDROOT
BRANCH  10  17
HETATM   17  O   UNL     1      -8.908   6.464  70.416  1.00  0.00    -0.148 OA 
BRANCH  17  18
HETATM   18  C   UNL     1      -8.851   5.065  70.161  1.00  0.00    -0.110 C  
BRANCH  18  19
HETATM   19  O   UNL     1      -7.507   4.680  69.872  1.00  0.00    -0.053 OA 
BRANCH  19  20
HETATM   20  C   UNL     1      -7.437   3.636  69.017  1.00  0.00    -0.053 C  
HETATM   21  O   UNL     1      -7.997   3.546  67.933  1.00  0.00    -0.078 OA 
BRANCH  20  22
HETATM   22  O   UNL     1      -6.596   2.712  69.549  1.00  0.00    -0.032 OA 
HETATM   23  C   UNL     1      -5.958   1.897  68.573  1.00  0.00    -0.024 C  
ENDBRANCH  20  22
ENDBRANCH  19  20
ENDBRANCH  18  19
ENDBRANCH  17  18
ENDBRANCH  10  17
BRANCH  11  24
HETATM   24  C   UNL     1      -8.129  10.286  66.382  1.00  0.00    -0.123 C  
HETATM   25  C   UNL     1      -7.350   8.940  66.147  1.00  0.00    -0.090 A  
HETATM   26  C   UNL     1      -7.269   7.924  67.113  1.00  0.00    -0.090 A  
HETATM   27  C   UNL     1      -6.638   6.683  66.976  1.00  0.00    -0.048 A  
HETATM   28  C   UNL     1      -5.991   6.416  65.807  1.00  0.00    -0.029 A  
HETATM   29  C   UNL     1      -5.955   7.392  64.831  1.00  0.00    -0.038 A  
HETATM   30  F   UNL     1      -5.421   5.219  65.621  1.00  0.00    -0.011 F  
HETATM   31  F   UNL     1      -5.310   7.127  63.684  1.00  0.00    -0.029 F  
HETATM   32  C   UNL     1      -6.594   8.656  64.995  1.00  0.00    -0.068 A  
HETATM   33  C   UNL     1      -6.573   9.577  63.822  1.00  0.00    -0.105 C  
HETATM   34  S   UNL     1      -8.128   9.297  62.959  1.00  0.00    -0.168 SA 
HETATM   35  C   UNL     1      -9.183  10.390  63.894  1.00  0.00    -0.266 A  
HETATM   36  C   UNL     1     -10.235  10.876  63.082  1.00  0.00    -0.253 A  
HETATM   37  C   UNL     1     -11.039  11.933  63.474  1.00  0.00    -0.506 A  
HETATM   38  C   UNL     1     -10.755  12.570  64.668  1.00  0.00    -0.341 A  
HETATM   39  C   UNL     1      -9.751  12.062  65.514  1.00  0.00    -0.221 A  
HETATM   40  C   UNL     1      -9.005  10.890  65.204  1.00  0.00    -0.195 A  
ENDBRANCH  11  24
TORSDOF 6
ENDMDL
MODEL       71
REMARK 921   NORMALIZED FREE ENERGY PREDICTED BY IDOCK:   -3.23 KCAL/MOL
REMARK 922        TOTAL FREE ENERGY PREDICTED BY IDOCK:   -5.10 KCAL/MOL
REMARK 923 INTER-LIGAND FREE ENERGY PREDICTED BY IDOCK:   -7.70 KCAL/MOL
REMARK 924 INTRA-LIGAND FREE ENERGY PREDICTED BY IDOCK:    2.59 KCAL/MOL
REMARK 927      BINDING AFFINITY PREDICTED BY RF-SCORE:    0.00 PKD
ROOT
HETATM    1  C   UNL     1     -10.780   7.962  68.055  1.00  0.00    -0.054 C  
HETATM    2  C   UNL     1     -10.209   6.580  67.618  1.00  0.00    -0.170 C  
HETATM    3  O   UNL     1      -9.519   6.593  66.361  1.00  0.00    -0.168 OA 
HETATM    4  C   UNL     1      -8.529   7.619  66.359  1.00  0.00    -0.137 C  
HETATM    5  C   UNL     1      -9.198   8.987  66.363  1.00  0.00    -0.188 C  
HETATM    6  N   UNL     1     -10.329   9.101  67.284  1.00  0.00    -0.255 N  
HETATM    7  C   UNL     1     -10.984  10.325  67.419  1.00  0.00    -0.252 C  
HETATM    8  O   UNL     1     -10.853  11.213  66.581  1.00  0.00    -0.266 OA 
HETATM    9  C   UNL     1     -11.609  10.543  68.806  1.00  0.00    -0.182 C  
HETATM   10  C   UNL     1     -11.971  11.797  69.178  1.00  0.00    -0.293 C  
HETATM   11  N   UNL     1     -10.756   8.316  69.481  1.00  0.00    -0.210 NA 
HETATM   12  C   UNL     1     -12.452  11.979  70.598  1.00  0.00    -0.247 C  
HETATM   13  O   UNL     1     -12.711  13.077  71.082  1.00  0.00    -0.354 OA 
HETATM   14  N   UNL     1     -11.571   9.472  69.731  1.00  0.00    -0.014 NA 
HETATM   15  C   UNL     1     -12.623  10.780  71.440  1.00  0.00    -0.516 C  
HETATM   16  C   UNL     1     -12.178   9.619  70.958  1.00  0.00    -0.323 C  
ENDROOT
BRANCH  10  17
HETATM   17  O   UNL     1     -11.743  12.894  68.371  1.00  0.00    -0.306 OA 
BRANCH  17  18
HETATM   18  C   UNL     1     -11.000  13.971  68.932  1.00  0.00    -0.259 C  
BRANCH  18  19
HETATM   19  O   UNL     1     -11.737  15.186  68.805  1.00  0.00    -0.329 OA 
BRANCH  19  20
HETATM   20  C   UNL     1     -11.047  16.147  68.152  1.00  0.00    -0.332 C  
HETATM   21  O   UNL     1     -10.592  17.173  68.639  1.00  0.00    -0.346 OA 
BRANCH  20  22
HETATM   22  O   UNL     1     -10.904  15.757  66.859  1.00  0.00    -0.319 OA 
HETATM   23  C   UNL     1      -9.651  16.122  66.292  1.00  0.00    -0.306 C  
ENDBRANCH  20  22
ENDBRANCH  19  20
ENDBRANCH  18  19
ENDBRANCH  17  18
ENDBRANCH  10  17
BRANCH  11  24
HETATM   24  C   UNL     1      -9.501   8.144  70.344  1.00  0.00    -0.163 C  
HETATM   25  C   UNL     1      -9.093   6.682  70.752  1.00  0.00    -0.151 A  
HETATM   26  C   UNL     1      -9.880   5.557  70.457  1.00  0.00    -0.254 A  
HETATM   27  C   UNL     1      -9.577   4.222  70.742  1.00  0.00    -0.256 A  
HETATM   28  C   UNL     1      -8.421   3.952  71.411  1.00  0.00    -0.077 A  
HETATM   29  C   UNL     1      -7.625   5.008  71.809  1.00  0.00    -0.104 A  
HETATM   30  F   UNL     1      -8.073   2.682  71.654  1.00  0.00    -0.052 F  
HETATM   31  F   UNL     1      -6.490   4.738  72.474  1.00  0.00    -0.036 F  
HETATM   32  C   UNL     1      -7.957   6.363  71.519  1.00  0.00    -0.105 A  
HETATM   33  C   UNL     1      -6.956   7.399  71.908  1.00  0.00    -0.062 C  
HETATM   34  S   UNL     1      -5.967   7.694  70.433  1.00  0.00    -0.030 SA 
HETATM   35  C   UNL     1      -7.006   8.896  69.620  1.00  0.00    -0.054 A  
HETATM   36  C   UNL     1      -6.223   9.769  68.827  1.00  0.00    -0.042 A  
HETATM   37  C   UNL     1      -6.737  10.942  68.300  1.00  0.00    -0.063 A  
HETATM   38  C   UNL     1      -8.034  11.296  68.620  1.00  0.00    -0.145 A  
HETATM   39  C   UNL     1      -8.843  10.410  69.357  1.00  0.00    -0.138 A  
HETATM   40  C   UNL     1      -8.388   9.133  69.789  1.00  0.00    -0.136 A  
ENDBRANCH  11  24
TORSDOF 6
ENDMDL
MODEL       72
REMARK 921   NORMALIZED FREE ENERGY PREDICTED BY IDOCK:   -3.19 KCAL/MOL
REMARK 922        TOTAL FREE ENERGY PREDICTED BY IDOCK:   -5.05 KCAL/MOL
REMARK 923 INTER-LIGAND FREE ENERGY PREDICTED BY IDOCK:   -7.26 KCAL/MOL
REMARK 924 INTRA-LIGAND FREE ENERGY PREDICTED BY IDOCK:    2.22 KCAL/MOL
REMARK 927      BINDING AFFINITY PREDICTED BY RF-SCORE:    0.00 PKD
ROOT
HETATM    1  C   UNL     1      -9.139   9.949  66.106  1.00  0.00    -0.158 C  
HETATM    2  C   UNL     1      -8.631   8.709  65.313  1.00  0.00    -0.180 C  
HETATM    3  O   UNL     1      -7.318   8.859  64.753  1.00  0.00    -0.093 OA 
HETATM    4  C   UNL     1      -6.403   9.275  65.763  1.00  0.00    -0.067 C  
HETATM    5  C   UNL     1      -6.721  10.698  66.200  1.00  0.00    -0.132 C  
HETATM    6  N   UNL     1      -8.147  10.966  66.389  1.00  0.00    -0.160 N  
HETATM    7  C   UNL     1      -8.558  12.217  66.845  1.00  0.00    -0.182 C  
HETATM    8  O   UNL     1      -7.808  13.189  66.797  1.00  0.00     0.090 OA 
HETATM    9  C   UNL     1      -9.866  12.185  67.652  1.00  0.00    -0.194 C  
HETATM   10  C   UNL     1     -10.192  13.251  68.426  1.00  0.00    -0.249 C  
HETATM   11  N   UNL     1      -9.950   9.731  67.313  1.00  0.00    -0.180 NA 
HETATM   12  C   UNL     1     -11.414  13.113  69.303  1.00  0.00    -0.291 C  
HETATM   13  O   UNL     1     -11.752  13.966  70.119  1.00  0.00    -0.277 OA 
HETATM   14  N   UNL     1     -10.564  10.957  67.740  1.00  0.00    -0.202 NA 
HETATM   15  C   UNL     1     -12.242  11.900  69.167  1.00  0.00    -0.141 C  
HETATM   16  C   UNL     1     -11.771  10.914  68.403  1.00  0.00    -0.218 C  
ENDROOT
BRANCH  10  17
HETATM   17  O   UNL     1      -9.355  14.342  68.558  1.00  0.00    -0.201 OA 
BRANCH  17  18
HETATM   18  C   UNL     1      -9.863  15.604  68.138  1.00  0.00    -0.212 C  
BRANCH  18  19
HETATM   19  O   UNL     1     -10.112  15.583  66.733  1.00  0.00    -0.252 OA 
BRANCH  19  20
HETATM   20  C   UNL     1      -9.535  16.620  66.087  1.00  0.00    -0.287 C  
HETATM   21  O   UNL     1      -8.335  16.811  65.947  1.00  0.00    -0.463 OA 
BRANCH  20  22
HETATM   22  O   UNL     1     -10.523  17.398  65.575  1.00  0.00    -0.624 OA 
HETATM   23  C   UNL     1     -10.430  18.763  65.965  1.00  0.00    -0.432 C  
ENDBRANCH  20  22
ENDBRANCH  19  20
ENDBRANCH  18  19
ENDBRANCH  17  18
ENDBRANCH  10  17
BRANCH  11  24
HETATM   24  C   UNL     1      -9.539   8.736  68.404  1.00  0.00    -0.147 C  
HETATM   25  C   UNL     1      -9.621   7.204  68.061  1.00  0.00    -0.140 A  
HETATM   26  C   UNL     1     -10.151   6.717  66.855  1.00  0.00    -0.268 A  
HETATM   27  C   UNL     1     -10.224   5.381  66.449  1.00  0.00    -0.268 A  
HETATM   28  C   UNL     1      -9.778   4.421  67.307  1.00  0.00    -0.184 A  
HETATM   29  C   UNL     1      -9.311   4.808  68.548  1.00  0.00    -0.133 A  
HETATM   30  F   UNL     1      -9.784   3.137  66.930  1.00  0.00    -0.192 F  
HETATM   31  F   UNL     1      -8.878   3.859  69.392  1.00  0.00    -0.100 F  
HETATM   32  C   UNL     1      -9.256   6.175  68.948  1.00  0.00    -0.125 A  
HETATM   33  C   UNL     1      -8.628   6.464  70.270  1.00  0.00    -0.135 C  
HETATM   34  S   UNL     1      -6.909   6.863  69.912  1.00  0.00    -0.051 SA 
HETATM   35  C   UNL     1      -7.086   8.598  69.533  1.00  0.00    -0.055 A  
HETATM   36  C   UNL     1      -5.900   9.298  69.859  1.00  0.00    -0.035 A  
HETATM   37  C   UNL     1      -5.853  10.681  69.911  1.00  0.00    -0.067 A  
HETATM   38  C   UNL     1      -7.021  11.388  69.701  1.00  0.00    -0.022 A  
HETATM   39  C   UNL     1      -8.194  10.711  69.317  1.00  0.00    -0.122 A  
HETATM   40  C   UNL     1      -8.236   9.303  69.115  1.00  0.00    -0.111 A  
ENDBRANCH  11  24
TORSDOF 6
ENDMDL
MODEL       73
REMARK 921   NORMALIZED FREE ENERGY PREDICTED BY IDOCK:   -3.16 KCAL/MOL
REMARK 922        TOTAL FREE ENERGY PREDICTED BY IDOCK:   -5.00 KCAL/MOL
REMARK 923 INTER-LIGAND FREE ENERGY PREDICTED BY IDOCK:   -5.25 KCAL/MOL
REMARK 924 INTRA-LIGAND FREE ENERGY PREDICTED BY IDOCK:    0.25 KCAL/MOL
REMARK 927      BINDING AFFINITY PREDICTED BY RF-SCORE:    0.00 PKD
ROOT
HETATM    1  C   UNL     1     -11.316   7.162  70.718  1.00  0.00    -0.289 C  
HETATM    2  C   UNL     1     -12.823   7.350  70.369  1.00  0.00     0.517 C  
HETATM    3  O   UNL     1     -13.483   8.380  71.118  1.00  0.00    -0.161 OA 
HETATM    4  C   UNL     1     -12.745   9.596  71.029  1.00  0.00    -0.271 C  
HETATM    5  C   UNL     1     -11.426   9.461  71.777  1.00  0.00    -0.343 C  
HETATM    6  N   UNL     1     -10.729   8.196  71.544  1.00  0.00    -0.225 N  
HETATM    7  C   UNL     1      -9.481   7.981  72.128  1.00  0.00    -0.202 C  
HETATM    8  O   UNL     1      -9.091   8.670  73.067  1.00  0.00    -0.293 OA 
HETATM    9  C   UNL     1      -8.571   7.043  71.319  1.00  0.00    -0.119 C  
HETATM   10  C   UNL     1      -7.241   7.018  71.588  1.00  0.00    -0.078 C  
HETATM   11  N   UNL     1     -10.378   6.830  69.636  1.00  0.00    -0.191 NA 
HETATM   12  C   UNL     1      -6.372   6.185  70.675  1.00  0.00    -0.039 C  
HETATM   13  O   UNL     1      -5.147   6.163  70.753  1.00  0.00    -0.012 OA 
HETATM   14  N   UNL     1      -9.113   6.414  70.173  1.00  0.00    -0.153 NA 
HETATM   15  C   UNL     1      -7.028   5.356  69.647  1.00  0.00    -0.062 C  
HETATM   16  C   UNL     1      -8.339   5.521  69.465  1.00  0.00    -0.102 C  
ENDROOT
BRANCH  10  17
HETATM   17  O   UNL     1      -6.669   7.853  72.528  1.00  0.00    -0.063 OA 
BRANCH  17  18
HETATM   18  C   UNL     1      -5.589   8.674  72.097  1.00  0.00    -0.054 C  
BRANCH  18  19
HETATM   19  O   UNL     1      -5.982  10.046  72.126  1.00  0.00    -0.283 OA 
BRANCH  19  20
HETATM   20  C   UNL     1      -5.607  10.718  71.015  1.00  0.00    -0.060 C  
HETATM   21  O   UNL     1      -5.622  11.931  70.861  1.00  0.00    -0.253 OA 
BRANCH  20  22
HETATM   22  O   UNL     1      -5.166   9.812  70.104  1.00  0.00    -0.035 OA 
HETATM   23  C   UNL     1      -5.213  10.286  68.764  1.00  0.00    -0.038 C  
ENDBRANCH  20  22
ENDBRANCH  19  20
ENDBRANCH  18  19
ENDBRANCH  17  18
ENDBRANCH  10  17
BRANCH  11  24
HETATM   24  C   UNL     1     -10.358   7.596  68.308  1.00  0.00    -0.198 C  
HETATM   25  C   UNL     1      -9.751   9.046  68.312  1.00  0.00    -0.169 A  
HETATM   26  C   UNL     1      -9.334   9.698  69.485  1.00  0.00    -0.211 A  
HETATM   27  C   UNL     1      -8.746  10.963  69.578  1.00  0.00     0.231 A  
HETATM   28  C   UNL     1      -8.581  11.683  68.432  1.00  0.00    -0.156 A  
HETATM   29  C   UNL     1      -9.035  11.148  67.243  1.00  0.00    -0.147 A  
HETATM   30  F   UNL     1      -7.974  12.875  68.477  1.00  0.00    -0.137 F  
HETATM   31  F   UNL     1      -8.876  11.863  66.118  1.00  0.00    -0.197 F  
HETATM   32  C   UNL     1      -9.643   9.860  67.170  1.00  0.00    -0.201 A  
HETATM   33  C   UNL     1      -9.987   9.355  65.809  1.00  0.00    -0.208 C  
HETATM   34  S   UNL     1      -8.591   8.337  65.304  1.00  0.00    -0.086 SA 
HETATM   35  C   UNL     1      -9.058   6.797  66.076  1.00  0.00    -0.072 A  
HETATM   36  C   UNL     1      -8.547   5.701  65.340  1.00  0.00    -0.150 A  
HETATM   37  C   UNL     1      -8.972   4.403  65.565  1.00  0.00    -0.135 A  
HETATM   38  C   UNL     1      -9.975   4.189  66.492  1.00  0.00    -0.165 A  
HETATM   39  C   UNL     1     -10.450   5.259  67.273  1.00  0.00    -0.236 A  
HETATM   40  C   UNL     1      -9.930   6.579  67.165  1.00  0.00    -0.203 A  
ENDBRANCH  11  24
TORSDOF 6
ENDMDL
MODEL       74
REMARK 921   NORMALIZED FREE ENERGY PREDICTED BY IDOCK:   -3.06 KCAL/MOL
REMARK 922        TOTAL FREE ENERGY PREDICTED BY IDOCK:   -4.88 KCAL/MOL
REMARK 923 INTER-LIGAND FREE ENERGY PREDICTED BY IDOCK:   -6.98 KCAL/MOL
REMARK 924 INTRA-LIGAND FREE ENERGY PREDICTED BY IDOCK:    2.10 KCAL/MOL
REMARK 927      BINDING AFFINITY PREDICTED BY RF-SCORE:    0.00 PKD
ROOT
HETATM    1  C   UNL     1     -10.501   9.712  67.578  1.00  0.00    -0.262 C  
HETATM    2  C   UNL     1     -11.279  10.436  68.717  1.00  0.00    -0.241 C  
HETATM    3  O   UNL     1     -11.049   9.900  70.028  1.00  0.00    -0.251 OA 
HETATM    4  C   UNL     1      -9.649   9.827  70.284  1.00  0.00    -0.208 C  
HETATM    5  C   UNL     1      -9.013   8.765  69.396  1.00  0.00    -0.145 C  
HETATM    6  N   UNL     1      -9.474   8.786  68.008  1.00  0.00    -0.142 N  
HETATM    7  C   UNL     1      -8.919   7.901  67.085  1.00  0.00    -0.129 C  
HETATM    8  O   UNL     1      -8.294   6.909  67.452  1.00  0.00    -0.120 OA 
HETATM    9  C   UNL     1      -8.910   8.432  65.643  1.00  0.00    -0.156 C  
HETATM   10  C   UNL     1      -8.111   7.835  64.723  1.00  0.00    -0.131 C  
HETATM   11  N   UNL     1      -9.979  10.513  66.461  1.00  0.00    -0.207 NA 
HETATM   12  C   UNL     1      -8.035   8.480  63.359  1.00  0.00    -0.161 C  
HETATM   13  O   UNL     1      -7.273   8.093  62.477  1.00  0.00    -0.092 OA 
HETATM   14  N   UNL     1      -9.555   9.665  65.383  1.00  0.00    -0.285 NA 
HETATM   15  C   UNL     1      -8.922   9.622  63.073  1.00  0.00    -0.257 C  
HETATM   16  C   UNL     1      -9.617  10.134  64.089  1.00  0.00    -0.272 C  
ENDROOT
BRANCH  10  17
HETATM   17  O   UNL     1      -7.260   6.799  65.056  1.00  0.00    -0.067 OA 
BRANCH  17  18
HETATM   18  C   UNL     1      -7.586   5.505  64.559  1.00  0.00    -0.080 C  
BRANCH  18  19
HETATM   19  O   UNL     1      -9.003   5.372  64.451  1.00  0.00    -0.019 OA 
BRANCH  19  20
HETATM   20  C   UNL     1      -9.454   4.194  64.939  1.00  0.00    -0.171 C  
HETATM   21  O   UNL     1      -9.386   3.106  64.386  1.00  0.00    -0.129 OA 
BRANCH  20  22
HETATM   22  O   UNL     1      -9.959   4.420  66.179  1.00  0.00    -0.210 OA 
HETATM   23  C   UNL     1      -9.443   3.540  67.170  1.00  0.00    -0.183 C  
ENDBRANCH  20  22
ENDBRANCH  19  20
ENDBRANCH  18  19
ENDBRANCH  17  18
ENDBRANCH  10  17
BRANCH  11  24
HETATM   24  C   UNL     1      -9.191  11.809  66.684  1.00  0.00    -0.198 C  
HETATM   25  C   UNL     1      -9.980  13.058  67.223  1.00  0.00    -0.232 A  
HETATM   26  C   UNL     1     -11.374  13.065  67.399  1.00  0.00    -0.347 A  
HETATM   27  C   UNL     1     -12.150  14.110  67.910  1.00  0.00    -0.309 A  
HETATM   28  C   UNL     1     -11.524  15.273  68.246  1.00  0.00    -0.347 A  
HETATM   29  C   UNL     1     -10.164  15.379  68.032  1.00  0.00    -0.235 A  
HETATM   30  F   UNL     1     -12.228  16.275  68.787  1.00  0.00    -0.264 F  
HETATM   31  F   UNL     1      -9.553  16.528  68.358  1.00  0.00    -0.210 F  
HETATM   32  C   UNL     1      -9.391  14.306  67.499  1.00  0.00    -0.199 A  
HETATM   33  C   UNL     1      -7.916  14.513  67.421  1.00  0.00    -0.200 C  
HETATM   34  S   UNL     1      -7.246  13.784  68.924  1.00  0.00    -0.063 SA 
HETATM   35  C   UNL     1      -7.111  12.086  68.390  1.00  0.00    -0.084 A  
HETATM   36  C   UNL     1      -6.050  11.439  69.067  1.00  0.00    -0.054 A  
HETATM   37  C   UNL     1      -5.562  10.208  68.662  1.00  0.00    -0.038 A  
HETATM   38  C   UNL     1      -6.089   9.634  67.520  1.00  0.00    -0.052 A  
HETATM   39  C   UNL     1      -7.183  10.236  66.871  1.00  0.00    -0.093 A  
HETATM   40  C   UNL     1      -7.800  11.426  67.349  1.00  0.00    -0.135 A  
ENDBRANCH  11  24
TORSDOF 6
ENDMDL
MODEL       75
REMARK 921   NORMALIZED FREE ENERGY PREDICTED BY IDOCK:   -3.03 KCAL/MOL
REMARK 922        TOTAL FREE ENERGY PREDICTED BY IDOCK:   -4.83 KCAL/MOL
REMARK 923 INTER-LIGAND FREE ENERGY PREDICTED BY IDOCK:   -5.03 KCAL/MOL
REMARK 924 INTRA-LIGAND FREE ENERGY PREDICTED BY IDOCK:    0.19 KCAL/MOL
REMARK 927      BINDING AFFINITY PREDICTED BY RF-SCORE:    0.00 PKD
ROOT
HETATM    1  C   UNL     1      -6.748   7.046  70.622  1.00  0.00    -0.053 C  
HETATM    2  C   UNL     1      -5.285   6.527  70.743  1.00  0.00    -0.018 C  
HETATM    3  O   UNL     1      -5.172   5.148  71.120  1.00  0.00    -0.004 OA 
HETATM    4  C   UNL     1      -5.969   4.341  70.258  1.00  0.00    -0.018 C  
HETATM    5  C   UNL     1      -7.446   4.614  70.507  1.00  0.00    -0.053 C  
HETATM    6  N   UNL     1      -7.780   6.031  70.652  1.00  0.00    -0.098 N  
HETATM    7  C   UNL     1      -9.111   6.409  70.824  1.00  0.00    -0.151 C  
HETATM    8  O   UNL     1      -9.964   5.595  71.167  1.00  0.00    -0.176 OA 
HETATM    9  C   UNL     1      -9.434   7.807  70.274  1.00  0.00    -0.160 C  
HETATM   10  C   UNL     1     -10.730   8.155  70.071  1.00  0.00    -0.243 C  
HETATM   11  N   UNL     1      -7.069   8.015  69.564  1.00  0.00    -0.057 NA 
HETATM   12  C   UNL     1     -10.987   9.484  69.401  1.00  0.00    -0.170 C  
HETATM   13  O   UNL     1     -12.108   9.863  69.074  1.00  0.00     0.313 OA 
HETATM   14  N   UNL     1      -8.365   8.593  69.781  1.00  0.00    -0.120 NA 
HETATM   15  C   UNL     1      -9.838  10.368  69.134  1.00  0.00    -0.237 C  
HETATM   16  C   UNL     1      -8.617   9.874  69.340  1.00  0.00    -0.174 C  
ENDROOT
BRANCH  10  17
HETATM   17  O   UNL     1     -11.767   7.269  70.290  1.00  0.00    -0.229 OA 
BRANCH  17  18
HETATM   18  C   UNL     1     -12.499   7.412  71.503  1.00  0.00    -0.361 C  
BRANCH  18  19
HETATM   19  O   UNL     1     -13.537   8.377  71.330  1.00  0.00    -0.305 OA 
BRANCH  19  20
HETATM   20  C   UNL     1     -13.608   9.254  72.357  1.00  0.00    -0.463 C  
HETATM   21  O   UNL     1     -14.354   9.181  73.323  1.00  0.00    -0.169 OA 
BRANCH  20  22
HETATM   22  O   UNL     1     -12.671  10.215  72.154  1.00  0.00    -0.360 OA 
HETATM   23  C   UNL     1     -13.167  11.353  71.459  1.00  0.00    -0.232 C  
ENDBRANCH  20  22
ENDBRANCH  19  20
ENDBRANCH  18  19
ENDBRANCH  17  18
ENDBRANCH  10  17
BRANCH  11  24
HETATM   24  C   UNL     1      -6.626   7.813  68.110  1.00  0.00    -0.059 C  
HETATM   25  C   UNL     1      -7.516   6.890  67.200  1.00  0.00    -0.095 A  
HETATM   26  C   UNL     1      -8.618   6.168  67.687  1.00  0.00    -0.106 A  
HETATM   27  C   UNL     1      -9.487   5.361  66.945  1.00  0.00    -0.138 A  
HETATM   28  C   UNL     1      -9.243   5.206  65.614  1.00  0.00    -0.151 A  
HETATM   29  C   UNL     1      -8.133   5.819  65.068  1.00  0.00    -0.131 A  
HETATM   30  F   UNL     1     -10.084   4.483  64.863  1.00  0.00    -0.185 F  
HETATM   31  F   UNL     1      -7.893   5.658  63.757  1.00  0.00    -0.080 F  
HETATM   32  C   UNL     1      -7.252   6.628  65.843  1.00  0.00    -0.067 A  
HETATM   33  C   UNL     1      -6.154   7.322  65.108  1.00  0.00    -0.038 C  
HETATM   34  S   UNL     1      -6.782   8.970  64.743  1.00  0.00    -0.077 SA 
HETATM   35  C   UNL     1      -6.371   9.784  66.277  1.00  0.00    -0.070 A  
HETATM   36  C   UNL     1      -6.134  11.162  66.056  1.00  0.00    -0.047 A  
HETATM   37  C   UNL     1      -5.549  11.970  67.016  1.00  0.00    -0.112 A  
HETATM   38  C   UNL     1      -5.127  11.391  68.198  1.00  0.00    -0.043 A  
HETATM   39  C   UNL     1      -5.410  10.036  68.457  1.00  0.00    -0.039 A  
HETATM   40  C   UNL     1      -6.138   9.216  67.549  1.00  0.00    -0.050 A  
ENDBRANCH  11  24
TORSDOF 6
ENDMDL
MODEL       76
REMARK 921   NORMALIZED FREE ENERGY PREDICTED BY IDOCK:   -3.02 KCAL/MOL
REMARK 922        TOTAL FREE ENERGY PREDICTED BY IDOCK:   -4.82 KCAL/MOL
REMARK 923 INTER-LIGAND FREE ENERGY PREDICTED BY IDOCK:   -7.13 KCAL/MOL
REMARK 924 INTRA-LIGAND FREE ENERGY PREDICTED BY IDOCK:    2.31 KCAL/MOL
REMARK 927      BINDING AFFINITY PREDICTED BY RF-SCORE:    0.00 PKD
ROOT
HETATM    1  C   UNL     1      -9.992   8.954  71.606  1.00  0.00    -0.327 C  
HETATM    2  C   UNL     1     -10.361   7.948  72.736  1.00  0.00    -0.333 C  
HETATM    3  O   UNL     1     -11.751   7.601  72.793  1.00  0.00    -0.310 OA 
HETATM    4  C   UNL     1     -12.199   7.170  71.511  1.00  0.00    -0.360 C  
HETATM    5  C   UNL     1     -12.208   8.344  70.541  1.00  0.00     0.234 C  
HETATM    6  N   UNL     1     -11.025   9.202  70.622  1.00  0.00    -0.246 N  
HETATM    7  C   UNL     1     -10.892  10.275  69.743  1.00  0.00    -0.287 C  
HETATM    8  O   UNL     1     -11.857  10.711  69.120  1.00  0.00    -0.276 OA 
HETATM    9  C   UNL     1      -9.433  10.636  69.422  1.00  0.00    -0.078 C  
HETATM   10  C   UNL     1      -9.167  11.417  68.344  1.00  0.00    -0.183 C  
HETATM   11  N   UNL     1      -8.706   8.793  70.911  1.00  0.00    -0.175 NA 
HETATM   12  C   UNL     1      -7.713  11.628  67.992  1.00  0.00    -0.121 C  
HETATM   13  O   UNL     1      -7.348  12.229  66.986  1.00  0.00    -0.132 OA 
HETATM   14  N   UNL     1      -8.408   9.955  70.121  1.00  0.00    -0.178 NA 
HETATM   15  C   UNL     1      -6.686  11.093  68.905  1.00  0.00    -0.077 C  
HETATM   16  C   UNL     1      -7.094  10.303  69.899  1.00  0.00    -0.152 C  
ENDROOT
BRANCH  10  17
HETATM   17  O   UNL     1     -10.163  11.850  67.491  1.00  0.00    -0.193 OA 
BRANCH  17  18
HETATM   18  C   UNL     1     -10.315  13.256  67.330  1.00  0.00    -0.247 C  
BRANCH  18  19
HETATM   19  O   UNL     1     -11.058  13.791  68.425  1.00  0.00    -0.242 OA 
BRANCH  19  20
HETATM   20  C   UNL     1     -10.520  14.933  68.910  1.00  0.00    -0.242 C  
HETATM   21  O   UNL     1      -9.348  15.272  68.834  1.00  0.00    -0.190 OA 
BRANCH  20  22
HETATM   22  O   UNL     1     -11.520  15.666  69.463  1.00  0.00    -0.294 OA 
HETATM   23  C   UNL     1     -11.936  15.189  70.737  1.00  0.00    -0.327 C  
ENDBRANCH  20  22
ENDBRANCH  19  20
ENDBRANCH  18  19
ENDBRANCH  17  18
ENDBRANCH  10  17
BRANCH  11  24
HETATM   24  C   UNL     1      -8.233   7.439  70.371  1.00  0.00    -0.121 C  
HETATM   25  C   UNL     1      -7.872   6.323  71.419  1.00  0.00    -0.104 A  
HETATM   26  C   UNL     1      -7.860   6.550  72.805  1.00  0.00    -0.102 A  
HETATM   27  C   UNL     1      -7.595   5.612  73.807  1.00  0.00    -0.097 A  
HETATM   28  C   UNL     1      -7.272   4.342  73.432  1.00  0.00    -0.075 A  
HETATM   29  C   UNL     1      -7.185   4.052  72.085  1.00  0.00    -0.052 A  
HETATM   30  F   UNL     1      -7.064   3.405  74.365  1.00  0.00    -0.042 F  
HETATM   31  F   UNL     1      -6.860   2.802  71.719  1.00  0.00    -0.023 F  
HETATM   32  C   UNL     1      -7.447   5.026  71.077  1.00  0.00    -0.077 A  
HETATM   33  C   UNL     1      -7.426   4.554  69.662  1.00  0.00    -0.051 C  
HETATM   34  S   UNL     1      -9.139   4.179  69.252  1.00  0.00    -0.142 SA 
HETATM   35  C   UNL     1      -9.688   5.809  68.778  1.00  0.00    -0.132 A  
HETATM   36  C   UNL     1     -10.724   5.721  67.818  1.00  0.00    -0.306 A  
HETATM   37  C   UNL     1     -11.150   6.821  67.092  1.00  0.00    -0.404 A  
HETATM   38  C   UNL     1     -10.492   8.023  67.271  1.00  0.00    -0.384 A  
HETATM   39  C   UNL     1      -9.501   8.141  68.265  1.00  0.00    -0.148 A  
HETATM   40  C   UNL     1      -9.143   7.066  69.124  1.00  0.00    -0.136 A  
ENDBRANCH  11  24
TORSDOF 6
ENDMDL
MODEL       77
REMARK 921   NORMALIZED FREE ENERGY PREDICTED BY IDOCK:   -2.94 KCAL/MOL
REMARK 922        TOTAL FREE ENERGY PREDICTED BY IDOCK:   -4.71 KCAL/MOL
REMARK 923 INTER-LIGAND FREE ENERGY PREDICTED BY IDOCK:   -7.31 KCAL/MOL
REMARK 924 INTRA-LIGAND FREE ENERGY PREDICTED BY IDOCK:    2.61 KCAL/MOL
REMARK 927      BINDING AFFINITY PREDICTED BY RF-SCORE:    0.00 PKD
ROOT
HETATM    1  C   UNL     1      -9.921  13.529  68.951  1.00  0.00     0.021 C  
HETATM    2  C   UNL     1     -10.843  12.280  69.076  1.00  0.00    -0.150 C  
HETATM    3  O   UNL     1     -12.246  12.577  69.108  1.00  0.00    -0.187 OA 
HETATM    4  C   UNL     1     -12.594  13.405  68.001  1.00  0.00     0.697 C  
HETATM    5  C   UNL     1     -11.977  14.787  68.171  1.00  0.00    -0.230 C  
HETATM    6  N   UNL     1     -10.589  14.774  68.632  1.00  0.00    -0.247 N  
HETATM    7  C   UNL     1      -9.898  15.977  68.768  1.00  0.00    -0.223 C  
HETATM    8  O   UNL     1     -10.494  17.051  68.817  1.00  0.00    -0.309 OA 
HETATM    9  C   UNL     1      -8.381  15.850  68.554  1.00  0.00    -0.182 C  
HETATM   10  C   UNL     1      -7.649  16.969  68.324  1.00  0.00    -0.213 C  
HETATM   11  N   UNL     1      -8.699  13.426  68.142  1.00  0.00    -0.174 NA 
HETATM   12  C   UNL     1      -6.191  16.777  67.984  1.00  0.00    -0.136 C  
HETATM   13  O   UNL     1      -5.451  17.701  67.658  1.00  0.00    -0.129 OA 
HETATM   14  N   UNL     1      -7.841  14.554  68.374  1.00  0.00    -0.127 NA 
HETATM   15  C   UNL     1      -5.628  15.415  68.054  1.00  0.00    -0.144 C  
HETATM   16  C   UNL     1      -6.477  14.405  68.243  1.00  0.00    -0.115 C  
ENDROOT
BRANCH  10  17
HETATM   17  O   UNL     1      -8.234  18.216  68.219  1.00  0.00    -0.273 OA 
BRANCH  17  18
HETATM   18  C   UNL     1      -7.653  19.273  68.976  1.00  0.00    -0.319 C  
BRANCH  18  19
HETATM   19  O   UNL     1      -7.153  20.280  68.096  1.00  0.00    -0.293 OA 
BRANCH  19  20
HETATM   20  C   UNL     1      -7.930  20.447  67.003  1.00  0.00    -0.312 C  
HETATM   21  O   UNL     1      -9.091  20.833  66.989  1.00  0.00    -0.270 OA 
BRANCH  20  22
HETATM   22  O   UNL     1      -7.183  20.154  65.907  1.00  0.00    -0.286 OA 
HETATM   23  C   UNL     1      -6.151  21.100  65.656  1.00  0.00    -0.188 C  
ENDBRANCH  20  22
ENDBRANCH  19  20
ENDBRANCH  18  19
ENDBRANCH  17  18
ENDBRANCH  10  17
BRANCH  11  24
HETATM   24  C   UNL     1      -8.701  12.826  66.731  1.00  0.00    -0.121 C  
HETATM   25  C   UNL     1      -8.809  11.263  66.606  1.00  0.00    -0.175 A  
HETATM   26  C   UNL     1      -8.791  10.402  67.716  1.00  0.00    -0.128 A  
HETATM   27  C   UNL     1      -8.924   9.010  67.701  1.00  0.00    -0.130 A  
HETATM   28  C   UNL     1      -9.046   8.387  66.496  1.00  0.00    -0.176 A  
HETATM   29  C   UNL     1      -8.995   9.152  65.347  1.00  0.00    -0.207 A  
HETATM   30  F   UNL     1      -9.228   7.062  66.447  1.00  0.00    -0.156 F  
HETATM   31  F   UNL     1      -9.110   8.533  64.161  1.00  0.00     0.018 F  
HETATM   32  C   UNL     1      -8.848  10.569  65.382  1.00  0.00    -0.203 A  
HETATM   33  C   UNL     1      -8.919  11.285  64.075  1.00  0.00     0.108 C  
HETATM   34  S   UNL     1     -10.630  11.820  63.909  1.00  0.00    -0.439 SA 
HETATM   35  C   UNL     1     -10.549  13.348  64.827  1.00  0.00    -0.405 A  
HETATM   36  C   UNL     1     -11.498  14.273  64.331  1.00  0.00    -0.321 A  
HETATM   37  C   UNL     1     -11.474  15.612  64.683  1.00  0.00    -0.306 A  
HETATM   38  C   UNL     1     -10.447  16.062  65.491  1.00  0.00    -0.426 A  
HETATM   39  C   UNL     1      -9.532  15.145  66.041  1.00  0.00    -0.358 A  
HETATM   40  C   UNL     1      -9.618  13.743  65.813  1.00  0.00    -0.097 A  
ENDBRANCH  11  24
TORSDOF 6
ENDMDL
MODEL       78
REMARK 921   NORMALIZED FREE ENERGY PREDICTED BY IDOCK:   -2.90 KCAL/MOL
REMARK 922        TOTAL FREE ENERGY PREDICTED BY IDOCK:   -4.66 KCAL/MOL
REMARK 923 INTER-LIGAND FREE ENERGY PREDICTED BY IDOCK:   -5.01 KCAL/MOL
REMARK 924 INTRA-LIGAND FREE ENERGY PREDICTED BY IDOCK:    0.35 KCAL/MOL
REMARK 927      BINDING AFFINITY PREDICTED BY RF-SCORE:    0.00 PKD
ROOT
HETATM    1  C   UNL     1      -6.671   6.187  69.267  1.00  0.00    -0.060 C  
HETATM    2  C   UNL     1      -5.380   5.332  69.106  1.00  0.00    -0.004 C  
HETATM    3  O   UNL     1      -5.521   3.961  69.504  1.00  0.00    -0.014 OA 
HETATM    4  C   UNL     1      -6.647   3.379  68.852  1.00  0.00    -0.040 C  
HETATM    5  C   UNL     1      -7.933   3.994  69.386  1.00  0.00    -0.055 C  
HETATM    6  N   UNL     1      -7.885   5.448  69.544  1.00  0.00    -0.084 N  
HETATM    7  C   UNL     1      -9.023   6.132  69.969  1.00  0.00    -0.147 C  
HETATM    8  O   UNL     1      -9.955   5.541  70.508  1.00  0.00    -0.186 OA 
HETATM    9  C   UNL     1      -9.113   7.574  69.444  1.00  0.00    -0.142 C  
HETATM   10  C   UNL     1     -10.303   8.224  69.496  1.00  0.00    -0.219 C  
HETATM   11  N   UNL     1      -6.964   7.218  68.260  1.00  0.00    -0.073 NA 
HETATM   12  C   UNL     1     -10.370   9.584  68.844  1.00  0.00    -0.208 C  
HETATM   13  O   UNL     1     -11.412  10.225  68.738  1.00  0.00    -0.207 OA 
HETATM   14  N   UNL     1      -8.013   8.087  68.715  1.00  0.00    -0.117 NA 
HETATM   15  C   UNL     1      -9.125  10.172  68.316  1.00  0.00    -0.122 C  
HETATM   16  C   UNL     1      -8.040   9.396  68.287  1.00  0.00    -0.109 C  
ENDROOT
BRANCH  10  17
HETATM   17  O   UNL     1     -11.452   7.609  69.955  1.00  0.00    -0.094 OA 
BRANCH  17  18
HETATM   18  C   UNL     1     -11.924   7.992  71.242  1.00  0.00    -0.296 C  
BRANCH  18  19
HETATM   19  O   UNL     1     -10.861   8.575  71.994  1.00  0.00    -0.286 OA 
BRANCH  19  20
HETATM   20  C   UNL     1     -10.439   7.779  73.002  1.00  0.00    -0.369 C  
HETATM   21  O   UNL     1     -11.071   6.868  73.520  1.00  0.00    -0.199 OA 
BRANCH  20  22
HETATM   22  O   UNL     1      -9.167   8.135  73.315  1.00  0.00    -0.264 OA 
HETATM   23  C   UNL     1      -8.292   7.025  73.482  1.00  0.00    -0.117 C  
ENDBRANCH  20  22
ENDBRANCH  19  20
ENDBRANCH  18  19
ENDBRANCH  17  18
ENDBRANCH  10  17
BRANCH  11  24
HETATM   24  C   UNL     1      -6.892   6.935  66.756  1.00  0.00    -0.064 C  
HETATM   25  C   UNL     1      -8.041   6.069  66.122  1.00  0.00    -0.110 A  
HETATM   26  C   UNL     1      -9.053   5.464  66.885  1.00  0.00    -0.114 A  
HETATM   27  C   UNL     1     -10.133   4.717  66.404  1.00  0.00    -0.289 A  
HETATM   28  C   UNL     1     -10.221   4.501  65.062  1.00  0.00    -0.072 A  
HETATM   29  C   UNL     1      -9.224   4.996  64.245  1.00  0.00     0.123 A  
HETATM   30  F   UNL     1     -11.270   3.836  64.562  1.00  0.00    -0.243 F  
HETATM   31  F   UNL     1      -9.312   4.776  62.923  1.00  0.00    -0.145 F  
HETATM   32  C   UNL     1      -8.124   5.746  64.755  1.00  0.00    -0.132 A  
HETATM   33  C   UNL     1      -7.177   6.316  63.753  1.00  0.00    -0.062 C  
HETATM   34  S   UNL     1      -7.738   8.002  63.462  1.00  0.00    -0.144 SA 
HETATM   35  C   UNL     1      -6.915   8.821  64.818  1.00  0.00    -0.073 A  
HETATM   36  C   UNL     1      -6.626  10.165  64.481  1.00  0.00    -0.118 A  
HETATM   37  C   UNL     1      -5.770  10.945  65.239  1.00  0.00    -0.015 A  
HETATM   38  C   UNL     1      -5.131  10.365  66.319  1.00  0.00    -0.052 A  
HETATM   39  C   UNL     1      -5.454   9.049  66.702  1.00  0.00    -0.039 A  
HETATM   40  C   UNL     1      -6.437   8.272  66.029  1.00  0.00    -0.049 A  
ENDBRANCH  11  24
TORSDOF 6
ENDMDL
MODEL       79
REMARK 921   NORMALIZED FREE ENERGY PREDICTED BY IDOCK:   -2.78 KCAL/MOL
REMARK 922        TOTAL FREE ENERGY PREDICTED BY IDOCK:   -4.49 KCAL/MOL
REMARK 923 INTER-LIGAND FREE ENERGY PREDICTED BY IDOCK:   -6.98 KCAL/MOL
REMARK 924 INTRA-LIGAND FREE ENERGY PREDICTED BY IDOCK:    2.49 KCAL/MOL
REMARK 927      BINDING AFFINITY PREDICTED BY RF-SCORE:    0.00 PKD
ROOT
HETATM    1  C   UNL     1      -8.858   7.631  70.321  1.00  0.00    -0.145 C  
HETATM    2  C   UNL     1      -8.969   8.582  71.549  1.00  0.00    -0.213 C  
HETATM    3  O   UNL     1      -7.710   9.001  72.093  1.00  0.00    -0.351 OA 
HETATM    4  C   UNL     1      -6.887   9.536  71.060  1.00  0.00    -0.032 C  
HETATM    5  C   UNL     1      -6.463   8.428  70.106  1.00  0.00    -0.038 C  
HETATM    6  N   UNL     1      -7.536   7.502  69.743  1.00  0.00    -0.092 N  
HETATM    7  C   UNL     1      -7.284   6.480  68.829  1.00  0.00    -0.085 C  
HETATM    8  O   UNL     1      -6.135   6.138  68.558  1.00  0.00    -0.022 OA 
HETATM    9  C   UNL     1      -8.516   6.059  68.013  1.00  0.00    -0.115 C  
HETATM   10  C   UNL     1      -8.342   5.334  66.878  1.00  0.00    -0.107 C  
HETATM   11  N   UNL     1      -9.839   7.762  69.234  1.00  0.00    -0.170 NA 
HETATM   12  C   UNL     1      -9.570   5.065  66.042  1.00  0.00    -0.168 C  
HETATM   13  O   UNL     1      -9.527   4.509  64.948  1.00  0.00    -0.159 OA 
HETATM   14  N   UNL     1      -9.764   6.638  68.345  1.00  0.00    -0.126 NA 
HETATM   15  C   UNL     1     -10.883   5.483  66.568  1.00  0.00    -0.237 C  
HETATM   16  C   UNL     1     -10.896   6.232  67.671  1.00  0.00    -0.346 C  
ENDROOT
BRANCH  10  17
HETATM   17  O   UNL     1      -7.086   5.011  66.403  1.00  0.00    -0.069 OA 
BRANCH  17  18
HETATM   18  C   UNL     1      -6.844   5.218  65.015  1.00  0.00    -0.049 C  
BRANCH  18  19
HETATM   19  O   UNL     1      -6.608   6.603  64.766  1.00  0.00    -0.040 OA 
BRANCH  19  20
HETATM   20  C   UNL     1      -7.099   7.009  63.574  1.00  0.00    -0.065 C  
HETATM   21  O   UNL     1      -7.925   6.420  62.891  1.00  0.00    -0.100 OA 
BRANCH  20  22
HETATM   22  O   UNL     1      -6.548   8.215  63.280  1.00  0.00    -0.079 OA 
HETATM   23  C   UNL     1      -7.438   9.096  62.606  1.00  0.00    -0.097 C  
ENDBRANCH  20  22
ENDBRANCH  19  20
ENDBRANCH  18  19
ENDBRANCH  17  18
ENDBRANCH  10  17
BRANCH  11  24
HETATM   24  C   UNL     1     -10.199   9.119  68.620  1.00  0.00    -0.204 C  
HETATM   25  C   UNL     1     -11.087  10.094  69.476  1.00  0.00    -0.295 A  
HETATM   26  C   UNL     1     -11.645   9.733  70.714  1.00  0.00    -0.417 A  
HETATM   27  C   UNL     1     -12.407  10.545  71.560  1.00  0.00    -0.443 A  
HETATM   28  C   UNL     1     -12.690  11.814  71.152  1.00  0.00    -0.305 A  
HETATM   29  C   UNL     1     -12.245  12.226  69.911  1.00  0.00    -0.163 A  
HETATM   30  F   UNL     1     -13.371  12.636  71.960  1.00  0.00    -0.522 F  
HETATM   31  F   UNL     1     -12.531  13.475  69.512  1.00  0.00    -0.327 F  
HETATM   32  C   UNL     1     -11.479  11.379  69.058  1.00  0.00    -0.366 A  
HETATM   33  C   UNL     1     -10.967  11.984  67.794  1.00  0.00    -0.232 C  
HETATM   34  S   UNL     1      -9.294  12.536  68.164  1.00  0.00    -0.200 SA 
HETATM   35  C   UNL     1      -8.414  11.010  67.879  1.00  0.00    -0.128 A  
HETATM   36  C   UNL     1      -7.091  11.276  67.450  1.00  0.00    -0.109 A  
HETATM   37  C   UNL     1      -6.280  10.290  66.914  1.00  0.00    -0.068 A  
HETATM   38  C   UNL     1      -6.809   9.026  66.734  1.00  0.00    -0.080 A  
HETATM   39  C   UNL     1      -8.101   8.731  67.209  1.00  0.00    -0.101 A  
HETATM   40  C   UNL     1      -8.904   9.686  67.894  1.00  0.00    -0.119 A  
ENDBRANCH  11  24
TORSDOF 6
ENDMDL
MODEL       80
REMARK 921   NORMALIZED FREE ENERGY PREDICTED BY IDOCK:   -2.70 KCAL/MOL
REMARK 922        TOTAL FREE ENERGY PREDICTED BY IDOCK:   -4.38 KCAL/MOL
REMARK 923 INTER-LIGAND FREE ENERGY PREDICTED BY IDOCK:   -6.90 KCAL/MOL
REMARK 924 INTRA-LIGAND FREE ENERGY PREDICTED BY IDOCK:    2.52 KCAL/MOL
REMARK 927      BINDING AFFINITY PREDICTED BY RF-SCORE:    0.00 PKD
ROOT
HETATM    1  C   UNL     1      -8.733   8.219  68.223  1.00  0.00    -0.136 C  
HETATM    2  C   UNL     1      -9.663   8.376  66.984  1.00  0.00    -0.206 C  
HETATM    3  O   UNL     1     -10.584   7.293  66.790  1.00  0.00    -0.298 OA 
HETATM    4  C   UNL     1     -11.310   7.051  67.992  1.00  0.00     0.238 C  
HETATM    5  C   UNL     1     -10.380   6.485  69.057  1.00  0.00    -0.195 C  
HETATM    6  N   UNL     1      -9.083   7.156  69.142  1.00  0.00    -0.137 N  
HETATM    7  C   UNL     1      -8.169   6.765  70.119  1.00  0.00    -0.133 C  
HETATM    8  O   UNL     1      -8.281   5.689  70.701  1.00  0.00    -0.113 OA 
HETATM    9  C   UNL     1      -7.235   7.894  70.582  1.00  0.00    -0.053 C  
HETATM   10  C   UNL     1      -6.544   7.748  71.741  1.00  0.00    -0.043 C  
HETATM   11  N   UNL     1      -8.381   9.418  68.998  1.00  0.00    -0.120 NA 
HETATM   12  C   UNL     1      -5.749   8.939  72.220  1.00  0.00    -0.068 C  
HETATM   13  O   UNL     1      -5.166   8.964  73.301  1.00  0.00    -0.065 OA 
HETATM   14  N   UNL     1      -7.305   9.136  69.907  1.00  0.00    -0.058 NA 
HETATM   15  C   UNL     1      -5.664  10.124  71.346  1.00  0.00     0.031 C  
HETATM   16  C   UNL     1      -6.436  10.145  70.259  1.00  0.00    -0.128 C  
ENDROOT
BRANCH  10  17
HETATM   17  O   UNL     1      -6.699   6.639  72.549  1.00  0.00    -0.062 OA 
BRANCH  17  18
HETATM   18  C   UNL     1      -7.327   6.837  73.811  1.00  0.00    -0.082 C  
BRANCH  18  19
HETATM   19  O   UNL     1      -7.471   5.585  74.482  1.00  0.00    -0.084 OA 
BRANCH  19  20
HETATM   20  C   UNL     1      -8.261   4.721  73.806  1.00  0.00    -0.106 C  
HETATM   21  O   UNL     1      -7.888   3.841  73.043  1.00  0.00    -0.075 OA 
BRANCH  20  22
HETATM   22  O   UNL     1      -9.550   4.968  74.155  1.00  0.00    -0.124 OA 
HETATM   23  C   UNL     1     -10.408   3.846  73.989  1.00  0.00    -0.183 C  
ENDBRANCH  20  22
ENDBRANCH  19  20
ENDBRANCH  18  19
ENDBRANCH  17  18
ENDBRANCH  10  17
BRANCH  11  24
HETATM   24  C   UNL     1      -9.434  10.434  69.452  1.00  0.00    -0.183 C  
HETATM   25  C   UNL     1     -10.130  11.306  68.344  1.00  0.00    -0.202 A  
HETATM   26  C   UNL     1      -9.752  11.269  66.992  1.00  0.00    -0.208 A  
HETATM   27  C   UNL     1     -10.340  11.974  65.937  1.00  0.00    -0.278 A  
HETATM   28  C   UNL     1     -11.365  12.825  66.222  1.00  0.00    -0.320 A  
HETATM   29  C   UNL     1     -11.749  12.980  67.539  1.00  0.00    -0.370 A  
HETATM   30  F   UNL     1     -11.986  13.475  65.230  1.00  0.00    -0.331 F  
HETATM   31  F   UNL     1     -12.756  13.825  67.816  1.00  0.00    -0.120 F  
HETATM   32  C   UNL     1     -11.130  12.262  68.603  1.00  0.00    -0.291 A  
HETATM   33  C   UNL     1     -11.714  12.439  69.964  1.00  0.00    -0.230 C  
HETATM   34  S   UNL     1     -12.864  11.071  70.179  1.00  0.00     0.078 SA 
HETATM   35  C   UNL     1     -11.727   9.820  70.748  1.00  0.00    -0.328 A  
HETATM   36  C   UNL     1     -12.388   8.900  71.597  1.00  0.00    -0.405 A  
HETATM   37  C   UNL     1     -11.695   7.990  72.378  1.00  0.00    -0.444 A  
HETATM   38  C   UNL     1     -10.314   8.034  72.371  1.00  0.00    -0.355 A  
HETATM   39  C   UNL     1      -9.642   8.901  71.489  1.00  0.00    -0.362 A  
HETATM   40  C   UNL     1     -10.327   9.745  70.570  1.00  0.00    -0.348 A  
ENDBRANCH  11  24
TORSDOF 6
ENDMDL
MODEL       81
REMARK 921   NORMALIZED FREE ENERGY PREDICTED BY IDOCK:   -2.67 KCAL/MOL
REMARK 922        TOTAL FREE ENERGY PREDICTED BY IDOCK:   -4.34 KCAL/MOL
REMARK 923 INTER-LIGAND FREE ENERGY PREDICTED BY IDOCK:   -6.44 KCAL/MOL
REMARK 924 INTRA-LIGAND FREE ENERGY PREDICTED BY IDOCK:    2.10 KCAL/MOL
REMARK 927      BINDING AFFINITY PREDICTED BY RF-SCORE:    0.00 PKD
ROOT
HETATM    1  C   UNL     1     -11.247   7.267  70.345  1.00  0.00    -0.276 C  
HETATM    2  C   UNL     1     -11.681   8.553  71.109  1.00  0.00    -0.281 C  
HETATM    3  O   UNL     1     -11.412   8.527  72.518  1.00  0.00    -0.371 OA 
HETATM    4  C   UNL     1     -10.046   8.190  72.746  1.00  0.00    -0.297 C  
HETATM    5  C   UNL     1      -9.795   6.740  72.353  1.00  0.00    -0.158 C  
HETATM    6  N   UNL     1     -10.417   6.343  71.089  1.00  0.00    -0.216 N  
HETATM    7  C   UNL     1     -10.208   5.057  70.594  1.00  0.00    -0.235 C  
HETATM    8  O   UNL     1      -9.789   4.157  71.318  1.00  0.00    -0.178 OA 
HETATM    9  C   UNL     1     -10.265   4.965  69.061  1.00  0.00    -0.094 C  
HETATM   10  C   UNL     1      -9.754   3.869  68.445  1.00  0.00    -0.045 C  
HETATM   11  N   UNL     1     -10.704   7.403  68.986  1.00  0.00    -0.187 NA 
HETATM   12  C   UNL     1      -9.709   3.889  66.935  1.00  0.00    -0.157 C  
HETATM   13  O   UNL     1      -9.180   3.004  66.269  1.00  0.00    -0.153 OA 
HETATM   14  N   UNL     1     -10.634   6.123  68.337  1.00  0.00    -0.235 NA 
HETATM   15  C   UNL     1     -10.336   5.022  66.230  1.00  0.00    -0.332 C  
HETATM   16  C   UNL     1     -10.754   6.053  66.967  1.00  0.00    -0.337 C  
ENDROOT
BRANCH  10  17
HETATM   17  O   UNL     1      -9.131   2.857  69.150  1.00  0.00    -0.108 OA 
BRANCH  17  18
HETATM   18  C   UNL     1      -7.718   2.747  69.017  1.00  0.00    -0.046 C  
BRANCH  18  19
HETATM   19  O   UNL     1      -7.217   1.797  69.957  1.00  0.00    -0.033 OA 
BRANCH  19  20
HETATM   20  C   UNL     1      -6.187   2.281  70.687  1.00  0.00    -0.023 C  
HETATM   21  O   UNL     1      -5.206   2.872  70.256  1.00  0.00    -0.004 OA 
BRANCH  20  22
HETATM   22  O   UNL     1      -6.449   2.038  71.997  1.00  0.00    -0.014 OA 
HETATM   23  C   UNL     1      -6.684   3.217  72.757  1.00  0.00    -0.026 C  
ENDBRANCH  20  22
ENDBRANCH  19  20
ENDBRANCH  18  19
ENDBRANCH  17  18
ENDBRANCH  10  17
BRANCH  11  24
HETATM   24  C   UNL     1      -9.615   8.424  68.640  1.00  0.00    -0.149 C  
HETATM   25  C   UNL     1     -10.022   9.942  68.611  1.00  0.00    -0.177 A  
HETATM   26  C   UNL     1     -11.346  10.383  68.776  1.00  0.00    -0.275 A  
HETATM   27  C   UNL     1     -11.792  11.708  68.807  1.00  0.00    -0.387 A  
HETATM   28  C   UNL     1     -10.877  12.700  68.620  1.00  0.00    -0.249 A  
HETATM   29  C   UNL     1      -9.564  12.352  68.373  1.00  0.00    -0.180 A  
HETATM   30  F   UNL     1     -11.260  13.981  68.696  1.00  0.00    -0.240 F  
HETATM   31  F   UNL     1      -8.667  13.333  68.184  1.00  0.00    -0.153 F  
HETATM   32  C   UNL     1      -9.130  10.995  68.334  1.00  0.00    -0.161 A  
HETATM   33  C   UNL     1      -7.666  10.760  68.168  1.00  0.00    -0.102 C  
HETATM   34  S   UNL     1      -7.018  10.552  69.835  1.00  0.00    -0.134 SA 
HETATM   35  C   UNL     1      -7.346   8.813  70.060  1.00  0.00    -0.053 A  
HETATM   36  C   UNL     1      -6.396   8.241  70.940  1.00  0.00    -0.037 A  
HETATM   37  C   UNL     1      -6.260   6.871  71.084  1.00  0.00    -0.037 A  
HETATM   38  C   UNL     1      -7.033   6.044  70.292  1.00  0.00    -0.062 A  
HETATM   39  C   UNL     1      -8.023   6.596  69.457  1.00  0.00    -0.117 A  
HETATM   40  C   UNL     1      -8.285   7.993  69.396  1.00  0.00    -0.122 A  
ENDBRANCH  11  24
TORSDOF 6
ENDMDL
MODEL       82
REMARK 921   NORMALIZED FREE ENERGY PREDICTED BY IDOCK:   -2.65 KCAL/MOL
REMARK 922        TOTAL FREE ENERGY PREDICTED BY IDOCK:   -4.32 KCAL/MOL
REMARK 923 INTER-LIGAND FREE ENERGY PREDICTED BY IDOCK:   -4.39 KCAL/MOL
REMARK 924 INTRA-LIGAND FREE ENERGY PREDICTED BY IDOCK:    0.07 KCAL/MOL
REMARK 927      BINDING AFFINITY PREDICTED BY RF-SCORE:    0.00 PKD
ROOT
HETATM    1  C   UNL     1     -11.664   7.110  70.495  1.00  0.00    -0.272 C  
HETATM    2  C   UNL     1     -12.482   8.279  71.120  1.00  0.00    -0.174 C  
HETATM    3  O   UNL     1     -12.774   8.122  72.515  1.00  0.00    -0.241 OA 
HETATM    4  C   UNL     1     -11.576   7.847  73.236  1.00  0.00     0.405 C  
HETATM    5  C   UNL     1     -11.052   6.465  72.868  1.00  0.00    -0.226 C  
HETATM    6  N   UNL     1     -11.097   6.166  71.436  1.00  0.00    -0.280 N  
HETATM    7  C   UNL     1     -10.590   4.954  70.970  1.00  0.00    -0.015 C  
HETATM    8  O   UNL     1     -10.395   4.011  71.733  1.00  0.00    -0.115 OA 
HETATM    9  C   UNL     1     -10.043   5.021  69.536  1.00  0.00    -0.231 C  
HETATM   10  C   UNL     1      -9.229   4.030  69.091  1.00  0.00    -0.152 C  
HETATM   11  N   UNL     1     -10.656   7.421  69.472  1.00  0.00    -0.235 NA 
HETATM   12  C   UNL     1      -8.609   4.212  67.726  1.00  0.00    -0.100 C  
HETATM   13  O   UNL     1      -7.780   3.436  67.258  1.00  0.00    -0.077 OA 
HETATM   14  N   UNL     1     -10.217   6.224  68.812  1.00  0.00    -0.163 NA 
HETATM   15  C   UNL     1      -9.024   5.372  66.916  1.00  0.00    -0.110 C  
HETATM   16  C   UNL     1      -9.792   6.291  67.502  1.00  0.00    -0.120 C  
ENDROOT
BRANCH  10  17
HETATM   17  O   UNL     1      -8.830   2.990  69.908  1.00  0.00    -0.072 OA 
BRANCH  17  18
HETATM   18  C   UNL     1      -7.434   2.857  70.156  1.00  0.00    -0.043 C  
BRANCH  18  19
HETATM   19  O   UNL     1      -7.221   1.982  71.263  1.00  0.00    -0.032 OA 
BRANCH  19  20
HETATM   20  C   UNL     1      -6.913   2.646  72.399  1.00  0.00    -0.027 C  
HETATM   21  O   UNL     1      -7.445   2.501  73.492  1.00  0.00    -0.043 OA 
BRANCH  20  22
HETATM   22  O   UNL     1      -5.874   3.478  72.132  1.00  0.00    -0.008 OA 
HETATM   23  C   UNL     1      -5.256   4.007  73.299  1.00  0.00     0.000 C  
ENDBRANCH  20  22
ENDBRANCH  19  20
ENDBRANCH  18  19
ENDBRANCH  17  18
ENDBRANCH  10  17
BRANCH  11  24
HETATM   24  C   UNL     1      -9.623   8.539  69.657  1.00  0.00    -0.170 C  
HETATM   25  C   UNL     1      -8.402   8.252  70.605  1.00  0.00    -0.121 A  
HETATM   26  C   UNL     1      -8.280   7.075  71.362  1.00  0.00    -0.109 A  
HETATM   27  C   UNL     1      -7.214   6.718  72.194  1.00  0.00    -0.080 A  
HETATM   28  C   UNL     1      -6.187   7.601  72.338  1.00  0.00    -0.043 A  
HETATM   29  C   UNL     1      -6.263   8.818  71.690  1.00  0.00    -0.071 A  
HETATM   30  F   UNL     1      -5.126   7.270  73.085  1.00  0.00    -0.036 F  
HETATM   31  F   UNL     1      -5.250   9.687  71.840  1.00  0.00    -0.058 F  
HETATM   32  C   UNL     1      -7.363   9.168  70.855  1.00  0.00    -0.129 A  
HETATM   33  C   UNL     1      -7.269  10.466  70.126  1.00  0.00    -0.083 C  
HETATM   34  S   UNL     1      -6.616  10.060  68.498  1.00  0.00    -0.053 SA 
HETATM   35  C   UNL     1      -8.137   9.623  67.674  1.00  0.00    -0.113 A  
HETATM   36  C   UNL     1      -8.047   9.901  66.289  1.00  0.00    -0.114 A  
HETATM   37  C   UNL     1      -9.160   9.902  65.465  1.00  0.00    -0.232 A  
HETATM   38  C   UNL     1     -10.401   9.690  66.034  1.00  0.00    -0.160 A  
HETATM   39  C   UNL     1     -10.502   9.354  67.398  1.00  0.00    -0.343 A  
HETATM   40  C   UNL     1      -9.363   9.203  68.238  1.00  0.00    -0.141 A  
ENDBRANCH  11  24
TORSDOF 6
ENDMDL
MODEL       83
REMARK 921   NORMALIZED FREE ENERGY PREDICTED BY IDOCK:   -2.50 KCAL/MOL
REMARK 922        TOTAL FREE ENERGY PREDICTED BY IDOCK:   -4.11 KCAL/MOL
REMARK 923 INTER-LIGAND FREE ENERGY PREDICTED BY IDOCK:   -6.52 KCAL/MOL
REMARK 924 INTRA-LIGAND FREE ENERGY PREDICTED BY IDOCK:    2.41 KCAL/MOL
REMARK 927      BINDING AFFINITY PREDICTED BY RF-SCORE:    0.00 PKD
ROOT
HETATM    1  C   UNL     1     -11.177   7.374  70.451  1.00  0.00    -0.262 C  
HETATM    2  C   UNL     1     -11.569   8.634  71.278  1.00  0.00    -0.284 C  
HETATM    3  O   UNL     1     -11.165   8.592  72.653  1.00  0.00    -0.271 OA 
HETATM    4  C   UNL     1      -9.775   8.290  72.743  1.00  0.00    -0.266 C  
HETATM    5  C   UNL     1      -9.524   6.855  72.299  1.00  0.00    -0.140 C  
HETATM    6  N   UNL     1     -10.254   6.462  71.093  1.00  0.00    -0.189 N  
HETATM    7  C   UNL     1     -10.059   5.191  70.556  1.00  0.00    -0.256 C  
HETATM    8  O   UNL     1      -9.547   4.291  71.218  1.00  0.00    -0.149 OA 
HETATM    9  C   UNL     1     -10.260   5.123  69.034  1.00  0.00    -0.171 C  
HETATM   10  C   UNL     1      -9.782   4.053  68.350  1.00  0.00    -0.066 C  
HETATM   11  N   UNL     1     -10.771   7.548  69.049  1.00  0.00    -0.179 NA 
HETATM   12  C   UNL     1      -9.883   4.100  66.844  1.00  0.00    -0.164 C  
HETATM   13  O   UNL     1      -9.397   3.242  66.113  1.00  0.00    -0.162 OA 
HETATM   14  N   UNL     1     -10.729   6.283  68.372  1.00  0.00    -0.260 NA 
HETATM   15  C   UNL     1     -10.605   5.227  66.224  1.00  0.00    -0.308 C  
HETATM   16  C   UNL     1     -10.978   6.232  67.018  1.00  0.00    -0.364 C  
ENDROOT
BRANCH  10  17
HETATM   17  O   UNL     1      -9.067   3.048  68.972  1.00  0.00    -0.116 OA 
BRANCH  17  18
HETATM   18  C   UNL     1      -7.900   2.574  68.309  1.00  0.00    -0.054 C  
BRANCH  18  19
HETATM   19  O   UNL     1      -6.869   3.558  68.381  1.00  0.00    -0.045 OA 
BRANCH  19  20
HETATM   20  C   UNL     1      -6.080   3.565  67.283  1.00  0.00    -0.028 C  
HETATM   21  O   UNL     1      -5.855   2.616  66.545  1.00  0.00    -0.021 OA 
BRANCH  20  22
HETATM   22  O   UNL     1      -5.609   4.828  67.112  1.00  0.00    -0.012 OA 
HETATM   23  C   UNL     1      -6.234   5.525  66.041  1.00  0.00    -0.034 C  
ENDBRANCH  20  22
ENDBRANCH  19  20
ENDBRANCH  18  19
ENDBRANCH  17  18
ENDBRANCH  10  17
BRANCH  11  24
HETATM   24  C   UNL     1      -9.747   8.606  68.620  1.00  0.00    -0.163 C  
HETATM   25  C   UNL     1     -10.210  10.109  68.621  1.00  0.00    -0.193 A  
HETATM   26  C   UNL     1     -11.532  10.503  68.886  1.00  0.00    -0.292 A  
HETATM   27  C   UNL     1     -12.021  11.811  68.950  1.00  0.00    -0.332 A  
HETATM   28  C   UNL     1     -11.159  12.835  68.694  1.00  0.00    -0.266 A  
HETATM   29  C   UNL     1      -9.857  12.533  68.348  1.00  0.00    -0.202 A  
HETATM   30  F   UNL     1     -11.580  14.101  68.798  1.00  0.00    -0.278 F  
HETATM   31  F   UNL     1      -9.012  13.544  68.090  1.00  0.00    -0.163 F  
HETATM   32  C   UNL     1      -9.379  11.191  68.277  1.00  0.00    -0.176 A  
HETATM   33  C   UNL     1      -7.925  11.008  68.000  1.00  0.00    -0.115 C  
HETATM   34  S   UNL     1      -7.144  10.829  69.612  1.00  0.00    -0.108 SA 
HETATM   35  C   UNL     1      -7.393   9.080  69.864  1.00  0.00    -0.060 A  
HETATM   36  C   UNL     1      -6.359   8.545  70.669  1.00  0.00    -0.037 A  
HETATM   37  C   UNL     1      -6.163   7.181  70.804  1.00  0.00    -0.036 A  
HETATM   38  C   UNL     1      -6.965   6.325  70.073  1.00  0.00    -0.066 A  
HETATM   39  C   UNL     1      -8.035   6.838  69.315  1.00  0.00    -0.115 A  
HETATM   40  C   UNL     1      -8.350   8.225  69.273  1.00  0.00    -0.122 A  
ENDBRANCH  11  24
TORSDOF 6
ENDMDL
MODEL       84
REMARK 921   NORMALIZED FREE ENERGY PREDICTED BY IDOCK:   -2.44 KCAL/MOL
REMARK 922        TOTAL FREE ENERGY PREDICTED BY IDOCK:   -4.03 KCAL/MOL
REMARK 923 INTER-LIGAND FREE ENERGY PREDICTED BY IDOCK:   -4.94 KCAL/MOL
REMARK 924 INTRA-LIGAND FREE ENERGY PREDICTED BY IDOCK:    0.91 KCAL/MOL
REMARK 927      BINDING AFFINITY PREDICTED BY RF-SCORE:    0.00 PKD
ROOT
HETATM    1  C   UNL     1      -9.032   8.675  68.769  1.00  0.00    -0.138 C  
HETATM    2  C   UNL     1      -9.775   9.290  67.546  1.00  0.00    -0.158 C  
HETATM    3  O   UNL     1      -9.658   8.530  66.335  1.00  0.00    -0.212 OA 
HETATM    4  C   UNL     1     -10.028   7.174  66.574  1.00  0.00    -0.103 C  
HETATM    5  C   UNL     1      -8.994   6.502  67.466  1.00  0.00    -0.110 C  
HETATM    6  N   UNL     1      -8.550   7.320  68.596  1.00  0.00    -0.128 N  
HETATM    7  C   UNL     1      -7.649   6.790  69.517  1.00  0.00    -0.099 C  
HETATM    8  O   UNL     1      -6.982   5.792  69.253  1.00  0.00    -0.059 OA 
HETATM    9  C   UNL     1      -7.794   7.371  70.932  1.00  0.00    -0.096 C  
HETATM   10  C   UNL     1      -7.227   6.716  71.978  1.00  0.00    -0.081 C  
HETATM   11  N   UNL     1      -9.646   8.792  70.100  1.00  0.00    -0.167 NA 
HETATM   12  C   UNL     1      -7.515   7.253  73.360  1.00  0.00    -0.075 C  
HETATM   13  O   UNL     1      -7.144   6.691  74.387  1.00  0.00    -0.091 OA 
HETATM   14  N   UNL     1      -8.705   8.436  71.125  1.00  0.00    -0.145 NA 
HETATM   15  C   UNL     1      -8.272   8.513  73.480  1.00  0.00    -0.059 C  
HETATM   16  C   UNL     1      -8.810   9.018  72.369  1.00  0.00     0.491 C  
ENDROOT
BRANCH  10  17
HETATM   17  O   UNL     1      -6.572   5.511  71.817  1.00  0.00    -0.049 OA 
BRANCH  17  18
HETATM   18  C   UNL     1      -6.494   4.657  72.954  1.00  0.00    -0.042 C  
BRANCH  18  19
HETATM   19  O   UNL     1      -6.272   3.311  72.533  1.00  0.00    -0.009 OA 
BRANCH  19  20
HETATM   20  C   UNL     1      -7.301   2.493  72.845  1.00  0.00    -0.040 C  
HETATM   21  O   UNL     1      -7.941   2.496  73.888  1.00  0.00    -0.054 OA 
BRANCH  20  22
HETATM   22  O   UNL     1      -7.537   1.688  71.777  1.00  0.00    -0.038 OA 
HETATM   23  C   UNL     1      -8.908   1.630  71.403  1.00  0.00    -0.061 C  
ENDBRANCH  20  22
ENDBRANCH  19  20
ENDBRANCH  18  19
ENDBRANCH  17  18
ENDBRANCH  10  17
BRANCH  11  24
HETATM   24  C   UNL     1     -11.119   8.453  70.352  1.00  0.00    -0.231 C  
HETATM   25  C   UNL     1     -11.436   7.193  71.236  1.00  0.00    -0.314 A  
HETATM   26  C   UNL     1     -10.442   6.317  71.704  1.00  0.00    -0.258 A  
HETATM   27  C   UNL     1     -10.626   5.201  72.527  1.00  0.00    -0.275 A  
HETATM   28  C   UNL     1     -11.896   4.879  72.901  1.00  0.00    -0.003 A  
HETATM   29  C   UNL     1     -12.942   5.643  72.422  1.00  0.00     0.857 A  
HETATM   30  F   UNL     1     -12.104   3.850  73.731  1.00  0.00    -0.095 F  
HETATM   31  F   UNL     1     -14.192   5.319  72.788  1.00  0.00     0.269 F  
HETATM   32  C   UNL     1     -12.735   6.770  71.574  1.00  0.00    -0.341 A  
HETATM   33  C   UNL     1     -13.940   7.575  71.218  1.00  0.00    -0.271 C  
HETATM   34  S   UNL     1     -13.991   8.923  72.409  1.00  0.00    -0.368 SA 
HETATM   35  C   UNL     1     -12.892  10.071  71.598  1.00  0.00    -0.440 A  
HETATM   36  C   UNL     1     -13.243  11.404  71.923  1.00  0.00    -0.485 A  
HETATM   37  C   UNL     1     -12.727  12.489  71.233  1.00  0.00    -0.350 A  
HETATM   38  C   UNL     1     -11.898  12.250  70.154  1.00  0.00    -0.352 A  
HETATM   39  C   UNL     1     -11.492  10.935  69.856  1.00  0.00    -0.402 A  
HETATM   40  C   UNL     1     -11.890   9.813  70.636  1.00  0.00    -0.360 A  
ENDBRANCH  11  24
TORSDOF 6
ENDMDL
MODEL       85
REMARK 921   NORMALIZED FREE ENERGY PREDICTED BY IDOCK:   -2.38 KCAL/MOL
REMARK 922        TOTAL FREE ENERGY PREDICTED BY IDOCK:   -3.95 KCAL/MOL
REMARK 923 INTER-LIGAND FREE ENERGY PREDICTED BY IDOCK:   -6.33 KCAL/MOL
REMARK 924 INTRA-LIGAND FREE ENERGY PREDICTED BY IDOCK:    2.37 KCAL/MOL
REMARK 927      BINDING AFFINITY PREDICTED BY RF-SCORE:    0.00 PKD
ROOT
HETATM    1  C   UNL     1     -11.536  10.764  68.399  1.00  0.00    -0.288 C  
HETATM    2  C   UNL     1     -11.931  10.934  69.895  1.00  0.00    -0.353 C  
HETATM    3  O   UNL     1     -11.186  10.111  70.804  1.00  0.00    -0.321 OA 
HETATM    4  C   UNL     1      -9.789  10.286  70.585  1.00  0.00     0.649 C  
HETATM    5  C   UNL     1      -9.396   9.697  69.237  1.00  0.00    -0.180 C  
HETATM    6  N   UNL     1     -10.324  10.011  68.150  1.00  0.00    -0.182 N  
HETATM    7  C   UNL     1     -10.039   9.578  66.856  1.00  0.00    -0.230 C  
HETATM    8  O   UNL     1      -9.215   8.690  66.649  1.00  0.00    -0.158 OA 
HETATM    9  C   UNL     1     -10.609  10.489  65.757  1.00  0.00    -0.066 C  
HETATM   10  C   UNL     1     -10.130  10.378  64.492  1.00  0.00    -0.295 C  
HETATM   11  N   UNL     1     -11.544  11.949  67.528  1.00  0.00    -0.474 NA 
HETATM   12  C   UNL     1     -10.623  11.387  63.481  1.00  0.00    -0.402 C  
HETATM   13  O   UNL     1     -10.189  11.453  62.335  1.00  0.00     0.246 OA 
HETATM   14  N   UNL     1     -11.441  11.564  66.148  1.00  0.00    -0.309 NA 
HETATM   15  C   UNL     1     -11.678  12.332  63.891  1.00  0.00    -0.536 C  
HETATM   16  C   UNL     1     -12.017  12.359  65.180  1.00  0.00    -0.400 C  
ENDROOT
BRANCH  10  17
HETATM   17  O   UNL     1      -9.104   9.510  64.172  1.00  0.00    -0.232 OA 
BRANCH  17  18
HETATM   18  C   UNL     1      -7.891  10.085  63.698  1.00  0.00    -0.151 C  
BRANCH  18  19
HETATM   19  O   UNL     1      -7.006   9.055  63.261  1.00  0.00    -0.090 OA 
BRANCH  19  20
HETATM   20  C   UNL     1      -5.860   9.015  63.978  1.00  0.00    -0.071 C  
HETATM   21  O   UNL     1      -5.209   9.977  64.359  1.00  0.00    -0.068 OA 
BRANCH  20  22
HETATM   22  O   UNL     1      -5.576   7.714  64.244  1.00  0.00    -0.033 OA 
HETATM   23  C   UNL     1      -5.996   7.295  65.537  1.00  0.00    -0.037 C  
ENDBRANCH  20  22
ENDBRANCH  19  20
ENDBRANCH  18  19
ENDBRANCH  17  18
ENDBRANCH  10  17
BRANCH  11  24
HETATM   24  C   UNL     1     -10.883  13.269  67.939  1.00  0.00    -0.243 C  
HETATM   25  C   UNL     1     -11.534  14.071  69.124  1.00  0.00    -0.340 A  
HETATM   26  C   UNL     1     -12.739  13.689  69.736  1.00  0.00     0.128 A  
HETATM   27  C   UNL     1     -13.365  14.315  70.819  1.00  0.00    -0.174 A  
HETATM   28  C   UNL     1     -12.793  15.440  71.332  1.00  0.00    -0.439 A  
HETATM   29  C   UNL     1     -11.646  15.929  70.739  1.00  0.00    -0.410 A  
HETATM   30  F   UNL     1     -13.337  16.034  72.402  1.00  0.00    -0.503 F  
HETATM   31  F   UNL     1     -11.089  17.041  71.245  1.00  0.00    -0.091 F  
HETATM   32  C   UNL     1     -11.028  15.284  69.629  1.00  0.00    -0.291 A  
HETATM   33  C   UNL     1      -9.734  15.854  69.154  1.00  0.00    -0.249 C  
HETATM   34  S   UNL     1      -8.452  14.894  69.976  1.00  0.00     0.757 SA 
HETATM   35  C   UNL     1      -8.347  13.518  68.845  1.00  0.00     0.178 A  
HETATM   36  C   UNL     1      -7.041  12.974  68.849  1.00  0.00    -0.068 A  
HETATM   37  C   UNL     1      -6.615  12.075  67.885  1.00  0.00    -0.076 A  
HETATM   38  C   UNL     1      -7.478  11.759  66.853  1.00  0.00    -0.106 A  
HETATM   39  C   UNL     1      -8.799  12.244  66.867  1.00  0.00    -0.207 A  
HETATM   40  C   UNL     1      -9.309  13.052  67.921  1.00  0.00    -0.212 A  
ENDBRANCH  11  24
TORSDOF 6
ENDMDL
MODEL       86
REMARK 921   NORMALIZED FREE ENERGY PREDICTED BY IDOCK:   -2.37 KCAL/MOL
REMARK 922        TOTAL FREE ENERGY PREDICTED BY IDOCK:   -3.94 KCAL/MOL
REMARK 923 INTER-LIGAND FREE ENERGY PREDICTED BY IDOCK:   -3.77 KCAL/MOL
REMARK 924 INTRA-LIGAND FREE ENERGY PREDICTED BY IDOCK:   -0.17 KCAL/MOL
REMARK 927      BINDING AFFINITY PREDICTED BY RF-SCORE:    0.00 PKD
ROOT
HETATM    1  C   UNL     1     -11.643   8.987  69.075  1.00  0.00     0.807 C  
HETATM    2  C   UNL     1     -12.400  10.345  68.982  1.00  0.00     0.546 C  
HETATM    3  O   UNL     1     -13.043  10.752  70.198  1.00  0.00    -0.147 OA 
HETATM    4  C   UNL     1     -12.112  10.717  71.277  1.00  0.00    -0.261 C  
HETATM    5  C   UNL     1     -11.731   9.276  71.590  1.00  0.00    -0.392 C  
HETATM    6  N   UNL     1     -11.473   8.452  70.409  1.00  0.00    -0.188 N  
HETATM    7  C   UNL     1     -11.058   7.131  70.570  1.00  0.00    -0.271 C  
HETATM    8  O   UNL     1     -11.200   6.545  71.641  1.00  0.00    -0.247 OA 
HETATM    9  C   UNL     1     -10.175   6.613  69.423  1.00  0.00    -0.183 C  
HETATM   10  C   UNL     1      -9.438   5.489  69.611  1.00  0.00    -0.138 C  
HETATM   11  N   UNL     1     -10.381   8.831  68.337  1.00  0.00    -0.207 NA 
HETATM   12  C   UNL     1      -8.485   5.101  68.506  1.00  0.00    -0.088 C  
HETATM   13  O   UNL     1      -7.696   4.165  68.600  1.00  0.00    -0.062 OA 
HETATM   14  N   UNL     1      -9.983   7.452  68.300  1.00  0.00    -0.158 NA 
HETATM   15  C   UNL     1      -8.509   5.879  67.253  1.00  0.00    -0.103 C  
HETATM   16  C   UNL     1      -9.248   6.989  67.230  1.00  0.00    -0.129 C  
ENDROOT
BRANCH  10  17
HETATM   17  O   UNL     1      -9.413   4.826  70.822  1.00  0.00    -0.141 OA 
BRANCH  17  18
HETATM   18  C   UNL     1      -9.076   3.443  70.799  1.00  0.00    -0.113 C  
BRANCH  18  19
HETATM   19  O   UNL     1      -8.541   3.054  72.064  1.00  0.00    -0.071 OA 
BRANCH  19  20
HETATM   20  C   UNL     1      -7.213   3.291  72.162  1.00  0.00    -0.050 C  
HETATM   21  O   UNL     1      -6.371   3.072  71.303  1.00  0.00    -0.018 OA 
BRANCH  20  22
HETATM   22  O   UNL     1      -6.977   3.861  73.372  1.00  0.00    -0.050 OA 
HETATM   23  C   UNL     1      -7.109   5.277  73.368  1.00  0.00    -0.085 C  
ENDBRANCH  20  22
ENDBRANCH  19  20
ENDBRANCH  18  19
ENDBRANCH  17  18
ENDBRANCH  10  17
BRANCH  11  24
HETATM   24  C   UNL     1      -9.266   9.882  68.395  1.00  0.00    -0.130 C  
HETATM   25  C   UNL     1      -8.232   9.782  69.574  1.00  0.00    -0.146 A  
HETATM   26  C   UNL     1      -8.351   8.852  70.620  1.00  0.00    -0.190 A  
HETATM   27  C   UNL     1      -7.460   8.663  71.682  1.00  0.00    -0.121 A  
HETATM   28  C   UNL     1      -6.371   9.478  71.761  1.00  0.00     0.183 A  
HETATM   29  C   UNL     1      -6.218  10.472  70.816  1.00  0.00    -0.008 A  
HETATM   30  F   UNL     1      -5.470   9.292  72.734  1.00  0.00    -0.077 F  
HETATM   31  F   UNL     1      -5.146  11.277  70.902  1.00  0.00    -0.078 F  
HETATM   32  C   UNL     1      -7.143  10.656  69.747  1.00  0.00    -0.140 A  
HETATM   33  C   UNL     1      -6.801  11.695  68.732  1.00  0.00    -0.090 C  
HETATM   34  S   UNL     1      -5.974  10.814  67.398  1.00  0.00    -0.051 SA 
HETATM   35  C   UNL     1      -7.403  10.275  66.475  1.00  0.00    -0.113 A  
HETATM   36  C   UNL     1      -7.086  10.155  65.100  1.00  0.00    -0.137 A  
HETATM   37  C   UNL     1      -8.064  10.008  64.131  1.00  0.00    -0.153 A  
HETATM   38  C   UNL     1      -9.390  10.048  64.520  1.00  0.00    -0.345 A  
HETATM   39  C   UNL     1      -9.719  10.106  65.888  1.00  0.00    -0.292 A  
HETATM   40  C   UNL     1      -8.735  10.112  66.915  1.00  0.00    -0.135 A  
ENDBRANCH  11  24
TORSDOF 6
ENDMDL
MODEL       87
REMARK 921   NORMALIZED FREE ENERGY PREDICTED BY IDOCK:   -2.36 KCAL/MOL
REMARK 922        TOTAL FREE ENERGY PREDICTED BY IDOCK:   -3.93 KCAL/MOL
REMARK 923 INTER-LIGAND FREE ENERGY PREDICTED BY IDOCK:   -6.29 KCAL/MOL
REMARK 924 INTRA-LIGAND FREE ENERGY PREDICTED BY IDOCK:    2.36 KCAL/MOL
REMARK 927      BINDING AFFINITY PREDICTED BY RF-SCORE:    0.00 PKD
ROOT
HETATM    1  C   UNL     1     -10.870  10.487  67.271  1.00  0.00    -0.279 C  
HETATM    2  C   UNL     1     -11.501  11.753  67.923  1.00  0.00    -0.317 C  
HETATM    3  O   UNL     1     -12.012  11.549  69.247  1.00  0.00    -0.323 OA 
HETATM    4  C   UNL     1     -11.012  10.952  70.069  1.00  0.00    -0.151 C  
HETATM    5  C   UNL     1     -10.746   9.524  69.611  1.00  0.00    -0.238 C  
HETATM    6  N   UNL     1     -10.653   9.364  68.160  1.00  0.00    -0.225 N  
HETATM    7  C   UNL     1     -10.353   8.113  67.623  1.00  0.00    -0.247 C  
HETATM    8  O   UNL     1     -10.470   7.090  68.292  1.00  0.00    -0.185 OA 
HETATM    9  C   UNL     1      -9.608   8.176  66.280  1.00  0.00    -0.178 C  
HETATM   10  C   UNL     1      -8.969   7.069  65.826  1.00  0.00    -0.005 C  
HETATM   11  N   UNL     1      -9.685  10.650  66.416  1.00  0.00    -0.190 NA 
HETATM   12  C   UNL     1      -8.140   7.221  64.573  1.00  0.00    -0.071 C  
HETATM   13  O   UNL     1      -7.436   6.322  64.121  1.00  0.00    -0.069 OA 
HETATM   14  N   UNL     1      -9.421   9.445  65.681  1.00  0.00    -0.250 NA 
HETATM   15  C   UNL     1      -8.182   8.509  63.856  1.00  0.00    -0.128 C  
HETATM   16  C   UNL     1      -8.813   9.525  64.447  1.00  0.00    -0.216 C  
ENDROOT
BRANCH  10  17
HETATM   17  O   UNL     1      -8.917   5.901  66.561  1.00  0.00    -0.123 OA 
BRANCH  17  18
HETATM   18  C   UNL     1      -9.736   4.821  66.125  1.00  0.00    -0.196 C  
BRANCH  18  19
HETATM   19  O   UNL     1      -8.922   3.688  65.824  1.00  0.00    -0.125 OA 
BRANCH  19  20
HETATM   20  C   UNL     1      -8.470   3.062  66.934  1.00  0.00    -0.097 C  
HETATM   21  O   UNL     1      -9.083   2.910  67.982  1.00  0.00    -0.140 OA 
BRANCH  20  22
HETATM   22  O   UNL     1      -7.225   2.588  66.672  1.00  0.00    -0.055 OA 
HETATM   23  C   UNL     1      -6.612   1.956  67.789  1.00  0.00    -0.028 C  
ENDBRANCH  20  22
ENDBRANCH  19  20
ENDBRANCH  18  19
ENDBRANCH  17  18
ENDBRANCH  10  17
BRANCH  11  24
HETATM   24  C   UNL     1      -8.476  11.487  66.847  1.00  0.00    -0.165 C  
HETATM   25  C   UNL     1      -8.665  13.045  66.941  1.00  0.00    -0.158 A  
HETATM   26  C   UNL     1      -9.844  13.698  66.546  1.00  0.00    -0.295 A  
HETATM   27  C   UNL     1     -10.115  15.067  66.634  1.00  0.00    -0.267 A  
HETATM   28  C   UNL     1      -9.138  15.888  67.112  1.00  0.00    -0.209 A  
HETATM   29  C   UNL     1      -7.918  15.338  67.451  1.00  0.00    -0.186 A  
HETATM   30  F   UNL     1      -9.382  17.196  67.259  1.00  0.00    -0.231 F  
HETATM   31  F   UNL     1      -6.957  16.151  67.916  1.00  0.00    -0.115 F  
HETATM   32  C   UNL     1      -7.657  13.941  67.344  1.00  0.00    -0.160 A  
HETATM   33  C   UNL     1      -6.336  13.462  67.847  1.00  0.00    -0.151 C  
HETATM   34  S   UNL     1      -6.631  12.920  69.538  1.00  0.00     0.032 SA 
HETATM   35  C   UNL     1      -7.195  11.258  69.218  1.00  0.00    -0.094 A  
HETATM   36  C   UNL     1      -6.872  10.409  70.303  1.00  0.00    -0.132 A  
HETATM   37  C   UNL     1      -6.960   9.030  70.210  1.00  0.00    -0.052 A  
HETATM   38  C   UNL     1      -7.309   8.473  68.994  1.00  0.00    -0.081 A  
HETATM   39  C   UNL     1      -7.691   9.304  67.924  1.00  0.00    -0.088 A  
HETATM   40  C   UNL     1      -7.751  10.721  68.035  1.00  0.00    -0.101 A  
ENDBRANCH  11  24
TORSDOF 6
ENDMDL
MODEL       88
REMARK 921   NORMALIZED FREE ENERGY PREDICTED BY IDOCK:   -2.19 KCAL/MOL
REMARK 922        TOTAL FREE ENERGY PREDICTED BY IDOCK:   -3.69 KCAL/MOL
REMARK 923 INTER-LIGAND FREE ENERGY PREDICTED BY IDOCK:   -2.86 KCAL/MOL
REMARK 924 INTRA-LIGAND FREE ENERGY PREDICTED BY IDOCK:   -0.83 KCAL/MOL
REMARK 927      BINDING AFFINITY PREDICTED BY RF-SCORE:    0.00 PKD
ROOT
HETATM    1  C   UNL     1      -6.043   7.400  71.066  1.00  0.00    -0.035 C  
HETATM    2  C   UNL     1      -5.379   7.793  72.419  1.00  0.00    -0.036 C  
HETATM    3  O   UNL     1      -5.539   9.172  72.781  1.00  0.00    -0.086 OA 
HETATM    4  C   UNL     1      -6.916   9.534  72.723  1.00  0.00     1.239 C  
HETATM    5  C   UNL     1      -7.394   9.532  71.277  1.00  0.00     0.244 C  
HETATM    6  N   UNL     1      -6.933   8.387  70.492  1.00  0.00    -0.037 N  
HETATM    7  C   UNL     1      -7.354   8.245  69.170  1.00  0.00    -0.081 C  
HETATM    8  O   UNL     1      -7.836   9.190  68.551  1.00  0.00    -0.098 OA 
HETATM    9  C   UNL     1      -7.430   6.785  68.697  1.00  0.00    -0.099 C  
HETATM   10  C   UNL     1      -8.133   6.489  67.575  1.00  0.00    -0.121 C  
HETATM   11  N   UNL     1      -6.666   6.074  70.945  1.00  0.00    -0.059 NA 
HETATM   12  C   UNL     1      -8.292   5.027  67.230  1.00  0.00    -0.106 C  
HETATM   13  O   UNL     1      -8.988   4.630  66.300  1.00  0.00    -0.115 OA 
HETATM   14  N   UNL     1      -6.962   5.776  69.572  1.00  0.00    -0.061 NA 
HETATM   15  C   UNL     1      -7.572   4.032  68.046  1.00  0.00    -0.067 C  
HETATM   16  C   UNL     1      -6.960   4.464  69.150  1.00  0.00    -0.050 C  
ENDROOT
BRANCH  10  17
HETATM   17  O   UNL     1      -8.833   7.452  66.875  1.00  0.00    -0.124 OA 
BRANCH  17  18
HETATM   18  C   UNL     1      -8.475   7.654  65.512  1.00  0.00    -0.120 C  
BRANCH  18  19
HETATM   19  O   UNL     1      -7.910   8.954  65.347  1.00  0.00    -0.096 OA 
BRANCH  19  20
HETATM   20  C   UNL     1      -8.833   9.882  65.007  1.00  0.00    -0.190 C  
HETATM   21  O   UNL     1      -9.635   9.805  64.086  1.00  0.00    -0.213 OA 
BRANCH  20  22
HETATM   22  O   UNL     1      -8.747  10.906  65.895  1.00  0.00    -0.176 OA 
HETATM   23  C   UNL     1      -9.952  11.133  66.616  1.00  0.00    -0.207 C  
ENDBRANCH  20  22
ENDBRANCH  19  20
ENDBRANCH  18  19
ENDBRANCH  17  18
ENDBRANCH  10  17
BRANCH  11  24
HETATM   24  C   UNL     1      -7.628   5.524  72.005  1.00  0.00    -0.100 C  
HETATM   25  C   UNL     1      -9.165   5.787  71.799  1.00  0.00    -0.157 A  
HETATM   26  C   UNL     1      -9.673   6.585  70.761  1.00  0.00    -0.194 A  
HETATM   27  C   UNL     1     -11.019   6.837  70.478  1.00  0.00    -0.327 A  
HETATM   28  C   UNL     1     -11.962   6.298  71.300  1.00  0.00    -0.113 A  
HETATM   29  C   UNL     1     -11.546   5.562  72.392  1.00  0.00    -0.167 A  
HETATM   30  F   UNL     1     -13.261   6.475  71.028  1.00  0.00    -0.209 F  
HETATM   31  F   UNL     1     -12.479   5.038  73.203  1.00  0.00    -0.282 F  
HETATM   32  C   UNL     1     -10.169   5.326  72.671  1.00  0.00    -0.227 A  
HETATM   33  C   UNL     1      -9.860   4.424  73.818  1.00  0.00    -0.135 C  
HETATM   34  S   UNL     1      -9.633   2.788  73.099  1.00  0.00    -0.098 SA 
HETATM   35  C   UNL     1      -7.914   2.910  72.635  1.00  0.00    -0.059 A  
HETATM   36  C   UNL     1      -7.302   1.634  72.668  1.00  0.00    -0.028 A  
HETATM   37  C   UNL     1      -5.928   1.476  72.606  1.00  0.00    -0.008 A  
HETATM   38  C   UNL     1      -5.135   2.607  72.579  1.00  0.00     0.000 A  
HETATM   39  C   UNL     1      -5.729   3.880  72.485  1.00  0.00    -0.008 A  
HETATM   40  C   UNL     1      -7.137   4.066  72.400  1.00  0.00    -0.056 A  
ENDBRANCH  11  24
TORSDOF 6
ENDMDL
MODEL       89
REMARK 921   NORMALIZED FREE ENERGY PREDICTED BY IDOCK:   -2.04 KCAL/MOL
REMARK 922        TOTAL FREE ENERGY PREDICTED BY IDOCK:   -3.49 KCAL/MOL
REMARK 923 INTER-LIGAND FREE ENERGY PREDICTED BY IDOCK:   -4.90 KCAL/MOL
REMARK 924 INTRA-LIGAND FREE ENERGY PREDICTED BY IDOCK:    1.42 KCAL/MOL
REMARK 927      BINDING AFFINITY PREDICTED BY RF-SCORE:    0.00 PKD
ROOT
HETATM    1  C   UNL     1     -11.368   6.238  72.321  1.00  0.00    -0.294 C  
HETATM    2  C   UNL     1     -12.879   6.059  71.989  1.00  0.00     0.500 C  
HETATM    3  O   UNL     1     -13.672   7.241  72.170  1.00  0.00    -0.132 OA 
HETATM    4  C   UNL     1     -13.083   8.333  71.468  1.00  0.00    -0.293 C  
HETATM    5  C   UNL     1     -11.771   8.731  72.131  1.00  0.00    -0.363 C  
HETATM    6  N   UNL     1     -10.923   7.602  72.514  1.00  0.00    -0.294 N  
HETATM    7  C   UNL     1      -9.670   7.842  73.075  1.00  0.00    -0.283 C  
HETATM    8  O   UNL     1      -9.383   8.942  73.543  1.00  0.00     0.296 OA 
HETATM    9  C   UNL     1      -8.639   6.740  72.787  1.00  0.00    -0.121 C  
HETATM   10  C   UNL     1      -7.321   7.000  72.977  1.00  0.00    -0.073 C  
HETATM   11  N   UNL     1     -10.376   5.528  71.499  1.00  0.00    -0.215 NA 
HETATM   12  C   UNL     1      -6.342   5.932  72.550  1.00  0.00    -0.053 C  
HETATM   13  O   UNL     1      -5.125   6.090  72.577  1.00  0.00    -0.021 OA 
HETATM   14  N   UNL     1      -9.080   5.574  72.116  1.00  0.00    -0.143 NA 
HETATM   15  C   UNL     1      -6.875   4.639  72.084  1.00  0.00    -0.055 C  
HETATM   16  C   UNL     1      -8.192   4.543  71.901  1.00  0.00    -0.104 C  
ENDROOT
BRANCH  10  17
HETATM   17  O   UNL     1      -6.871   8.247  73.367  1.00  0.00    -0.115 OA 
BRANCH  17  18
HETATM   18  C   UNL     1      -5.630   8.688  72.827  1.00  0.00    -0.068 C  
BRANCH  18  19
HETATM   19  O   UNL     1      -5.813   9.929  72.145  1.00  0.00    -0.294 OA 
BRANCH  19  20
HETATM   20  C   UNL     1      -5.822   9.787  70.801  1.00  0.00    -0.080 C  
HETATM   21  O   UNL     1      -5.404   8.827  70.169  1.00  0.00    -0.028 OA 
BRANCH  20  22
HETATM   22  O   UNL     1      -6.421  10.884  70.267  1.00  0.00    -0.156 OA 
HETATM   23  C   UNL     1      -5.583  12.033  70.248  1.00  0.00    -0.147 C  
ENDBRANCH  20  22
ENDBRANCH  19  20
ENDBRANCH  18  19
ENDBRANCH  17  18
ENDBRANCH  10  17
BRANCH  11  24
HETATM   24  C   UNL     1     -10.424   5.545  69.967  1.00  0.00    -0.303 C  
HETATM   25  C   UNL     1     -10.099   6.902  69.243  1.00  0.00    -0.178 A  
HETATM   26  C   UNL     1      -9.880   8.105  69.934  1.00  0.00    -0.186 A  
HETATM   27  C   UNL     1      -9.545   9.343  69.377  1.00  0.00    -0.177 A  
HETATM   28  C   UNL     1      -9.452   9.437  68.021  1.00  0.00    -0.133 A  
HETATM   29  C   UNL     1      -9.729   8.318  67.260  1.00  0.00    -0.177 A  
HETATM   30  F   UNL     1      -9.082  10.593  67.457  1.00  0.00    -0.137 F  
HETATM   31  F   UNL     1      -9.641   8.416  65.924  1.00  0.00    -0.273 F  
HETATM   32  C   UNL     1     -10.080   7.067  67.845  1.00  0.00    -0.204 A  
HETATM   33  C   UNL     1     -10.245   5.912  66.916  1.00  0.00    -0.214 C  
HETATM   34  S   UNL     1      -8.656   5.064  66.910  1.00  0.00    -0.103 SA 
HETATM   35  C   UNL     1      -8.871   4.033  68.350  1.00  0.00    -0.107 A  
HETATM   36  C   UNL     1      -8.122   2.839  68.218  1.00  0.00    -0.071 A  
HETATM   37  C   UNL     1      -8.310   1.756  69.061  1.00  0.00    -0.072 A  
HETATM   38  C   UNL     1      -9.307   1.829  70.015  1.00  0.00    -0.165 A  
HETATM   39  C   UNL     1     -10.018   3.030  70.199  1.00  0.00     0.367 A  
HETATM   40  C   UNL     1      -9.748   4.206  69.444  1.00  0.00    -0.233 A  
ENDBRANCH  11  24
TORSDOF 6
ENDMDL
MODEL       90
REMARK 921   NORMALIZED FREE ENERGY PREDICTED BY IDOCK:   -1.94 KCAL/MOL
REMARK 922        TOTAL FREE ENERGY PREDICTED BY IDOCK:   -3.36 KCAL/MOL
REMARK 923 INTER-LIGAND FREE ENERGY PREDICTED BY IDOCK:   -6.28 KCAL/MOL
REMARK 924 INTRA-LIGAND FREE ENERGY PREDICTED BY IDOCK:    2.91 KCAL/MOL
REMARK 927      BINDING AFFINITY PREDICTED BY RF-SCORE:    0.00 PKD
ROOT
HETATM    1  C   UNL     1      -7.577  14.301  67.227  1.00  0.00    -0.092 C  
HETATM    2  C   UNL     1      -6.855  12.972  67.601  1.00  0.00    -0.154 C  
HETATM    3  O   UNL     1      -6.097  13.029  68.817  1.00  0.00    -0.068 OA 
HETATM    4  C   UNL     1      -6.912  13.525  69.876  1.00  0.00     0.361 C  
HETATM    5  C   UNL     1      -7.234  14.994  69.640  1.00  0.00    -0.192 C  
HETATM    6  N   UNL     1      -7.600  15.316  68.260  1.00  0.00    -0.109 N  
HETATM    7  C   UNL     1      -7.975  16.618  67.933  1.00  0.00    -0.171 C  
HETATM    8  O   UNL     1      -7.714  17.561  68.677  1.00  0.00    -0.261 OA 
HETATM    9  C   UNL     1      -8.963  16.704  66.759  1.00  0.00    -0.237 C  
HETATM   10  C   UNL     1      -9.658  17.853  66.561  1.00  0.00    -0.313 C  
HETATM   11  N   UNL     1      -8.905  14.231  66.602  1.00  0.00    -0.190 NA 
HETATM   12  C   UNL     1     -10.713  17.838  65.481  1.00  0.00    -0.009 C  
HETATM   13  O   UNL     1     -11.473  18.780  65.275  1.00  0.00     0.480 OA 
HETATM   14  N   UNL     1      -9.283  15.510  66.070  1.00  0.00    -0.341 NA 
HETATM   15  C   UNL     1     -10.831  16.639  64.631  1.00  0.00     0.086 C  
HETATM   16  C   UNL     1     -10.117  15.566  64.974  1.00  0.00    -0.128 C  
ENDROOT
BRANCH  10  17
HETATM   17  O   UNL     1      -9.548  18.930  67.418  1.00  0.00    -0.299 OA 
BRANCH  17  18
HETATM   18  C   UNL     1      -8.989  20.128  66.888  1.00  0.00    -0.344 C  
BRANCH  18  19
HETATM   19  O   UNL     1      -7.926  19.810  65.991  1.00  0.00    -0.336 OA 
BRANCH  19  20
HETATM   20  C   UNL     1      -6.706  20.039  66.529  1.00  0.00    -0.212 C  
HETATM   21  O   UNL     1      -5.695  19.377  66.341  1.00  0.00    -0.158 OA 
BRANCH  20  22
HETATM   22  O   UNL     1      -6.785  21.164  67.285  1.00  0.00    -0.347 OA 
HETATM   23  C   UNL     1      -5.748  21.270  68.253  1.00  0.00    -0.267 C  
ENDBRANCH  20  22
ENDBRANCH  19  20
ENDBRANCH  18  19
ENDBRANCH  17  18
ENDBRANCH  10  17
BRANCH  11  24
HETATM   24  C   UNL     1     -10.025  13.345  67.161  1.00  0.00    -0.242 C  
HETATM   25  C   UNL     1      -9.760  11.797  67.236  1.00  0.00    -0.188 A  
HETATM   26  C   UNL     1      -8.603  11.193  66.718  1.00  0.00    -0.157 A  
HETATM   27  C   UNL     1      -8.266   9.837  66.779  1.00  0.00    -0.120 A  
HETATM   28  C   UNL     1      -9.150   8.978  67.360  1.00  0.00    -0.131 A  
HETATM   29  C   UNL     1     -10.349   9.478  67.826  1.00  0.00    -0.239 A  
HETATM   30  F   UNL     1      -8.836   7.683  67.482  1.00  0.00    -0.123 F  
HETATM   31  F   UNL     1     -11.220   8.628  68.393  1.00  0.00    -0.006 F  
HETATM   32  C   UNL     1     -10.680  10.862  67.746  1.00  0.00    -0.279 A  
HETATM   33  C   UNL     1     -11.959  11.287  68.386  1.00  0.00    -0.185 C  
HETATM   34  S   UNL     1     -11.509  11.852  70.036  1.00  0.00    -0.028 SA 
HETATM   35  C   UNL     1     -11.054  13.534  69.654  1.00  0.00     0.019 A  
HETATM   36  C   UNL     1     -11.295  14.375  70.767  1.00  0.00    -0.045 A  
HETATM   37  C   UNL     1     -11.277  15.756  70.663  1.00  0.00    -0.395 A  
HETATM   38  C   UNL     1     -11.083  16.320  69.416  1.00  0.00    -0.328 A  
HETATM   39  C   UNL     1     -10.783  15.500  68.312  1.00  0.00    -0.271 A  
HETATM   40  C   UNL     1     -10.651  14.087  68.418  1.00  0.00    -0.259 A  
ENDBRANCH  11  24
TORSDOF 6
ENDMDL
MODEL       91
REMARK 921   NORMALIZED FREE ENERGY PREDICTED BY IDOCK:   -1.89 KCAL/MOL
REMARK 922        TOTAL FREE ENERGY PREDICTED BY IDOCK:   -3.29 KCAL/MOL
REMARK 923 INTER-LIGAND FREE ENERGY PREDICTED BY IDOCK:   -5.94 KCAL/MOL
REMARK 924 INTRA-LIGAND FREE ENERGY PREDICTED BY IDOCK:    2.65 KCAL/MOL
REMARK 927      BINDING AFFINITY PREDICTED BY RF-SCORE:    0.00 PKD
ROOT
HETATM    1  C   UNL     1      -6.556   8.953  66.638  1.00  0.00    -0.064 C  
HETATM    2  C   UNL     1      -5.617  10.193  66.717  1.00  0.00    -0.046 C  
HETATM    3  O   UNL     1      -5.125  10.648  65.449  1.00  0.00    -0.093 OA 
HETATM    4  C   UNL     1      -6.211  10.841  64.546  1.00  0.00     0.208 C  
HETATM    5  C   UNL     1      -6.827   9.498  64.179  1.00  0.00    -0.102 C  
HETATM    6  N   UNL     1      -7.006   8.588  65.311  1.00  0.00    -0.077 N  
HETATM    7  C   UNL     1      -7.616   7.351  65.109  1.00  0.00    -0.104 C  
HETATM    8  O   UNL     1      -7.725   6.871  63.984  1.00  0.00    -0.106 OA 
HETATM    9  C   UNL     1      -8.368   6.822  66.341  1.00  0.00    -0.121 C  
HETATM   10  C   UNL     1      -9.270   5.820  66.185  1.00  0.00    -0.156 C  
HETATM   11  N   UNL     1      -7.695   8.870  67.564  1.00  0.00    -0.100 NA 
HETATM   12  C   UNL     1     -10.081   5.432  67.399  1.00  0.00    -0.185 C  
HETATM   13  O   UNL     1     -10.994   4.612  67.360  1.00  0.00     0.566 OA 
HETATM   14  N   UNL     1      -8.266   7.552  67.549  1.00  0.00    -0.113 NA 
HETATM   15  C   UNL     1      -9.754   6.062  68.691  1.00  0.00    -0.149 C  
HETATM   16  C   UNL     1      -8.878   7.068  68.684  1.00  0.00    -0.128 C  
ENDROOT
BRANCH  10  17
HETATM   17  O   UNL     1      -9.576   5.299  64.943  1.00  0.00     0.119 OA 
BRANCH  17  18
HETATM   18  C   UNL     1      -8.663   4.357  64.390  1.00  0.00    -0.145 C  
BRANCH  18  19
HETATM   19  O   UNL     1      -8.135   3.529  65.426  1.00  0.00    -0.095 OA 
BRANCH  19  20
HETATM   20  C   UNL     1      -8.694   2.298  65.443  1.00  0.00    -0.119 C  
HETATM   21  O   UNL     1      -9.580   1.893  64.703  1.00  0.00    -0.120 OA 
BRANCH  20  22
HETATM   22  O   UNL     1      -8.069   1.566  66.400  1.00  0.00    -0.070 OA 
HETATM   23  C   UNL     1      -8.406   1.958  67.725  1.00  0.00    -0.067 C  
ENDBRANCH  20  22
ENDBRANCH  19  20
ENDBRANCH  18  19
ENDBRANCH  17  18
ENDBRANCH  10  17
BRANCH  11  24
HETATM   24  C   UNL     1      -8.653  10.046  67.788  1.00  0.00    -0.118 C  
HETATM   25  C   UNL     1      -9.541  10.503  66.574  1.00  0.00    -0.216 A  
HETATM   26  C   UNL     1      -9.414   9.959  65.285  1.00  0.00    -0.331 A  
HETATM   27  C   UNL     1     -10.186  10.272  64.162  1.00  0.00     0.024 A  
HETATM   28  C   UNL     1     -11.145  11.232  64.287  1.00  0.00    -0.222 A  
HETATM   29  C   UNL     1     -11.285  11.874  65.501  1.00  0.00    -0.299 A  
HETATM   30  F   UNL     1     -11.938  11.520  63.247  1.00  0.00    -0.524 F  
HETATM   31  F   UNL     1     -12.228  12.823  65.618  1.00  0.00    -0.444 F  
HETATM   32  C   UNL     1     -10.481  11.548  66.632  1.00  0.00    -0.277 A  
HETATM   33  C   UNL     1     -10.809  12.239  67.913  1.00  0.00    -0.218 C  
HETATM   34  S   UNL     1     -11.897  11.115  68.804  1.00  0.00    -0.263 SA 
HETATM   35  C   UNL     1     -10.670  10.083  69.588  1.00  0.00    -0.255 A  
HETATM   36  C   UNL     1     -11.164   9.574  70.813  1.00  0.00    -0.383 A  
HETATM   37  C   UNL     1     -10.337   8.964  71.742  1.00  0.00    -0.426 A  
HETATM   38  C   UNL     1      -8.980   8.915  71.485  1.00  0.00    -0.275 A  
HETATM   39  C   UNL     1      -8.483   9.363  70.247  1.00  0.00    -0.237 A  
HETATM   40  C   UNL     1      -9.326   9.862  69.215  1.00  0.00    -0.215 A  
ENDBRANCH  11  24
TORSDOF 6
ENDMDL
MODEL       92
REMARK 921   NORMALIZED FREE ENERGY PREDICTED BY IDOCK:   -1.89 KCAL/MOL
REMARK 922        TOTAL FREE ENERGY PREDICTED BY IDOCK:   -3.29 KCAL/MOL
REMARK 923 INTER-LIGAND FREE ENERGY PREDICTED BY IDOCK:   -5.03 KCAL/MOL
REMARK 924 INTRA-LIGAND FREE ENERGY PREDICTED BY IDOCK:    1.74 KCAL/MOL
REMARK 927      BINDING AFFINITY PREDICTED BY RF-SCORE:    0.00 PKD
ROOT
HETATM    1  C   UNL     1      -6.887   8.699  71.647  1.00  0.00    -0.085 C  
HETATM    2  C   UNL     1      -5.415   8.248  71.885  1.00  0.00    -0.036 C  
HETATM    3  O   UNL     1      -5.246   7.315  72.962  1.00  0.00    -0.037 OA 
HETATM    4  C   UNL     1      -6.136   6.214  72.796  1.00  0.00    -0.049 C  
HETATM    5  C   UNL     1      -7.574   6.671  73.000  1.00  0.00    -0.092 C  
HETATM    6  N   UNL     1      -7.899   7.943  72.353  1.00  0.00    -0.106 N  
HETATM    7  C   UNL     1      -9.202   8.435  72.420  1.00  0.00    -0.275 C  
HETATM    8  O   UNL     1     -10.001   8.009  73.250  1.00  0.00    -0.299 OA 
HETATM    9  C   UNL     1      -9.601   9.299  71.213  1.00  0.00    -0.202 C  
HETATM   10  C   UNL     1     -10.915   9.553  70.987  1.00  0.00    -0.353 C  
HETATM   11  N   UNL     1      -7.341   8.924  70.267  1.00  0.00    -0.060 NA 
HETATM   12  C   UNL     1     -11.262  10.289  69.714  1.00  0.00    -0.282 C  
HETATM   13  O   UNL     1     -12.417  10.488  69.350  1.00  0.00    -0.223 OA 
HETATM   14  N   UNL     1      -8.606   9.604  70.254  1.00  0.00    -0.214 NA 
HETATM   15  C   UNL     1     -10.161  10.797  68.875  1.00  0.00    -0.217 C  
HETATM   16  C   UNL     1      -8.920  10.428  69.195  1.00  0.00    -0.179 C  
ENDROOT
BRANCH  10  17
HETATM   17  O   UNL     1     -11.910   9.010  71.775  1.00  0.00    -0.325 OA 
BRANCH  17  18
HETATM   18  C   UNL     1     -13.175   8.785  71.161  1.00  0.00    -0.056 C  
BRANCH  18  19
HETATM   19  O   UNL     1     -13.723   7.550  71.622  1.00  0.00    -0.372 OA 
BRANCH  19  20
HETATM   20  C   UNL     1     -12.838   6.530  71.552  1.00  0.00     0.006 C  
HETATM   21  O   UNL     1     -12.105   6.268  70.608  1.00  0.00    -0.196 OA 
BRANCH  20  22
HETATM   22  O   UNL     1     -12.869   5.865  72.736  1.00  0.00     0.234 OA 
HETATM   23  C   UNL     1     -11.752   5.005  72.932  1.00  0.00    -0.115 C  
ENDBRANCH  20  22
ENDBRANCH  19  20
ENDBRANCH  18  19
ENDBRANCH  17  18
ENDBRANCH  10  17
BRANCH  11  24
HETATM   24  C   UNL     1      -7.077   7.913  69.145  1.00  0.00    -0.069 C  
HETATM   25  C   UNL     1      -7.884   6.564  69.176  1.00  0.00    -0.110 A  
HETATM   26  C   UNL     1      -8.740   6.208  70.231  1.00  0.00    -0.145 A  
HETATM   27  C   UNL     1      -9.526   5.055  70.322  1.00  0.00    -0.237 A  
HETATM   28  C   UNL     1      -9.447   4.140  69.315  1.00  0.00    -0.188 A  
HETATM   29  C   UNL     1      -8.570   4.375  68.275  1.00  0.00    -0.094 A  
HETATM   30  F   UNL     1     -10.225   3.051  69.344  1.00  0.00     0.192 F  
HETATM   31  F   UNL     1      -8.491   3.468  67.288  1.00  0.00    -0.091 F  
HETATM   32  C   UNL     1      -7.769   5.551  68.206  1.00  0.00    -0.085 A  
HETATM   33  C   UNL     1      -6.946   5.734  66.974  1.00  0.00    -0.065 C  
HETATM   34  S   UNL     1      -7.936   6.768  65.881  1.00  0.00    -0.119 SA 
HETATM   35  C   UNL     1      -7.483   8.375  66.512  1.00  0.00    -0.081 A  
HETATM   36  C   UNL     1      -7.559   9.347  65.486  1.00  0.00    -0.099 A  
HETATM   37  C   UNL     1      -7.018  10.613  65.631  1.00  0.00    -0.078 A  
HETATM   38  C   UNL     1      -6.326  10.905  66.792  1.00  0.00    -0.097 A  
HETATM   39  C   UNL     1      -6.294   9.971  67.844  1.00  0.00    -0.058 A  
HETATM   40  C   UNL     1      -6.964   8.717  67.780  1.00  0.00    -0.075 A  
ENDBRANCH  11  24
TORSDOF 6
ENDMDL
MODEL       93
REMARK 921   NORMALIZED FREE ENERGY PREDICTED BY IDOCK:   -1.79 KCAL/MOL
REMARK 922        TOTAL FREE ENERGY PREDICTED BY IDOCK:   -3.16 KCAL/MOL
REMARK 923 INTER-LIGAND FREE ENERGY PREDICTED BY IDOCK:   -3.41 KCAL/MOL
REMARK 924 INTRA-LIGAND FREE ENERGY PREDICTED BY IDOCK:    0.25 KCAL/MOL
REMARK 927      BINDING AFFINITY PREDICTED BY RF-SCORE:    0.00 PKD
ROOT
HETATM    1  C   UNL     1     -11.038   9.448  68.852  1.00  0.00     0.033 C  
HETATM    2  C   UNL     1     -11.786  10.233  69.970  1.00  0.00    -0.228 C  
HETATM    3  O   UNL     1     -12.590   9.417  70.833  1.00  0.00    -0.249 OA 
HETATM    4  C   UNL     1     -11.812   8.340  71.349  1.00  0.00    -0.293 C  
HETATM    5  C   UNL     1     -11.465   7.366  70.230  1.00  0.00    -0.181 C  
HETATM    6  N   UNL     1     -11.044   8.006  68.984  1.00  0.00     0.135 N  
HETATM    7  C   UNL     1     -10.644   7.217  67.906  1.00  0.00    -0.202 C  
HETATM    8  O   UNL     1     -10.924   6.022  67.854  1.00  0.00    -0.302 OA 
HETATM    9  C   UNL     1      -9.611   7.894  66.991  1.00  0.00    -0.192 C  
HETATM   10  C   UNL     1      -8.898   7.133  66.123  1.00  0.00    -0.150 C  
HETATM   11  N   UNL     1      -9.687   9.883  68.468  1.00  0.00    -0.151 NA 
HETATM   12  C   UNL     1      -7.802   7.824  65.347  1.00  0.00    -0.114 C  
HETATM   13  O   UNL     1      -7.024   7.225  64.608  1.00  0.00    -0.049 OA 
HETATM   14  N   UNL     1      -9.276   9.245  67.249  1.00  0.00    -0.126 NA 
HETATM   15  C   UNL     1      -7.663   9.286  65.478  1.00  0.00    -0.095 C  
HETATM   16  C   UNL     1      -8.401   9.895  66.407  1.00  0.00    -0.125 C  
ENDROOT
BRANCH  10  17
HETATM   17  O   UNL     1      -9.030   5.759  66.075  1.00  0.00    -0.147 OA 
BRANCH  17  18
HETATM   18  C   UNL     1      -9.908   5.224  65.091  1.00  0.00     0.348 C  
BRANCH  18  19
HETATM   19  O   UNL     1      -9.669   3.826  64.939  1.00  0.00    -0.164 OA 
BRANCH  19  20
HETATM   20  C   UNL     1      -8.356   3.535  64.797  1.00  0.00    -0.093 C  
HETATM   21  O   UNL     1      -7.649   2.957  65.611  1.00  0.00    -0.072 OA 
BRANCH  20  22
HETATM   22  O   UNL     1      -7.963   3.956  63.567  1.00  0.00    -0.084 OA 
HETATM   23  C   UNL     1      -6.600   3.666  63.278  1.00  0.00    -0.030 C  
ENDBRANCH  20  22
ENDBRANCH  19  20
ENDBRANCH  18  19
ENDBRANCH  17  18
ENDBRANCH  10  17
BRANCH  11  24
HETATM   24  C   UNL     1      -8.598  10.178  69.506  1.00  0.00    -0.164 C  
HETATM   25  C   UNL     1      -7.872   8.951  70.169  1.00  0.00    -0.097 A  
HETATM   26  C   UNL     1      -8.250   7.619  69.933  1.00  0.00    -0.130 A  
HETATM   27  C   UNL     1      -7.637   6.470  70.442  1.00  0.00    -0.096 A  
HETATM   28  C   UNL     1      -6.583   6.624  71.291  1.00  0.00    -0.050 A  
HETATM   29  C   UNL     1      -6.194   7.903  71.638  1.00  0.00    -0.036 A  
HETATM   30  F   UNL     1      -5.940   5.546  71.755  1.00  0.00    -0.024 F  
HETATM   31  F   UNL     1      -5.159   8.050  72.480  1.00  0.00    -0.035 F  
HETATM   32  C   UNL     1      -6.839   9.062  71.118  1.00  0.00    -0.092 A  
HETATM   33  C   UNL     1      -6.250  10.383  71.486  1.00  0.00     0.574 C  
HETATM   34  S   UNL     1      -5.148  10.816  70.130  1.00  0.00    -0.050 SA 
HETATM   35  C   UNL     1      -6.330  11.568  69.024  1.00  0.00    -0.069 A  
HETATM   36  C   UNL     1      -5.701  12.554  68.227  1.00  0.00    -0.063 A  
HETATM   37  C   UNL     1      -6.426  13.464  67.475  1.00  0.00    -0.129 A  
HETATM   38  C   UNL     1      -7.805  13.443  67.566  1.00  0.00    -0.181 A  
HETATM   39  C   UNL     1      -8.446  12.431  68.306  1.00  0.00    -0.170 A  
HETATM   40  C   UNL     1      -7.731  11.396  68.971  1.00  0.00    -0.064 A  
ENDBRANCH  11  24
TORSDOF 6
ENDMDL
MODEL       94
REMARK 921   NORMALIZED FREE ENERGY PREDICTED BY IDOCK:   -1.73 KCAL/MOL
REMARK 922        TOTAL FREE ENERGY PREDICTED BY IDOCK:   -3.07 KCAL/MOL
REMARK 923 INTER-LIGAND FREE ENERGY PREDICTED BY IDOCK:   -5.22 KCAL/MOL
REMARK 924 INTRA-LIGAND FREE ENERGY PREDICTED BY IDOCK:    2.15 KCAL/MOL
REMARK 927      BINDING AFFINITY PREDICTED BY RF-SCORE:    0.00 PKD
ROOT
HETATM    1  C   UNL     1      -9.072   9.272  68.407  1.00  0.00    -0.128 C  
HETATM    2  C   UNL     1      -9.598   9.342  69.872  1.00  0.00    -0.199 C  
HETATM    3  O   UNL     1      -8.613   9.045  70.872  1.00  0.00    -0.183 OA 
HETATM    4  C   UNL     1      -7.454   9.849  70.668  1.00  0.00     0.075 C  
HETATM    5  C   UNL     1      -6.743   9.421  69.391  1.00  0.00    -0.048 C  
HETATM    6  N   UNL     1      -7.636   9.173  68.259  1.00  0.00    -0.083 N  
HETATM    7  C   UNL     1      -7.096   8.834  67.019  1.00  0.00    -0.078 C  
HETATM    8  O   UNL     1      -5.939   8.435  66.916  1.00  0.00    -0.050 OA 
HETATM    9  C   UNL     1      -7.956   9.278  65.825  1.00  0.00    -0.109 C  
HETATM   10  C   UNL     1      -7.401   9.316  64.587  1.00  0.00    -0.101 C  
HETATM   11  N   UNL     1      -9.584  10.240  67.427  1.00  0.00    -0.156 NA 
HETATM   12  C   UNL     1      -8.246   9.890  63.474  1.00  0.00    -0.163 C  
HETATM   13  O   UNL     1      -7.821  10.070  62.337  1.00  0.00    -0.116 OA 
HETATM   14  N   UNL     1      -9.222   9.851  66.093  1.00  0.00    -0.160 NA 
HETATM   15  C   UNL     1      -9.647  10.244  63.768  1.00  0.00    -0.344 C  
HETATM   16  C   UNL     1     -10.041  10.201  65.041  1.00  0.00    -0.235 C  
ENDROOT
BRANCH  10  17
HETATM   17  O   UNL     1      -6.068   9.023  64.375  1.00  0.00    -0.069 OA 
BRANCH  17  18
HETATM   18  C   UNL     1      -5.769   7.795  63.721  1.00  0.00    -0.049 C  
BRANCH  18  19
HETATM   19  O   UNL     1      -6.931   6.967  63.692  1.00  0.00    -0.051 OA 
BRANCH  19  20
HETATM   20  C   UNL     1      -6.728   5.765  64.278  1.00  0.00    -0.045 C  
HETATM   21  O   UNL     1      -6.059   4.844  63.831  1.00  0.00    -0.021 OA 
BRANCH  20  22
HETATM   22  O   UNL     1      -7.364   5.769  65.478  1.00  0.00    -0.072 OA 
HETATM   23  C   UNL     1      -8.781   5.832  65.369  1.00  0.00    -0.119 C  
ENDBRANCH  20  22
ENDBRANCH  19  20
ENDBRANCH  18  19
ENDBRANCH  17  18
ENDBRANCH  10  17
BRANCH  11  24
HETATM   24  C   UNL     1      -9.655  11.743  67.724  1.00  0.00    -0.184 C  
HETATM   25  C   UNL     1     -10.691  12.223  68.805  1.00  0.00    -0.247 A  
HETATM   26  C   UNL     1     -11.614  11.360  69.418  1.00  0.00    -0.391 A  
HETATM   27  C   UNL     1     -12.538  11.689  70.414  1.00  0.00    -0.213 A  
HETATM   28  C   UNL     1     -12.603  12.985  70.830  1.00  0.00    -0.280 A  
HETATM   29  C   UNL     1     -11.783  13.916  70.225  1.00  0.00    -0.223 A  
HETATM   30  F   UNL     1     -13.438  13.325  71.820  1.00  0.00    -0.438 F  
HETATM   31  F   UNL     1     -11.854  15.193  70.633  1.00  0.00    -0.271 F  
HETATM   32  C   UNL     1     -10.855  13.563  69.202  1.00  0.00    -0.173 A  
HETATM   33  C   UNL     1      -9.952  14.644  68.709  1.00  0.00    -0.235 C  
HETATM   34  S   UNL     1      -8.432  14.474  69.659  1.00  0.00     0.554 SA 
HETATM   35  C   UNL     1      -7.610  13.235  68.673  1.00  0.00    -0.094 A  
HETATM   36  C   UNL     1      -6.205  13.381  68.769  1.00  0.00    -0.090 A  
HETATM   37  C   UNL     1      -5.338  12.725  67.910  1.00  0.00    -0.106 A  
HETATM   38  C   UNL     1      -5.872  11.961  66.891  1.00  0.00    -0.118 A  
HETATM   39  C   UNL     1      -7.263  11.758  66.819  1.00  0.00    -0.050 A  
HETATM   40  C   UNL     1      -8.169  12.301  67.773  1.00  0.00    -0.161 A  
ENDBRANCH  11  24
TORSDOF 6
ENDMDL
MODEL       95
REMARK 921   NORMALIZED FREE ENERGY PREDICTED BY IDOCK:   -1.57 KCAL/MOL
REMARK 922        TOTAL FREE ENERGY PREDICTED BY IDOCK:   -2.86 KCAL/MOL
REMARK 923 INTER-LIGAND FREE ENERGY PREDICTED BY IDOCK:   -3.02 KCAL/MOL
REMARK 924 INTRA-LIGAND FREE ENERGY PREDICTED BY IDOCK:    0.16 KCAL/MOL
REMARK 927      BINDING AFFINITY PREDICTED BY RF-SCORE:    0.00 PKD
ROOT
HETATM    1  C   UNL     1      -9.761  13.275  67.181  1.00  0.00    -0.236 C  
HETATM    2  C   UNL     1      -8.960  12.620  66.017  1.00  0.00     0.215 C  
HETATM    3  O   UNL     1      -9.708  12.441  64.807  1.00  0.00    -0.120 OA 
HETATM    4  C   UNL     1     -10.317  13.672  64.425  1.00  0.00    -0.216 C  
HETATM    5  C   UNL     1     -11.411  14.041  65.418  1.00  0.00    -0.315 C  
HETATM    6  N   UNL     1     -11.044  13.842  66.820  1.00  0.00    -0.304 N  
HETATM    7  C   UNL     1     -11.942  14.201  67.824  1.00  0.00    -0.354 C  
HETATM    8  O   UNL     1     -13.132  14.382  67.578  1.00  0.00     1.217 OA 
HETATM    9  C   UNL     1     -11.267  14.620  69.140  1.00  0.00    -0.270 C  
HETATM   10  C   UNL     1     -11.988  15.303  70.065  1.00  0.00    -0.343 C  
HETATM   11  N   UNL     1      -9.065  14.210  68.077  1.00  0.00    -0.183 NA 
HETATM   12  C   UNL     1     -11.243  15.811  71.276  1.00  0.00    -0.314 C  
HETATM   13  O   UNL     1     -11.761  16.526  72.130  1.00  0.00    -0.491 OA 
HETATM   14  N   UNL     1      -9.862  14.485  69.240  1.00  0.00    -0.082 NA 
HETATM   15  C   UNL     1      -9.830  15.426  71.444  1.00  0.00     2.042 C  
HETATM   16  C   UNL     1      -9.238  14.794  70.429  1.00  0.00     1.298 C  
ENDROOT
BRANCH  10  17
HETATM   17  O   UNL     1     -13.296  15.684  69.837  1.00  0.00     0.135 OA 
BRANCH  17  18
HETATM   18  C   UNL     1     -14.258  15.329  70.824  1.00  0.00     0.175 C  
BRANCH  18  19
HETATM   19  O   UNL     1     -14.222  13.920  71.050  1.00  0.00     0.135 OA 
BRANCH  19  20
HETATM   20  C   UNL     1     -13.857  13.605  72.313  1.00  0.00    -0.590 C  
HETATM   21  O   UNL     1     -13.827  14.365  73.270  1.00  0.00    -0.316 OA 
BRANCH  20  22
HETATM   22  O   UNL     1     -13.571  12.278  72.349  1.00  0.00    -0.431 OA 
HETATM   23  C   UNL     1     -12.784  11.838  71.248  1.00  0.00    -0.316 C  
ENDBRANCH  20  22
ENDBRANCH  19  20
ENDBRANCH  18  19
ENDBRANCH  17  18
ENDBRANCH  10  17
BRANCH  11  24
HETATM   24  C   UNL     1      -8.184  15.347  67.547  1.00  0.00    -0.169 C  
HETATM   25  C   UNL     1      -8.906  16.618  66.966  1.00  0.00    -0.220 A  
HETATM   26  C   UNL     1     -10.300  16.704  66.814  1.00  0.00    -0.295 A  
HETATM   27  C   UNL     1     -11.027  17.804  66.349  1.00  0.00     0.260 A  
HETATM   28  C   UNL     1     -10.338  18.912  65.956  1.00  0.00    -0.429 A  
HETATM   29  C   UNL     1      -8.959  18.884  65.999  1.00  0.00    -0.011 A  
HETATM   30  F   UNL     1     -11.005  20.002  65.556  1.00  0.00    -0.539 F  
HETATM   31  F   UNL     1      -8.284  19.976  65.605  1.00  0.00    -0.346 F  
HETATM   32  C   UNL     1      -8.234  17.748  66.466  1.00  0.00    -0.300 A  
HETATM   33  C   UNL     1      -6.752  17.889  66.565  1.00  0.00    -0.217 C  
HETATM   34  S   UNL     1      -6.424  18.360  68.271  1.00  0.00    -0.208 SA 
HETATM   35  C   UNL     1      -6.396  16.741  69.020  1.00  0.00    -0.187 A  
HETATM   36  C   UNL     1      -5.540  16.734  70.148  1.00  0.00    -0.218 A  
HETATM   37  C   UNL     1      -5.133  15.557  70.754  1.00  0.00    -0.154 A  
HETATM   38  C   UNL     1      -5.526  14.357  70.194  1.00  0.00    -0.106 A  
HETATM   39  C   UNL     1      -6.424  14.347  69.110  1.00  0.00    -0.107 A  
HETATM   40  C   UNL     1      -6.973  15.538  68.557  1.00  0.00    -0.114 A  
ENDBRANCH  11  24
TORSDOF 6
ENDMDL
MODEL       96
REMARK 921   NORMALIZED FREE ENERGY PREDICTED BY IDOCK:   -1.55 KCAL/MOL
REMARK 922        TOTAL FREE ENERGY PREDICTED BY IDOCK:   -2.83 KCAL/MOL
REMARK 923 INTER-LIGAND FREE ENERGY PREDICTED BY IDOCK:   -3.24 KCAL/MOL
REMARK 924 INTRA-LIGAND FREE ENERGY PREDICTED BY IDOCK:    0.40 KCAL/MOL
REMARK 927      BINDING AFFINITY PREDICTED BY RF-SCORE:    0.00 PKD
ROOT
HETATM    1  C   UNL     1      -6.148   7.452  71.033  1.00  0.00    -0.035 C  
HETATM    2  C   UNL     1      -5.310   7.089  72.295  1.00  0.00    -0.037 C  
HETATM    3  O   UNL     1      -5.128   8.171  73.220  1.00  0.00    -0.040 OA 
HETATM    4  C   UNL     1      -6.390   8.748  73.548  1.00  0.00    -0.007 C  
HETATM    5  C   UNL     1      -6.965   9.466  72.334  1.00  0.00     0.779 C  
HETATM    6  N   UNL     1      -6.834   8.726  71.079  1.00  0.00    -0.066 N  
HETATM    7  C   UNL     1      -7.377   9.256  69.909  1.00  0.00    -0.074 C  
HETATM    8  O   UNL     1      -7.681  10.443  69.829  1.00  0.00    -0.158 OA 
HETATM    9  C   UNL     1      -7.815   8.191  68.891  1.00  0.00    -0.112 C  
HETATM   10  C   UNL     1      -8.651   8.544  67.882  1.00  0.00    -0.134 C  
HETATM   11  N   UNL     1      -7.060   6.442  70.477  1.00  0.00    -0.064 NA 
HETATM   12  C   UNL     1      -9.160   7.435  66.992  1.00  0.00    -0.135 C  
HETATM   13  O   UNL     1      -9.997   7.613  66.112  1.00  0.00    -0.035 OA 
HETATM   14  N   UNL     1      -7.520   6.836  69.175  1.00  0.00    -0.093 NA 
HETATM   15  C   UNL     1      -8.621   6.076  67.188  1.00  0.00    -0.106 C  
HETATM   16  C   UNL     1      -7.845   5.867  68.251  1.00  0.00    -0.105 C  
ENDROOT
BRANCH  10  17
HETATM   17  O   UNL     1      -9.167   9.821  67.774  1.00  0.00    -0.131 OA 
BRANCH  17  18
HETATM   18  C   UNL     1      -8.815  10.569  66.615  1.00  0.00    -0.136 C  
BRANCH  18  19
HETATM   19  O   UNL     1      -7.473  11.040  66.733  1.00  0.00    -0.125 OA 
BRANCH  19  20
HETATM   20  C   UNL     1      -7.345  12.021  67.654  1.00  0.00    -0.121 C  
HETATM   21  O   UNL     1      -8.192  12.852  67.952  1.00  0.00    -0.140 OA 
BRANCH  20  22
HETATM   22  O   UNL     1      -6.121  11.899  68.231  1.00  0.00    -0.049 OA 
HETATM   23  C   UNL     1      -5.235  12.963  67.908  1.00  0.00    -0.107 C  
ENDBRANCH  20  22
ENDBRANCH  19  20
ENDBRANCH  18  19
ENDBRANCH  17  18
ENDBRANCH  10  17
BRANCH  11  24
HETATM   24  C   UNL     1      -8.037   5.653  71.356  1.00  0.00    -0.118 C  
HETATM   25  C   UNL     1      -9.527   6.150  71.417  1.00  0.00    -0.170 A  
HETATM   26  C   UNL     1      -9.966   7.332  70.798  1.00  0.00    -0.187 A  
HETATM   27  C   UNL     1     -11.273   7.827  70.763  1.00  0.00    -0.281 A  
HETATM   28  C   UNL     1     -12.242   7.133  71.425  1.00  0.00    -0.362 A  
HETATM   29  C   UNL     1     -11.883   6.000  72.126  1.00  0.00    -0.247 A  
HETATM   30  F   UNL     1     -13.513   7.549  71.369  1.00  0.00    -0.372 F  
HETATM   31  F   UNL     1     -12.840   5.323  72.781  1.00  0.00    -0.182 F  
HETATM   32  C   UNL     1     -10.542   5.517  72.159  1.00  0.00    -0.280 A  
HETATM   33  C   UNL     1     -10.310   4.222  72.862  1.00  0.00    -0.175 C  
HETATM   34  S   UNL     1     -10.361   2.960  71.579  1.00  0.00     0.636 SA 
HETATM   35  C   UNL     1      -8.669   3.045  71.018  1.00  0.00    -0.075 A  
HETATM   36  C   UNL     1      -8.249   1.787  70.523  1.00  0.00    -0.057 A  
HETATM   37  C   UNL     1      -6.917   1.505  70.269  1.00  0.00    -0.033 A  
HETATM   38  C   UNL     1      -5.970   2.464  70.575  1.00  0.00    -0.018 A  
HETATM   39  C   UNL     1      -6.376   3.739  71.011  1.00  0.00    -0.019 A  
HETATM   40  C   UNL     1      -7.744   4.106  71.143  1.00  0.00    -0.066 A  
ENDBRANCH  11  24
TORSDOF 6
ENDMDL
MODEL       97
REMARK 921   NORMALIZED FREE ENERGY PREDICTED BY IDOCK:   -1.54 KCAL/MOL
REMARK 922        TOTAL FREE ENERGY PREDICTED BY IDOCK:   -2.82 KCAL/MOL
REMARK 923 INTER-LIGAND FREE ENERGY PREDICTED BY IDOCK:   -5.26 KCAL/MOL
REMARK 924 INTRA-LIGAND FREE ENERGY PREDICTED BY IDOCK:    2.44 KCAL/MOL
REMARK 927      BINDING AFFINITY PREDICTED BY RF-SCORE:    0.00 PKD
ROOT
HETATM    1  C   UNL     1     -10.591   8.650  68.513  1.00  0.00    -0.119 C  
HETATM    2  C   UNL     1     -10.989  10.090  68.953  1.00  0.00    -0.207 C  
HETATM    3  O   UNL     1     -11.493  10.185  70.292  1.00  0.00    -0.265 OA 
HETATM    4  C   UNL     1     -10.584   9.569  71.200  1.00  0.00    -0.318 C  
HETATM    5  C   UNL     1     -10.568   8.062  70.977  1.00  0.00    -0.213 C  
HETATM    6  N   UNL     1     -10.539   7.662  69.570  1.00  0.00    -0.231 N  
HETATM    7  C   UNL     1     -10.462   6.309  69.241  1.00  0.00    -0.244 C  
HETATM    8  O   UNL     1     -10.729   5.438  70.065  1.00  0.00    -0.308 OA 
HETATM    9  C   UNL     1      -9.752   6.035  67.906  1.00  0.00    -0.119 C  
HETATM   10  C   UNL     1      -9.315   4.779  67.635  1.00  0.00    -0.138 C  
HETATM   11  N   UNL     1      -9.419   8.477  67.644  1.00  0.00    -0.143 NA 
HETATM   12  C   UNL     1      -8.505   4.592  66.374  1.00  0.00    -0.112 C  
HETATM   13  O   UNL     1      -7.970   3.528  66.074  1.00  0.00    -0.091 OA 
HETATM   14  N   UNL     1      -9.375   7.144  67.111  1.00  0.00    -0.135 NA 
HETATM   15  C   UNL     1      -8.354   5.739  65.461  1.00  0.00    -0.140 C  
HETATM   16  C   UNL     1      -8.794   6.926  65.881  1.00  0.00    -0.105 C  
ENDROOT
BRANCH  10  17
HETATM   17  O   UNL     1      -9.437   3.750  68.548  1.00  0.00    -0.161 OA 
BRANCH  17  18
HETATM   18  C   UNL     1      -8.266   3.378  69.268  1.00  0.00    -0.059 C  
BRANCH  18  19
HETATM   19  O   UNL     1      -8.508   2.173  69.995  1.00  0.00    -0.044 OA 
BRANCH  19  20
HETATM   20  C   UNL     1      -7.748   2.077  71.109  1.00  0.00    -0.036 C  
HETATM   21  O   UNL     1      -6.529   1.982  71.150  1.00  0.00    -0.022 OA 
BRANCH  20  22
HETATM   22  O   UNL     1      -8.571   2.151  72.187  1.00  0.00    -0.063 OA 
HETATM   23  C   UNL     1      -9.918   1.796  71.896  1.00  0.00    -0.151 C  
ENDBRANCH  20  22
ENDBRANCH  19  20
ENDBRANCH  18  19
ENDBRANCH  17  18
ENDBRANCH  10  17
BRANCH  11  24
HETATM   24  C   UNL     1      -8.077   9.159  67.936  1.00  0.00    -0.105 C  
HETATM   25  C   UNL     1      -7.985  10.712  67.707  1.00  0.00    -0.110 A  
HETATM   26  C   UNL     1      -9.030  11.466  67.149  1.00  0.00    -0.162 A  
HETATM   27  C   UNL     1      -9.051  12.850  66.949  1.00  0.00    -0.224 A  
HETATM   28  C   UNL     1      -7.942  13.567  67.283  1.00  0.00    -0.112 A  
HETATM   29  C   UNL     1      -6.839  12.892  67.767  1.00  0.00    -0.138 A  
HETATM   30  F   UNL     1      -7.947  14.900  67.155  1.00  0.00    -0.189 F  
HETATM   31  F   UNL     1      -5.746  13.602  68.090  1.00  0.00    -0.079 F  
HETATM   32  C   UNL     1      -6.832  11.479  67.953  1.00  0.00    -0.073 A  
HETATM   33  C   UNL     1      -5.616  10.890  68.586  1.00  0.00    -0.040 C  
HETATM   34  S   UNL     1      -5.997  10.766  70.342  1.00  0.00    -0.120 SA 
HETATM   35  C   UNL     1      -6.850   9.199  70.346  1.00  0.00    -0.062 A  
HETATM   36  C   UNL     1      -6.680   8.548  71.591  1.00  0.00    -0.079 A  
HETATM   37  C   UNL     1      -7.013   7.216  71.775  1.00  0.00    -0.064 A  
HETATM   38  C   UNL     1      -7.461   6.492  70.687  1.00  0.00    -0.080 A  
HETATM   39  C   UNL     1      -7.692   7.140  69.458  1.00  0.00    -0.113 A  
HETATM   40  C   UNL     1      -7.497   8.538  69.278  1.00  0.00    -0.082 A  
ENDBRANCH  11  24
TORSDOF 6
ENDMDL
MODEL       98
REMARK 921   NORMALIZED FREE ENERGY PREDICTED BY IDOCK:   -1.40 KCAL/MOL
REMARK 922        TOTAL FREE ENERGY PREDICTED BY IDOCK:   -2.62 KCAL/MOL
REMARK 923 INTER-LIGAND FREE ENERGY PREDICTED BY IDOCK:   -2.10 KCAL/MOL
REMARK 924 INTRA-LIGAND FREE ENERGY PREDICTED BY IDOCK:   -0.52 KCAL/MOL
REMARK 927      BINDING AFFINITY PREDICTED BY RF-SCORE:    0.00 PKD
ROOT
HETATM    1  C   UNL     1     -11.897  11.811  67.208  1.00  0.00    -0.108 C  
HETATM    2  C   UNL     1     -11.828  13.240  66.594  1.00  0.00    -0.395 C  
HETATM    3  O   UNL     1     -12.221  14.292  67.488  1.00  0.00    -0.354 OA 
HETATM    4  C   UNL     1     -11.495  14.187  68.710  1.00  0.00    -0.299 C  
HETATM    5  C   UNL     1     -11.938  12.945  69.473  1.00  0.00    -0.285 C  
HETATM    6  N   UNL     1     -12.093  11.751  68.642  1.00  0.00    -0.223 N  
HETATM    7  C   UNL     1     -12.436  10.539  69.237  1.00  0.00     0.345 C  
HETATM    8  O   UNL     1     -12.913  10.498  70.369  1.00  0.00    -0.314 OA 
HETATM    9  C   UNL     1     -11.901   9.307  68.490  1.00  0.00     1.592 C  
HETATM   10  C   UNL     1     -11.870   8.109  69.127  1.00  0.00     1.561 C  
HETATM   11  N   UNL     1     -10.869  10.830  66.830  1.00  0.00    -0.230 NA 
HETATM   12  C   UNL     1     -11.209   6.962  68.399  1.00  0.00     0.016 C  
HETATM   13  O   UNL     1     -11.029   5.860  68.909  1.00  0.00    -0.314 OA 
HETATM   14  N   UNL     1     -11.248   9.511  67.252  1.00  0.00     0.185 NA 
HETATM   15  C   UNL     1     -10.765   7.176  67.009  1.00  0.00    -0.420 C  
HETATM   16  C   UNL     1     -10.814   8.420  66.530  1.00  0.00     0.638 C  
ENDROOT
BRANCH  10  17
HETATM   17  O   UNL     1     -12.250   7.973  70.448  1.00  0.00     0.110 OA 
BRANCH  17  18
HETATM   18  C   UNL     1     -11.212   7.898  71.419  1.00  0.00    -0.247 C  
BRANCH  18  19
HETATM   19  O   UNL     1     -11.153   6.580  71.963  1.00  0.00    -0.237 OA 
BRANCH  19  20
HETATM   20  C   UNL     1     -11.025   6.578  73.309  1.00  0.00    -0.195 C  
HETATM   21  O   UNL     1     -10.587   7.489  73.998  1.00  0.00    -0.211 OA 
BRANCH  20  22
HETATM   22  O   UNL     1     -11.510   5.399  73.776  1.00  0.00     0.021 OA 
HETATM   23  C   UNL     1     -10.740   4.271  73.379  1.00  0.00    -0.231 C  
ENDBRANCH  20  22
ENDBRANCH  19  20
ENDBRANCH  18  19
ENDBRANCH  17  18
ENDBRANCH  10  17
BRANCH  11  24
HETATM   24  C   UNL     1      -9.374  11.168  66.843  1.00  0.00    -0.175 C  
HETATM   25  C   UNL     1      -8.540  10.733  68.102  1.00  0.00    -0.129 A  
HETATM   26  C   UNL     1      -9.121  10.157  69.244  1.00  0.00    -0.208 A  
HETATM   27  C   UNL     1      -8.455   9.703  70.387  1.00  0.00    -0.187 A  
HETATM   28  C   UNL     1      -7.103   9.857  70.448  1.00  0.00    -0.139 A  
HETATM   29  C   UNL     1      -6.460  10.486  69.401  1.00  0.00    -0.062 A  
HETATM   30  F   UNL     1      -6.427   9.386  71.504  1.00  0.00    -0.082 F  
HETATM   31  F   UNL     1      -5.128  10.640  69.468  1.00  0.00    -0.039 F  
HETATM   32  C   UNL     1      -7.157  10.952  68.249  1.00  0.00    -0.075 A  
HETATM   33  C   UNL     1      -6.329  11.513  67.142  1.00  0.00    -0.124 C  
HETATM   34  S   UNL     1      -6.066  10.149  65.996  1.00  0.00    -0.092 SA 
HETATM   35  C   UNL     1      -7.566  10.277  65.039  1.00  0.00    -0.124 A  
HETATM   36  C   UNL     1      -7.351   9.813  63.720  1.00  0.00    -0.129 A  
HETATM   37  C   UNL     1      -8.264  10.040  62.703  1.00  0.00    -0.152 A  
HETATM   38  C   UNL     1      -9.384  10.801  62.980  1.00  0.00    -0.344 A  
HETATM   39  C   UNL     1      -9.641  11.218  64.300  1.00  0.00    -0.257 A  
HETATM   40  C   UNL     1      -8.796  10.877  65.392  1.00  0.00    -0.192 A  
ENDBRANCH  11  24
TORSDOF 6
ENDMDL
MODEL       99
REMARK 921   NORMALIZED FREE ENERGY PREDICTED BY IDOCK:   -1.35 KCAL/MOL
REMARK 922        TOTAL FREE ENERGY PREDICTED BY IDOCK:   -2.56 KCAL/MOL
REMARK 923 INTER-LIGAND FREE ENERGY PREDICTED BY IDOCK:   -5.63 KCAL/MOL
REMARK 924 INTRA-LIGAND FREE ENERGY PREDICTED BY IDOCK:    3.07 KCAL/MOL
REMARK 927      BINDING AFFINITY PREDICTED BY RF-SCORE:    0.00 PKD
ROOT
HETATM    1  C   UNL     1      -6.762   8.957  66.942  1.00  0.00    -0.069 C  
HETATM    2  C   UNL     1      -5.936   7.701  67.349  1.00  0.00    -0.047 C  
HETATM    3  O   UNL     1      -5.367   7.763  68.664  1.00  0.00    -0.025 OA 
HETATM    4  C   UNL     1      -6.378   8.084  69.616  1.00  0.00    -0.033 C  
HETATM    5  C   UNL     1      -6.850   9.517  69.411  1.00  0.00    -0.049 C  
HETATM    6  N   UNL     1      -7.059   9.888  68.011  1.00  0.00    -0.081 N  
HETATM    7  C   UNL     1      -7.548  11.156  67.701  1.00  0.00    -0.105 C  
HETATM    8  O   UNL     1      -7.515  12.069  68.522  1.00  0.00    -0.107 OA 
HETATM    9  C   UNL     1      -8.366  11.204  66.400  1.00  0.00    -0.167 C  
HETATM   10  C   UNL     1      -9.168  12.273  66.163  1.00  0.00    -0.132 C  
HETATM   11  N   UNL     1      -7.972   8.772  66.126  1.00  0.00    -0.101 NA 
HETATM   12  C   UNL     1     -10.053  12.208  64.941  1.00  0.00    -0.254 C  
HETATM   13  O   UNL     1     -10.891  13.064  64.675  1.00  0.00    -0.315 OA 
HETATM   14  N   UNL     1      -8.432  10.031  65.611  1.00  0.00    -0.142 NA 
HETATM   15  C   UNL     1      -9.897  11.065  64.022  1.00  0.00    -0.365 C  
HETATM   16  C   UNL     1      -9.106  10.064  64.410  1.00  0.00    -0.247 C  
ENDROOT
BRANCH  10  17
HETATM   17  O   UNL     1      -9.316  13.294  67.081  1.00  0.00    -0.222 OA 
BRANCH  17  18
HETATM   18  C   UNL     1     -10.452  13.237  67.937  1.00  0.00    -0.240 C  
BRANCH  18  19
HETATM   19  O   UNL     1     -10.038  13.348  69.299  1.00  0.00     0.152 OA 
BRANCH  19  20
HETATM   20  C   UNL     1      -9.888  14.631  69.694  1.00  0.00     0.185 C  
HETATM   21  O   UNL     1      -8.846  15.271  69.705  1.00  0.00    -0.191 OA 
BRANCH  20  22
HETATM   22  O   UNL     1     -11.111  15.110  70.039  1.00  0.00    -0.249 OA 
HETATM   23  C   UNL     1     -11.648  16.027  69.094  1.00  0.00    -0.336 C  
ENDBRANCH  20  22
ENDBRANCH  19  20
ENDBRANCH  18  19
ENDBRANCH  17  18
ENDBRANCH  10  17
BRANCH  11  24
HETATM   24  C   UNL     1      -9.035   7.723  66.469  1.00  0.00    -0.161 C  
HETATM   25  C   UNL     1      -8.644   6.209  66.308  1.00  0.00    -0.136 A  
HETATM   26  C   UNL     1      -7.417   5.789  65.767  1.00  0.00    -0.077 A  
HETATM   27  C   UNL     1      -6.969   4.472  65.627  1.00  0.00    -0.062 A  
HETATM   28  C   UNL     1      -7.802   3.464  66.009  1.00  0.00    -0.082 A  
HETATM   29  C   UNL     1      -9.059   3.786  66.481  1.00  0.00    -0.155 A  
HETATM   30  F   UNL     1      -7.385   2.194  65.938  1.00  0.00    -0.059 F  
HETATM   31  F   UNL     1      -9.878   2.789  66.851  1.00  0.00    -0.047 F  
HETATM   32  C   UNL     1      -9.502   5.135  66.606  1.00  0.00    -0.147 A  
HETATM   33  C   UNL     1     -10.840   5.348  67.232  1.00  0.00     0.041 C  
HETATM   34  S   UNL     1     -10.513   5.664  68.974  1.00  0.00    -0.240 SA 
HETATM   35  C   UNL     1     -10.186   7.416  68.897  1.00  0.00    -0.196 A  
HETATM   36  C   UNL     1     -10.547   8.040  70.115  1.00  0.00    -0.237 A  
HETATM   37  C   UNL     1     -10.642   9.416  70.237  1.00  0.00    -0.297 A  
HETATM   38  C   UNL     1     -10.442  10.193  69.111  1.00  0.00    -0.242 A  
HETATM   39  C   UNL     1     -10.024   9.592  67.908  1.00  0.00    -0.201 A  
HETATM   40  C   UNL     1      -9.778   8.196  67.792  1.00  0.00    -0.193 A  
ENDBRANCH  11  24
TORSDOF 6
ENDMDL
MODEL      100
REMARK 921   NORMALIZED FREE ENERGY PREDICTED BY IDOCK:   -1.25 KCAL/MOL
REMARK 922        TOTAL FREE ENERGY PREDICTED BY IDOCK:   -2.43 KCAL/MOL
REMARK 923 INTER-LIGAND FREE ENERGY PREDICTED BY IDOCK:   -1.92 KCAL/MOL
REMARK 924 INTRA-LIGAND FREE ENERGY PREDICTED BY IDOCK:   -0.51 KCAL/MOL
REMARK 927      BINDING AFFINITY PREDICTED BY RF-SCORE:    0.00 PKD
ROOT
HETATM    1  C   UNL     1      -9.401  17.185  68.203  1.00  0.00    -0.264 C  
HETATM    2  C   UNL     1     -10.633  18.063  67.830  1.00  0.00    -0.372 C  
HETATM    3  O   UNL     1     -10.720  18.405  66.440  1.00  0.00    -0.334 OA 
HETATM    4  C   UNL     1     -10.625  17.227  65.642  1.00  0.00    -0.166 C  
HETATM    5  C   UNL     1      -9.220  16.648  65.735  1.00  0.00     0.003 C  
HETATM    6  N   UNL     1      -8.665  16.628  67.088  1.00  0.00    -0.190 N  
HETATM    7  C   UNL     1      -7.408  16.065  67.308  1.00  0.00    -0.208 C  
HETATM    8  O   UNL     1      -6.627  15.871  66.380  1.00  0.00     0.123 OA 
HETATM    9  C   UNL     1      -7.234  15.464  68.712  1.00  0.00    -0.128 C  
HETATM   10  C   UNL     1      -6.210  14.604  68.941  1.00  0.00    -0.087 C  
HETATM   11  N   UNL     1      -9.559  16.148  69.233  1.00  0.00    -0.246 NA 
HETATM   12  C   UNL     1      -6.165  13.937  70.295  1.00  0.00    -0.110 C  
HETATM   13  O   UNL     1      -5.349  13.067  70.586  1.00  0.00    -0.121 OA 
HETATM   14  N   UNL     1      -8.279  15.647  69.649  1.00  0.00    -0.160 NA 
HETATM   15  C   UNL     1      -7.143  14.355  71.316  1.00  0.00     1.724 C  
HETATM   16  C   UNL     1      -8.124  15.174  70.933  1.00  0.00     2.256 C  
ENDROOT
BRANCH  10  17
HETATM   17  O   UNL     1      -5.351  14.205  67.935  1.00  0.00    -0.171 OA 
BRANCH  17  18
HETATM   18  C   UNL     1      -5.140  12.806  67.778  1.00  0.00    -0.103 C  
BRANCH  18  19
HETATM   19  O   UNL     1      -5.798  12.348  66.597  1.00  0.00    -0.199 OA 
BRANCH  19  20
HETATM   20  C   UNL     1      -5.868  11.000  66.531  1.00  0.00    -0.124 C  
HETATM   21  O   UNL     1      -5.477  10.210  67.379  1.00  0.00    -0.041 OA 
BRANCH  20  22
HETATM   22  O   UNL     1      -6.493  10.667  65.372  1.00  0.00    -0.109 OA 
HETATM   23  C   UNL     1      -5.596  10.325  64.322  1.00  0.00    -0.139 C  
ENDBRANCH  20  22
ENDBRANCH  19  20
ENDBRANCH  18  19
ENDBRANCH  17  18
ENDBRANCH  10  17
BRANCH  11  24
HETATM   24  C   UNL     1     -10.729  15.158  69.221  1.00  0.00    -0.250 C  
HETATM   25  C   UNL     1     -10.501  13.768  68.521  1.00  0.00    -0.248 A  
HETATM   26  C   UNL     1      -9.325  13.448  67.823  1.00  0.00    -0.211 A  
HETATM   27  C   UNL     1      -9.019  12.228  67.210  1.00  0.00    -0.187 A  
HETATM   28  C   UNL     1      -9.955  11.239  67.241  1.00  0.00    -0.183 A  
HETATM   29  C   UNL     1     -11.172  11.497  67.840  1.00  0.00    -0.279 A  
HETATM   30  F   UNL     1      -9.676  10.042  66.710  1.00  0.00    -0.190 F  
HETATM   31  F   UNL     1     -12.093  10.521  67.863  1.00  0.00    -0.097 F  
HETATM   32  C   UNL     1     -11.469  12.750  68.450  1.00  0.00    -0.349 A  
HETATM   33  C   UNL     1     -12.778  12.860  69.159  1.00  0.00     0.882 C  
HETATM   34  S   UNL     1     -12.423  12.502  70.887  1.00  0.00    -0.152 SA 
HETATM   35  C   UNL     1     -11.911  14.125  71.423  1.00  0.00    -0.125 A  
HETATM   36  C   UNL     1     -12.207  14.308  72.795  1.00  0.00    -0.014 A  
HETATM   37  C   UNL     1     -12.155  15.554  73.399  1.00  0.00    -0.609 A  
HETATM   38  C   UNL     1     -11.871  16.655  72.614  1.00  0.00    -0.292 A  
HETATM   39  C   UNL     1     -11.516  16.482  71.262  1.00  0.00    -0.108 A  
HETATM   40  C   UNL     1     -11.420  15.201  70.651  1.00  0.00    -0.345 A  
ENDBRANCH  11  24
TORSDOF 6
ENDMDL
MODEL      101
REMARK 921   NORMALIZED FREE ENERGY PREDICTED BY IDOCK:   -1.12 KCAL/MOL
REMARK 922        TOTAL FREE ENERGY PREDICTED BY IDOCK:   -2.25 KCAL/MOL
REMARK 923 INTER-LIGAND FREE ENERGY PREDICTED BY IDOCK:   -4.72 KCAL/MOL
REMARK 924 INTRA-LIGAND FREE ENERGY PREDICTED BY IDOCK:    2.46 KCAL/MOL
REMARK 927      BINDING AFFINITY PREDICTED BY RF-SCORE:    0.00 PKD
ROOT
HETATM    1  C   UNL     1      -7.856   8.474  66.203  1.00  0.00    -0.098 C  
HETATM    2  C   UNL     1      -7.397   7.095  65.642  1.00  0.00    -0.079 C  
HETATM    3  O   UNL     1      -6.003   7.021  65.313  1.00  0.00    -0.035 OA 
HETATM    4  C   UNL     1      -5.218   7.448  66.424  1.00  0.00    -0.024 C  
HETATM    5  C   UNL     1      -5.407   8.942  66.651  1.00  0.00    -0.039 C  
HETATM    6  N   UNL     1      -6.795   9.395  66.555  1.00  0.00    -0.082 N  
HETATM    7  C   UNL     1      -7.102  10.732  66.803  1.00  0.00    -0.127 C  
HETATM    8  O   UNL     1      -6.229  11.597  66.791  1.00  0.00    -0.143 OA 
HETATM    9  C   UNL     1      -8.516  10.951  67.362  1.00  0.00    -0.120 C  
HETATM   10  C   UNL     1      -8.817  12.134  67.954  1.00  0.00    -0.177 C  
HETATM   11  N   UNL     1      -8.876   8.501  67.261  1.00  0.00    -0.129 NA 
HETATM   12  C   UNL     1     -10.174  12.248  68.608  1.00  0.00    -0.165 C  
HETATM   13  O   UNL     1     -10.523  13.228  69.261  1.00  0.00     0.000 OA 
HETATM   14  N   UNL     1      -9.380   9.833  67.447  1.00  0.00    -0.133 NA 
HETATM   15  C   UNL     1     -11.125  11.132  68.449  1.00  0.00    -0.303 C  
HETATM   16  C   UNL     1     -10.674  10.012  67.885  1.00  0.00    -0.272 C  
ENDROOT
BRANCH  10  17
HETATM   17  O   UNL     1      -7.874  13.128  68.123  1.00  0.00    -0.124 OA 
BRANCH  17  18
HETATM   18  C   UNL     1      -8.094  14.356  67.438  1.00  0.00    -0.199 C  
BRANCH  18  19
HETATM   19  O   UNL     1      -6.975  15.223  67.626  1.00  0.00    -0.152 OA 
BRANCH  19  20
HETATM   20  C   UNL     1      -7.033  16.324  66.843  1.00  0.00    -0.191 C  
HETATM   21  O   UNL     1      -8.031  16.985  66.592  1.00  0.00    -0.213 OA 
BRANCH  20  22
HETATM   22  O   UNL     1      -5.774  16.600  66.414  1.00  0.00    -0.302 OA 
HETATM   23  C   UNL     1      -5.725  17.616  65.419  1.00  0.00     0.230 C  
ENDBRANCH  20  22
ENDBRANCH  19  20
ENDBRANCH  18  19
ENDBRANCH  17  18
ENDBRANCH  10  17
BRANCH  11  24
HETATM   24  C   UNL     1      -8.789   7.606  68.503  1.00  0.00    -0.130 C  
HETATM   25  C   UNL     1      -9.031   6.064  68.308  1.00  0.00    -0.113 A  
HETATM   26  C   UNL     1      -9.426   5.501  67.084  1.00  0.00    -0.122 A  
HETATM   27  C   UNL     1      -9.621   4.143  66.809  1.00  0.00    -0.229 A  
HETATM   28  C   UNL     1      -9.457   3.250  67.825  1.00  0.00    -0.164 A  
HETATM   29  C   UNL     1      -9.144   3.727  69.082  1.00  0.00    -0.137 A  
HETATM   30  F   UNL     1      -9.584   1.939  67.585  1.00  0.00    -0.197 F  
HETATM   31  F   UNL     1      -8.989   2.844  70.081  1.00  0.00    -0.115 F  
HETATM   32  C   UNL     1      -8.960   5.116  69.345  1.00  0.00    -0.127 A  
HETATM   33  C   UNL     1      -8.516   5.488  70.720  1.00  0.00    -0.122 C  
HETATM   34  S   UNL     1      -6.723   5.627  70.628  1.00  0.00    -0.049 SA 
HETATM   35  C   UNL     1      -6.591   7.309  70.050  1.00  0.00    -0.046 A  
HETATM   36  C   UNL     1      -5.385   7.894  70.505  1.00  0.00    -0.023 A  
HETATM   37  C   UNL     1      -5.152   9.257  70.424  1.00  0.00    -0.027 A  
HETATM   38  C   UNL     1      -6.160  10.070  69.943  1.00  0.00    -0.052 A  
HETATM   39  C   UNL     1      -7.341   9.499  69.431  1.00  0.00    -0.084 A  
HETATM   40  C   UNL     1      -7.549   8.092  69.368  1.00  0.00    -0.101 A  
ENDBRANCH  11  24
TORSDOF 6
ENDMDL
MODEL      102
REMARK 921   NORMALIZED FREE ENERGY PREDICTED BY IDOCK:   -1.07 KCAL/MOL
REMARK 922        TOTAL FREE ENERGY PREDICTED BY IDOCK:   -2.18 KCAL/MOL
REMARK 923 INTER-LIGAND FREE ENERGY PREDICTED BY IDOCK:   -3.23 KCAL/MOL
REMARK 924 INTRA-LIGAND FREE ENERGY PREDICTED BY IDOCK:    1.04 KCAL/MOL
REMARK 927      BINDING AFFINITY PREDICTED BY RF-SCORE:    0.00 PKD
ROOT
HETATM    1  C   UNL     1      -7.045  13.849  69.140  1.00  0.00    -0.069 C  
HETATM    2  C   UNL     1      -6.848  15.334  69.565  1.00  0.00    -0.180 C  
HETATM    3  O   UNL     1      -5.674  15.956  69.024  1.00  0.00    -0.107 OA 
HETATM    4  C   UNL     1      -5.640  15.783  67.609  1.00  0.00    -0.115 C  
HETATM    5  C   UNL     1      -5.402  14.318  67.270  1.00  0.00     0.649 C  
HETATM    6  N   UNL     1      -6.183  13.379  68.076  1.00  0.00    -0.117 N  
HETATM    7  C   UNL     1      -6.096  12.012  67.817  1.00  0.00    -0.081 C  
HETATM    8  O   UNL     1      -5.168  11.548  67.159  1.00  0.00    -0.059 OA 
HETATM    9  C   UNL     1      -7.374  11.232  68.161  1.00  0.00    -0.088 C  
HETATM   10  C   UNL     1      -7.545   9.984  67.654  1.00  0.00    -0.091 C  
HETATM   11  N   UNL     1      -8.410  13.360  68.894  1.00  0.00     0.109 NA 
HETATM   12  C   UNL     1      -8.875   9.317  67.909  1.00  0.00    -0.124 C  
HETATM   13  O   UNL     1      -9.186   8.235  67.419  1.00  0.00    -0.138 OA 
HETATM   14  N   UNL     1      -8.427  11.928  68.801  1.00  0.00    -0.032 NA 
HETATM   15  C   UNL     1      -9.842   9.994  68.792  1.00  0.00    -0.173 C  
HETATM   16  C   UNL     1      -9.560  11.239  69.178  1.00  0.00     0.060 C  
ENDROOT
BRANCH  10  17
HETATM   17  O   UNL     1      -6.630   9.415  66.789  1.00  0.00    -0.066 OA 
BRANCH  17  18
HETATM   18  C   UNL     1      -7.121   8.445  65.871  1.00  0.00    -0.072 C  
BRANCH  18  19
HETATM   19  O   UNL     1      -7.645   9.095  64.714  1.00  0.00    -0.103 OA 
BRANCH  19  20
HETATM   20  C   UNL     1      -7.841   8.243  63.683  1.00  0.00    -0.152 C  
HETATM   21  O   UNL     1      -8.363   8.511  62.609  1.00  0.00    -0.186 OA 
BRANCH  20  22
HETATM   22  O   UNL     1      -7.317   7.038  64.027  1.00  0.00    -0.070 OA 
HETATM   23  C   UNL     1      -7.238   6.123  62.941  1.00  0.00    -0.054 C  
ENDBRANCH  20  22
ENDBRANCH  19  20
ENDBRANCH  18  19
ENDBRANCH  17  18
ENDBRANCH  10  17
BRANCH  11  24
HETATM   24  C   UNL     1      -9.408  14.132  68.023  1.00  0.00    -0.203 C  
HETATM   25  C   UNL     1      -9.837  13.482  66.657  1.00  0.00    -0.279 A  
HETATM   26  C   UNL     1      -9.267  12.297  66.161  1.00  0.00    -0.132 A  
HETATM   27  C   UNL     1      -9.615  11.628  64.983  1.00  0.00    -0.187 A  
HETATM   28  C   UNL     1     -10.577  12.177  64.190  1.00  0.00    -0.365 A  
HETATM   29  C   UNL     1     -11.135  13.383  64.565  1.00  0.00    -0.380 A  
HETATM   30  F   UNL     1     -10.972  11.536  63.083  1.00  0.00    -0.395 F  
HETATM   31  F   UNL     1     -12.079  13.923  63.777  1.00  0.00    -0.479 F  
HETATM   32  C   UNL     1     -10.759  14.056  65.763  1.00  0.00    -0.294 A  
HETATM   33  C   UNL     1     -11.518  15.294  66.106  1.00  0.00    -0.083 C  
HETATM   34  S   UNL     1     -12.824  14.767  67.228  1.00  0.00     2.065 SA 
HETATM   35  C   UNL     1     -11.920  14.805  68.766  1.00  0.00    -0.257 A  
HETATM   36  C   UNL     1     -12.793  15.085  69.844  1.00  0.00    -0.036 A  
HETATM   37  C   UNL     1     -12.322  15.427  71.101  1.00  0.00    -0.444 A  
HETATM   38  C   UNL     1     -10.958  15.561  71.280  1.00  0.00    -0.229 A  
HETATM   39  C   UNL     1     -10.076  15.228  70.235  1.00  0.00    -0.020 A  
HETATM   40  C   UNL     1     -10.525  14.735  68.978  1.00  0.00    -0.249 A  
ENDBRANCH  11  24
TORSDOF 6
ENDMDL
MODEL      103
REMARK 921   NORMALIZED FREE ENERGY PREDICTED BY IDOCK:   -0.89 KCAL/MOL
REMARK 922        TOTAL FREE ENERGY PREDICTED BY IDOCK:   -1.93 KCAL/MOL
REMARK 923 INTER-LIGAND FREE ENERGY PREDICTED BY IDOCK:   -4.76 KCAL/MOL
REMARK 924 INTRA-LIGAND FREE ENERGY PREDICTED BY IDOCK:    2.82 KCAL/MOL
REMARK 927      BINDING AFFINITY PREDICTED BY RF-SCORE:    0.00 PKD
ROOT
HETATM    1  C   UNL     1      -9.615   7.026  69.029  1.00  0.00    -0.141 C  
HETATM    2  C   UNL     1      -9.733   8.331  69.871  1.00  0.00    -0.180 C  
HETATM    3  O   UNL     1      -8.710   8.492  70.864  1.00  0.00    -0.139 OA 
HETATM    4  C   UNL     1      -7.425   8.341  70.267  1.00  0.00    -0.066 C  
HETATM    5  C   UNL     1      -7.218   6.895  69.837  1.00  0.00    -0.076 C  
HETATM    6  N   UNL     1      -8.376   6.292  69.176  1.00  0.00    -0.119 N  
HETATM    7  C   UNL     1      -8.286   4.991  68.683  1.00  0.00    -0.085 C  
HETATM    8  O   UNL     1      -7.393   4.231  69.052  1.00  0.00    -0.054 OA 
HETATM    9  C   UNL     1      -9.189   4.724  67.469  1.00  0.00    -0.127 C  
HETATM   10  C   UNL     1      -8.955   3.632  66.697  1.00  0.00    -0.141 C  
HETATM   11  N   UNL     1      -9.972   7.072  67.603  1.00  0.00    -0.145 NA 
HETATM   12  C   UNL     1      -9.781   3.490  65.441  1.00  0.00    -0.093 C  
HETATM   13  O   UNL     1      -9.593   2.603  64.613  1.00  0.00    -0.151 OA 
HETATM   14  N   UNL     1     -10.082   5.745  67.066  1.00  0.00    -0.166 NA 
HETATM   15  C   UNL     1     -10.867   4.459  65.202  1.00  0.00    -0.100 C  
HETATM   16  C   UNL     1     -10.948   5.510  66.020  1.00  0.00     0.245 C  
ENDROOT
BRANCH  10  17
HETATM   17  O   UNL     1      -7.891   2.784  66.936  1.00  0.00    -0.074 OA 
BRANCH  17  18
HETATM   18  C   UNL     1      -7.232   2.233  65.801  1.00  0.00    -0.065 C  
BRANCH  18  19
HETATM   19  O   UNL     1      -6.533   3.262  65.100  1.00  0.00    -0.033 OA 
BRANCH  19  20
HETATM   20  C   UNL     1      -6.083   2.855  63.892  1.00  0.00    -0.018 C  
HETATM   21  O   UNL     1      -5.958   1.698  63.516  1.00  0.00    -0.008 OA 
BRANCH  20  22
HETATM   22  O   UNL     1      -5.832   3.960  63.144  1.00  0.00    -0.013 OA 
HETATM   23  C   UNL     1      -6.918   4.879  63.107  1.00  0.00    -0.038 C  
ENDBRANCH  20  22
ENDBRANCH  19  20
ENDBRANCH  18  19
ENDBRANCH  17  18
ENDBRANCH  10  17
BRANCH  11  24
HETATM   24  C   UNL     1      -9.450   8.167  66.666  1.00  0.00    -0.213 C  
HETATM   25  C   UNL     1      -9.973   9.632  66.896  1.00  0.00    -0.272 A  
HETATM   26  C   UNL     1     -10.965   9.952  67.837  1.00  0.00    -0.281 A  
HETATM   27  C   UNL     1     -11.458  11.225  68.137  1.00  0.00    -0.376 A  
HETATM   28  C   UNL     1     -10.973  12.286  67.433  1.00  0.00    -0.253 A  
HETATM   29  C   UNL     1     -10.050  12.051  66.433  1.00  0.00    -0.218 A  
HETATM   30  F   UNL     1     -11.384  13.525  67.730  1.00  0.00    -0.269 F  
HETATM   31  F   UNL     1      -9.580  13.099  65.738  1.00  0.00    -0.257 F  
HETATM   32  C   UNL     1      -9.568  10.744  66.134  1.00  0.00    -0.236 A  
HETATM   33  C   UNL     1      -8.491  10.642  65.107  1.00  0.00    -0.144 C  
HETATM   34  S   UNL     1      -6.944  10.620  66.028  1.00  0.00    -0.105 SA 
HETATM   35  C   UNL     1      -6.854   8.878  66.404  1.00  0.00    -0.075 A  
HETATM   36  C   UNL     1      -5.504   8.467  66.518  1.00  0.00    -0.032 A  
HETATM   37  C   UNL     1      -5.142   7.130  66.546  1.00  0.00    -0.022 A  
HETATM   38  C   UNL     1      -6.131   6.177  66.390  1.00  0.00    -0.032 A  
HETATM   39  C   UNL     1      -7.482   6.567  66.336  1.00  0.00    -0.085 A  
HETATM   40  C   UNL     1      -7.895   7.924  66.450  1.00  0.00    -0.097 A  
ENDBRANCH  11  24
TORSDOF 6
ENDMDL
MODEL      104
REMARK 921   NORMALIZED FREE ENERGY PREDICTED BY IDOCK:   -0.84 KCAL/MOL
REMARK 922        TOTAL FREE ENERGY PREDICTED BY IDOCK:   -1.88 KCAL/MOL
REMARK 923 INTER-LIGAND FREE ENERGY PREDICTED BY IDOCK:   -3.64 KCAL/MOL
REMARK 924 INTRA-LIGAND FREE ENERGY PREDICTED BY IDOCK:    1.77 KCAL/MOL
REMARK 927      BINDING AFFINITY PREDICTED BY RF-SCORE:    0.00 PKD
ROOT
HETATM    1  C   UNL     1      -6.268   7.531  71.693  1.00  0.00    -0.036 C  
HETATM    2  C   UNL     1      -5.126   6.844  72.499  1.00  0.00    -0.036 C  
HETATM    3  O   UNL     1      -5.353   6.779  73.914  1.00  0.00    -0.044 OA 
HETATM    4  C   UNL     1      -6.630   6.204  74.176  1.00  0.00    -0.075 C  
HETATM    5  C   UNL     1      -7.731   7.155  73.726  1.00  0.00    -0.105 C  
HETATM    6  N   UNL     1      -7.493   7.777  72.423  1.00  0.00    -0.079 N  
HETATM    7  C   UNL     1      -8.460   8.621  71.878  1.00  0.00    -0.143 C  
HETATM    8  O   UNL     1      -9.349   9.104  72.574  1.00  0.00    -0.086 OA 
HETATM    9  C   UNL     1      -8.473   8.638  70.341  1.00  0.00    -0.140 C  
HETATM   10  C   UNL     1      -9.556   9.137  69.694  1.00  0.00    -0.176 C  
HETATM   11  N   UNL     1      -6.607   7.006  70.362  1.00  0.00    -0.050 NA 
HETATM   12  C   UNL     1      -9.578   9.004  68.190  1.00  0.00    -0.148 C  
HETATM   13  O   UNL     1     -10.544   9.325  67.503  1.00  0.00    -0.268 OA 
HETATM   14  N   UNL     1      -7.461   7.922  69.658  1.00  0.00    -0.090 NA 
HETATM   15  C   UNL     1      -8.381   8.470  67.515  1.00  0.00    -0.128 C  
HETATM   16  C   UNL     1      -7.411   7.971  68.282  1.00  0.00    -0.100 C  
ENDROOT
BRANCH  10  17
HETATM   17  O   UNL     1     -10.674   9.579  70.374  1.00  0.00    -0.239 OA 
BRANCH  17  18
HETATM   18  C   UNL     1     -11.904   8.914  70.105  1.00  0.00     0.238 C  
BRANCH  18  19
HETATM   19  O   UNL     1     -11.866   7.592  70.640  1.00  0.00    -0.267 OA 
BRANCH  19  20
HETATM   20  C   UNL     1     -12.617   7.460  71.756  1.00  0.00    -0.335 C  
HETATM   21  O   UNL     1     -12.395   6.711  72.696  1.00  0.00     0.065 OA 
BRANCH  20  22
HETATM   22  O   UNL     1     -13.647   8.341  71.675  1.00  0.00    -0.347 OA 
HETATM   23  C   UNL     1     -14.152   8.741  72.944  1.00  0.00     0.063 C  
ENDBRANCH  20  22
ENDBRANCH  19  20
ENDBRANCH  18  19
ENDBRANCH  17  18
ENDBRANCH  10  17
BRANCH  11  24
HETATM   24  C   UNL     1      -6.820   5.510  70.104  1.00  0.00    -0.052 C  
HETATM   25  C   UNL     1      -8.063   4.825  70.781  1.00  0.00    -0.085 A  
HETATM   26  C   UNL     1      -8.907   5.491  71.685  1.00  0.00    -0.141 A  
HETATM   27  C   UNL     1     -10.053   4.976  72.299  1.00  0.00    -0.245 A  
HETATM   28  C   UNL     1     -10.393   3.681  72.045  1.00  0.00     0.003 A  
HETATM   29  C   UNL     1      -9.573   2.929  71.228  1.00  0.00    -0.158 A  
HETATM   30  F   UNL     1     -11.513   3.172  72.574  1.00  0.00     0.192 F  
HETATM   31  F   UNL     1      -9.910   1.652  70.985  1.00  0.00    -0.193 F  
HETATM   32  C   UNL     1      -8.402   3.469  70.620  1.00  0.00    -0.093 A  
HETATM   33  C   UNL     1      -7.667   2.582  69.671  1.00  0.00    -0.043 C  
HETATM   34  S   UNL     1      -8.286   3.007  68.035  1.00  0.00    -0.083 SA 
HETATM   35  C   UNL     1      -7.227   4.397  67.674  1.00  0.00    -0.068 A  
HETATM   36  C   UNL     1      -7.018   4.509  66.278  1.00  0.00    -0.063 A  
HETATM   37  C   UNL     1      -6.038   5.330  65.745  1.00  0.00    -0.033 A  
HETATM   38  C   UNL     1      -5.202   6.006  66.613  1.00  0.00    -0.009 A  
HETATM   39  C   UNL     1      -5.435   5.953  68.000  1.00  0.00    -0.004 A  
HETATM   40  C   UNL     1      -6.523   5.233  68.569  1.00  0.00    -0.040 A  
ENDBRANCH  11  24
TORSDOF 6
ENDMDL
MODEL      105
REMARK 921   NORMALIZED FREE ENERGY PREDICTED BY IDOCK:   -0.79 KCAL/MOL
REMARK 922        TOTAL FREE ENERGY PREDICTED BY IDOCK:   -1.80 KCAL/MOL
REMARK 923 INTER-LIGAND FREE ENERGY PREDICTED BY IDOCK:   -5.01 KCAL/MOL
REMARK 924 INTRA-LIGAND FREE ENERGY PREDICTED BY IDOCK:    3.21 KCAL/MOL
REMARK 927      BINDING AFFINITY PREDICTED BY RF-SCORE:    0.00 PKD
ROOT
HETATM    1  C   UNL     1      -7.898  11.536  68.631  1.00  0.00    -0.137 C  
HETATM    2  C   UNL     1      -7.062  12.820  68.351  1.00  0.00    -0.102 C  
HETATM    3  O   UNL     1      -6.033  12.657  67.365  1.00  0.00    -0.148 OA 
HETATM    4  C   UNL     1      -6.583  12.092  66.177  1.00  0.00     1.354 C  
HETATM    5  C   UNL     1      -7.004  10.651  66.432  1.00  0.00    -0.129 C  
HETATM    6  N   UNL     1      -7.705  10.444  67.700  1.00  0.00    -0.093 N  
HETATM    7  C   UNL     1      -8.193   9.178  68.017  1.00  0.00    -0.112 C  
HETATM    8  O   UNL     1      -7.791   8.176  67.430  1.00  0.00    -0.103 OA 
HETATM    9  C   UNL     1      -9.439   9.200  68.916  1.00  0.00    -0.151 C  
HETATM   10  C   UNL     1     -10.200   8.081  69.020  1.00  0.00    -0.210 C  
HETATM   11  N   UNL     1      -9.336  11.676  68.905  1.00  0.00    -0.033 NA 
HETATM   12  C   UNL     1     -11.486   8.197  69.804  1.00  0.00     0.260 C  
HETATM   13  O   UNL     1     -12.305   7.286  69.884  1.00  0.00     0.342 OA 
HETATM   14  N   UNL     1      -9.876  10.449  69.418  1.00  0.00    -0.225 NA 
HETATM   15  C   UNL     1     -11.765   9.460  70.511  1.00  0.00    -0.254 C  
HETATM   16  C   UNL     1     -10.952  10.491  70.277  1.00  0.00    -0.235 C  
ENDROOT
BRANCH  10  17
HETATM   17  O   UNL     1      -9.922   6.938  68.295  1.00  0.00    -0.145 OA 
BRANCH  17  18
HETATM   18  C   UNL     1     -11.005   6.332  67.598  1.00  0.00    -0.342 C  
BRANCH  18  19
HETATM   19  O   UNL     1     -10.507   5.349  66.691  1.00  0.00    -0.247 OA 
BRANCH  19  20
HETATM   20  C   UNL     1      -9.711   4.439  67.296  1.00  0.00    -0.184 C  
HETATM   21  O   UNL     1      -9.945   3.852  68.343  1.00  0.00    -0.025 OA 
BRANCH  20  22
HETATM   22  O   UNL     1      -8.615   4.253  66.515  1.00  0.00    -0.111 OA 
HETATM   23  C   UNL     1      -8.780   3.228  65.543  1.00  0.00    -0.123 C  
ENDBRANCH  20  22
ENDBRANCH  19  20
ENDBRANCH  18  19
ENDBRANCH  17  18
ENDBRANCH  10  17
BRANCH  11  24
HETATM   24  C   UNL     1     -10.255  12.533  68.026  1.00  0.00    -0.225 C  
HETATM   25  C   UNL     1     -10.228  14.090  68.246  1.00  0.00    -0.249 A  
HETATM   26  C   UNL     1      -9.492  14.705  69.272  1.00  0.00    -0.001 A  
HETATM   27  C   UNL     1      -9.377  16.078  69.514  1.00  0.00    -0.146 A  
HETATM   28  C   UNL     1     -10.070  16.934  68.713  1.00  0.00    -0.295 A  
HETATM   29  C   UNL     1     -10.881  16.409  67.727  1.00  0.00    -0.306 A  
HETATM   30  F   UNL     1      -9.941  18.256  68.883  1.00  0.00    -0.341 F  
HETATM   31  F   UNL     1     -11.568  17.256  66.944  1.00  0.00     0.417 F  
HETATM   32  C   UNL     1     -10.995  15.006  67.503  1.00  0.00    -0.307 A  
HETATM   33  C   UNL     1     -11.819  14.575  66.335  1.00  0.00    -0.349 C  
HETATM   34  S   UNL     1     -10.654  14.342  64.982  1.00  0.00    -0.438 SA 
HETATM   35  C   UNL     1     -10.136  12.670  65.328  1.00  0.00    -0.253 A  
HETATM   36  C   UNL     1      -9.768  12.009  64.132  1.00  0.00    -0.123 A  
HETATM   37  C   UNL     1      -9.579  10.639  64.077  1.00  0.00    -0.351 A  
HETATM   38  C   UNL     1      -9.823   9.894  65.215  1.00  0.00    -0.373 A  
HETATM   39  C   UNL     1     -10.130  10.541  66.427  1.00  0.00    -0.285 A  
HETATM   40  C   UNL     1     -10.190  11.958  66.547  1.00  0.00    -0.232 A  
ENDBRANCH  11  24
TORSDOF 6
ENDMDL
MODEL      106
REMARK 921   NORMALIZED FREE ENERGY PREDICTED BY IDOCK:   -0.67 KCAL/MOL
REMARK 922        TOTAL FREE ENERGY PREDICTED BY IDOCK:   -1.64 KCAL/MOL
REMARK 923 INTER-LIGAND FREE ENERGY PREDICTED BY IDOCK:   -3.07 KCAL/MOL
REMARK 924 INTRA-LIGAND FREE ENERGY PREDICTED BY IDOCK:    1.43 KCAL/MOL
REMARK 927      BINDING AFFINITY PREDICTED BY RF-SCORE:    0.00 PKD
ROOT
HETATM    1  C   UNL     1     -12.081  13.213  69.083  1.00  0.00    -0.214 C  
HETATM    2  C   UNL     1     -12.082  13.084  70.635  1.00  0.00    -0.248 C  
HETATM    3  O   UNL     1     -12.158  11.737  71.120  1.00  0.00    -0.207 OA 
HETATM    4  C   UNL     1     -11.147  10.941  70.506  1.00  0.00     0.146 C  
HETATM    5  C   UNL     1     -11.455  10.759  69.026  1.00  0.00    -0.298 C  
HETATM    6  N   UNL     1     -11.900  11.978  68.349  1.00  0.00    -0.329 N  
HETATM    7  C   UNL     1     -12.154  11.950  66.979  1.00  0.00     0.304 C  
HETATM    8  O   UNL     1     -12.320  10.888  66.384  1.00  0.00     1.739 OA 
HETATM    9  C   UNL     1     -11.915  13.296  66.275  1.00  0.00    -0.417 C  
HETATM   10  C   UNL     1     -11.796  13.324  64.924  1.00  0.00    -0.362 C  
HETATM   11  N   UNL     1     -11.254  14.259  68.462  1.00  0.00    -0.253 NA 
HETATM   12  C   UNL     1     -11.425  14.646  64.295  1.00  0.00    -0.161 C  
HETATM   13  O   UNL     1     -11.191  14.775  63.097  1.00  0.00     1.818 OA 
HETATM   14  N   UNL     1     -11.595  14.418  67.076  1.00  0.00    -0.369 NA 
HETATM   15  C   UNL     1     -11.347  15.837  65.161  1.00  0.00    -0.155 C  
HETATM   16  C   UNL     1     -11.437  15.649  66.478  1.00  0.00     0.165 C  
ENDROOT
BRANCH  10  17
HETATM   17  O   UNL     1     -11.827  12.171  64.163  1.00  0.00    -0.373 OA 
BRANCH  17  18
HETATM   18  C   UNL     1     -11.226  12.227  62.874  1.00  0.00     0.387 C  
BRANCH  18  19
HETATM   19  O   UNL     1      -9.858  11.829  62.960  1.00  0.00    -0.398 OA 
BRANCH  19  20
HETATM   20  C   UNL     1      -9.710  10.576  63.445  1.00  0.00    -0.316 C  
HETATM   21  O   UNL     1     -10.018  10.190  64.564  1.00  0.00    -0.326 OA 
BRANCH  20  22
HETATM   22  O   UNL     1      -9.198   9.800  62.455  1.00  0.00    -0.287 OA 
HETATM   23  C   UNL     1      -7.946   9.212  62.786  1.00  0.00    -0.136 C  
ENDBRANCH  20  22
ENDBRANCH  19  20
ENDBRANCH  18  19
ENDBRANCH  17  18
ENDBRANCH  10  17
BRANCH  11  24
HETATM   24  C   UNL     1      -9.789  14.480  68.853  1.00  0.00    -0.191 C  
HETATM   25  C   UNL     1      -8.730  13.442  68.331  1.00  0.00    -0.134 A  
HETATM   26  C   UNL     1      -9.082  12.279  67.625  1.00  0.00    -0.184 A  
HETATM   27  C   UNL     1      -8.210  11.327  67.088  1.00  0.00    -0.149 A  
HETATM   28  C   UNL     1      -6.872  11.494  67.286  1.00  0.00    -0.118 A  
HETATM   29  C   UNL     1      -6.444  12.571  68.037  1.00  0.00    -0.087 A  
HETATM   30  F   UNL     1      -6.006  10.631  66.742  1.00  0.00    -0.051 F  
HETATM   31  F   UNL     1      -5.125  12.728  68.235  1.00  0.00    -0.053 F  
HETATM   32  C   UNL     1      -7.349  13.525  68.586  1.00  0.00    -0.112 A  
HETATM   33  C   UNL     1      -6.748  14.700  69.283  1.00  0.00    -0.134 C  
HETATM   34  S   UNL     1      -6.671  16.007  68.047  1.00  0.00    -0.138 SA 
HETATM   35  C   UNL     1      -8.324  16.660  68.210  1.00  0.00    -0.198 A  
HETATM   36  C   UNL     1      -8.344  18.037  67.884  1.00  0.00    -0.249 A  
HETATM   37  C   UNL     1      -9.431  18.845  68.173  1.00  0.00    -0.377 A  
HETATM   38  C   UNL     1     -10.497  18.295  68.861  1.00  0.00    -0.041 A  
HETATM   39  C   UNL     1     -10.517  16.915  69.139  1.00  0.00    -0.335 A  
HETATM   40  C   UNL     1      -9.480  16.033  68.726  1.00  0.00    -0.227 A  
ENDBRANCH  11  24
TORSDOF 6
ENDMDL
MODEL      107
REMARK 921   NORMALIZED FREE ENERGY PREDICTED BY IDOCK:   -0.67 KCAL/MOL
REMARK 922        TOTAL FREE ENERGY PREDICTED BY IDOCK:   -1.64 KCAL/MOL
REMARK 923 INTER-LIGAND FREE ENERGY PREDICTED BY IDOCK:   -1.21 KCAL/MOL
REMARK 924 INTRA-LIGAND FREE ENERGY PREDICTED BY IDOCK:   -0.43 KCAL/MOL
REMARK 927      BINDING AFFINITY PREDICTED BY RF-SCORE:    0.00 PKD
ROOT
HETATM    1  C   UNL     1     -10.957   6.416  68.591  1.00  0.00    -0.330 C  
HETATM    2  C   UNL     1     -10.307   5.132  67.994  1.00  0.00    -0.076 C  
HETATM    3  O   UNL     1      -9.997   5.217  66.596  1.00  0.00    -0.165 OA 
HETATM    4  C   UNL     1      -9.229   6.389  66.338  1.00  0.00    -0.155 C  
HETATM    5  C   UNL     1     -10.088   7.630  66.544  1.00  0.00    -0.135 C  
HETATM    6  N   UNL     1     -10.928   7.588  67.742  1.00  0.00    -0.062 N  
HETATM    7  C   UNL     1     -11.714   8.692  68.069  1.00  0.00     2.243 C  
HETATM    8  O   UNL     1     -11.965   9.563  67.239  1.00  0.00     1.973 OA 
HETATM    9  C   UNL     1     -11.964   8.850  69.577  1.00  0.00     1.101 C  
HETATM   10  C   UNL     1     -12.413  10.040  70.052  1.00  0.00     0.139 C  
HETATM   11  N   UNL     1     -10.603   6.815  69.961  1.00  0.00    -0.210 NA 
HETATM   12  C   UNL     1     -12.510  10.186  71.552  1.00  0.00    -0.427 C  
HETATM   13  O   UNL     1     -12.805  11.243  72.104  1.00  0.00    -0.292 OA 
HETATM   14  N   UNL     1     -11.498   7.830  70.440  1.00  0.00    -0.213 NA 
HETATM   15  C   UNL     1     -12.244   9.004  72.391  1.00  0.00    -0.322 C  
HETATM   16  C   UNL     1     -11.763   7.915  71.790  1.00  0.00    -0.287 C  
ENDROOT
BRANCH  10  17
HETATM   17  O   UNL     1     -12.597  11.133  69.228  1.00  0.00    -0.336 OA 
BRANCH  17  18
HETATM   18  C   UNL     1     -11.491  12.012  69.057  1.00  0.00    -0.300 C  
BRANCH  18  19
HETATM   19  O   UNL     1     -11.588  12.672  67.795  1.00  0.00    -0.306 OA 
BRANCH  19  20
HETATM   20  C   UNL     1     -10.564  13.526  67.575  1.00  0.00    -0.244 C  
HETATM   21  O   UNL     1      -9.373  13.282  67.707  1.00  0.00    -0.193 OA 
BRANCH  20  22
HETATM   22  O   UNL     1     -11.084  14.701  67.134  1.00  0.00    -0.307 OA 
HETATM   23  C   UNL     1     -10.276  15.349  66.160  1.00  0.00    -0.308 C  
ENDBRANCH  20  22
ENDBRANCH  19  20
ENDBRANCH  18  19
ENDBRANCH  17  18
ENDBRANCH  10  17
BRANCH  11  24
HETATM   24  C   UNL     1      -9.149   6.877  70.443  1.00  0.00    -0.156 C  
HETATM   25  C   UNL     1      -8.375   8.232  70.252  1.00  0.00    -0.123 A  
HETATM   26  C   UNL     1      -8.918   9.333  69.569  1.00  0.00    -0.154 A  
HETATM   27  C   UNL     1      -8.322  10.585  69.389  1.00  0.00    -0.117 A  
HETATM   28  C   UNL     1      -7.067  10.779  69.882  1.00  0.00    -0.093 A  
HETATM   29  C   UNL     1      -6.429   9.722  70.501  1.00  0.00    -0.108 A  
HETATM   30  F   UNL     1      -6.487  11.981  69.774  1.00  0.00    -0.116 F  
HETATM   31  F   UNL     1      -5.189   9.916  70.980  1.00  0.00    -0.036 F  
HETATM   32  C   UNL     1      -7.048   8.449  70.665  1.00  0.00    -0.044 A  
HETATM   33  C   UNL     1      -6.292   7.429  71.448  1.00  0.00    -0.036 C  
HETATM   34  S   UNL     1      -6.913   7.556  73.133  1.00  0.00    -0.072 SA 
HETATM   35  C   UNL     1      -8.345   6.500  72.997  1.00  0.00    -0.118 A  
HETATM   36  C   UNL     1      -8.631   5.894  74.244  1.00  0.00    -0.115 A  
HETATM   37  C   UNL     1      -9.520   4.838  74.361  1.00  0.00    -0.139 A  
HETATM   38  C   UNL     1     -10.088   4.325  73.211  1.00  0.00    -0.199 A  
HETATM   39  C   UNL     1      -9.860   4.954  71.973  1.00  0.00    -0.232 A  
HETATM   40  C   UNL     1      -9.067   6.128  71.842  1.00  0.00    -0.140 A  
ENDBRANCH  11  24
TORSDOF 6
ENDMDL
MODEL      108
REMARK 921   NORMALIZED FREE ENERGY PREDICTED BY IDOCK:   -0.37 KCAL/MOL
REMARK 922        TOTAL FREE ENERGY PREDICTED BY IDOCK:   -1.24 KCAL/MOL
REMARK 923 INTER-LIGAND FREE ENERGY PREDICTED BY IDOCK:   -1.07 KCAL/MOL
REMARK 924 INTRA-LIGAND FREE ENERGY PREDICTED BY IDOCK:   -0.17 KCAL/MOL
REMARK 927      BINDING AFFINITY PREDICTED BY RF-SCORE:    0.00 PKD
ROOT
HETATM    1  C   UNL     1     -10.021   4.493  68.884  1.00  0.00    -0.061 C  
HETATM    2  C   UNL     1      -9.316   3.343  68.107  1.00  0.00    -0.184 C  
HETATM    3  O   UNL     1      -9.645   3.277  66.712  1.00  0.00    -0.149 OA 
HETATM    4  C   UNL     1      -9.444   4.551  66.104  1.00  0.00    -0.173 C  
HETATM    5  C   UNL     1     -10.475   5.544  66.624  1.00  0.00    -0.294 C  
HETATM    6  N   UNL     1     -10.698   5.480  68.069  1.00  0.00    -0.146 N  
HETATM    7  C   UNL     1     -11.575   6.382  68.670  1.00  0.00     0.314 C  
HETATM    8  O   UNL     1     -12.394   7.012  68.005  1.00  0.00     2.536 OA 
HETATM    9  C   UNL     1     -11.223   6.711  70.129  1.00  0.00    -0.360 C  
HETATM   10  C   UNL     1     -11.776   7.804  70.713  1.00  0.00    -0.225 C  
HETATM   11  N   UNL     1      -9.278   5.186  69.947  1.00  0.00    -0.121 NA 
HETATM   12  C   UNL     1     -11.293   8.161  72.098  1.00  0.00    -0.336 C  
HETATM   13  O   UNL     1     -11.642   9.180  72.688  1.00  0.00     0.073 OA 
HETATM   14  N   UNL     1     -10.161   5.999  70.735  1.00  0.00    -0.190 NA 
HETATM   15  C   UNL     1     -10.363   7.238  72.776  1.00  0.00    -0.282 C  
HETATM   16  C   UNL     1      -9.864   6.229  72.061  1.00  0.00    -0.157 C  
ENDROOT
BRANCH  10  17
HETATM   17  O   UNL     1     -12.603   8.665  70.017  1.00  0.00     0.902 OA 
BRANCH  17  18
HETATM   18  C   UNL     1     -12.044   9.906  69.598  1.00  0.00     0.286 C  
BRANCH  18  19
HETATM   19  O   UNL     1     -12.704  10.982  70.262  1.00  0.00    -0.270 OA 
BRANCH  19  20
HETATM   20  C   UNL     1     -12.007  12.139  70.199  1.00  0.00    -0.314 C  
HETATM   21  O   UNL     1     -12.273  13.180  70.782  1.00  0.00    -0.361 OA 
BRANCH  20  22
HETATM   22  O   UNL     1     -10.924  11.933  69.404  1.00  0.00    -0.195 OA 
HETATM   23  C   UNL     1     -10.660  13.012  68.516  1.00  0.00    -0.258 C  
ENDBRANCH  20  22
ENDBRANCH  19  20
ENDBRANCH  18  19
ENDBRANCH  17  18
ENDBRANCH  10  17
BRANCH  11  24
HETATM   24  C   UNL     1      -7.848   5.698  69.742  1.00  0.00    -0.087 C  
HETATM   25  C   UNL     1      -7.665   7.058  68.975  1.00  0.00    -0.109 A  
HETATM   26  C   UNL     1      -8.732   7.753  68.384  1.00  0.00    -0.127 A  
HETATM   27  C   UNL     1      -8.669   8.984  67.722  1.00  0.00    -0.125 A  
HETATM   28  C   UNL     1      -7.451   9.580  67.586  1.00  0.00    -0.091 A  
HETATM   29  C   UNL     1      -6.336   8.926  68.071  1.00  0.00    -0.056 A  
HETATM   30  F   UNL     1      -7.361  10.783  67.005  1.00  0.00    -0.092 F  
HETATM   31  F   UNL     1      -5.137   9.515  67.928  1.00  0.00    -0.036 F  
HETATM   32  C   UNL     1      -6.419   7.666  68.732  1.00  0.00    -0.048 A  
HETATM   33  C   UNL     1      -5.154   7.122  69.305  1.00  0.00    -0.015 C  
HETATM   34  S   UNL     1      -5.147   7.632  71.032  1.00  0.00    -0.027 SA 
HETATM   35  C   UNL     1      -6.120   6.310  71.730  1.00  0.00    -0.041 A  
HETATM   36  C   UNL     1      -5.740   6.074  73.073  1.00  0.00    -0.037 A  
HETATM   37  C   UNL     1      -6.146   4.944  73.765  1.00  0.00    -0.038 A  
HETATM   38  C   UNL     1      -6.889   3.992  73.093  1.00  0.00    -0.052 A  
HETATM   39  C   UNL     1      -7.325   4.240  71.777  1.00  0.00    -0.064 A  
HETATM   40  C   UNL     1      -7.045   5.455  71.091  1.00  0.00    -0.065 A  
ENDBRANCH  11  24
TORSDOF 6
ENDMDL
MODEL      109
REMARK 921   NORMALIZED FREE ENERGY PREDICTED BY IDOCK:   -0.15 KCAL/MOL
REMARK 922        TOTAL FREE ENERGY PREDICTED BY IDOCK:   -0.94 KCAL/MOL
REMARK 923 INTER-LIGAND FREE ENERGY PREDICTED BY IDOCK:   -2.81 KCAL/MOL
REMARK 924 INTRA-LIGAND FREE ENERGY PREDICTED BY IDOCK:    1.87 KCAL/MOL
REMARK 927      BINDING AFFINITY PREDICTED BY RF-SCORE:    0.00 PKD
ROOT
HETATM    1  C   UNL     1     -11.537  10.618  66.555  1.00  0.00     0.975 C  
HETATM    2  C   UNL     1     -11.833  11.628  65.407  1.00  0.00     0.200 C  
HETATM    3  O   UNL     1     -12.350  12.892  65.845  1.00  0.00    -0.493 OA 
HETATM    4  C   UNL     1     -11.505  13.441  66.852  1.00  0.00    -0.342 C  
HETATM    5  C   UNL     1     -11.599  12.607  68.123  1.00  0.00    -0.338 C  
HETATM    6  N   UNL     1     -11.577  11.161  67.896  1.00  0.00    -0.284 N  
HETATM    7  C   UNL     1     -11.597  10.294  68.988  1.00  0.00    -0.081 C  
HETATM    8  O   UNL     1     -11.942  10.680  70.101  1.00  0.00    -0.283 OA 
HETATM    9  C   UNL     1     -10.887   8.955  68.729  1.00  0.00    -0.002 C  
HETATM   10  C   UNL     1     -10.541   8.175  69.784  1.00  0.00    -0.231 C  
HETATM   11  N   UNL     1     -10.366   9.737  66.435  1.00  0.00    -0.211 NA 
HETATM   12  C   UNL     1      -9.726   6.939  69.485  1.00  0.00    -0.158 C  
HETATM   13  O   UNL     1      -9.269   6.211  70.362  1.00  0.00    -0.151 OA 
HETATM   14  N   UNL     1     -10.414   8.694  67.421  1.00  0.00    -0.282 NA 
HETATM   15  C   UNL     1      -9.474   6.589  68.075  1.00  0.00    -0.120 C  
HETATM   16  C   UNL     1      -9.831   7.476  67.146  1.00  0.00    -0.201 C  
ENDROOT
BRANCH  10  17
HETATM   17  O   UNL     1     -10.755   8.574  71.089  1.00  0.00    -0.217 OA 
BRANCH  17  18
HETATM   18  C   UNL     1      -9.610   8.708  71.924  1.00  0.00    -0.307 C  
BRANCH  18  19
HETATM   19  O   UNL     1      -8.596   9.442  71.240  1.00  0.00    -0.299 OA 
BRANCH  19  20
HETATM   20  C   UNL     1      -7.367   8.901  71.395  1.00  0.00    -0.081 C  
HETATM   21  O   UNL     1      -6.988   8.219  72.337  1.00  0.00    -0.082 OA 
BRANCH  20  22
HETATM   22  O   UNL     1      -6.629   9.209  70.297  1.00  0.00    -0.043 OA 
HETATM   23  C   UNL     1      -6.211   8.068  69.557  1.00  0.00    -0.034 C  
ENDBRANCH  20  22
ENDBRANCH  19  20
ENDBRANCH  18  19
ENDBRANCH  17  18
ENDBRANCH  10  17
BRANCH  11  24
HETATM   24  C   UNL     1      -8.983  10.266  66.042  1.00  0.00    -0.152 C  
HETATM   25  C   UNL     1      -8.283  11.275  67.024  1.00  0.00    -0.151 A  
HETATM   26  C   UNL     1      -8.911  11.787  68.172  1.00  0.00    -0.169 A  
HETATM   27  C   UNL     1      -8.353  12.650  69.120  1.00  0.00     0.595 A  
HETATM   28  C   UNL     1      -7.080  13.092  68.918  1.00  0.00    -0.075 A  
HETATM   29  C   UNL     1      -6.416  12.699  67.773  1.00  0.00    -0.128 A  
HETATM   30  F   UNL     1      -6.496  13.877  69.832  1.00  0.00    -0.125 F  
HETATM   31  F   UNL     1      -5.164  13.142  67.575  1.00  0.00    -0.107 F  
HETATM   32  C   UNL     1      -7.006  11.828  66.812  1.00  0.00    -0.047 A  
HETATM   33  C   UNL     1      -6.141  11.393  65.676  1.00  0.00     0.544 C  
HETATM   34  S   UNL     1      -5.451   9.806  66.173  1.00  0.00    -0.049 SA 
HETATM   35  C   UNL     1      -6.785   8.736  65.664  1.00  0.00    -0.068 A  
HETATM   36  C   UNL     1      -6.287   7.457  65.318  1.00  0.00    -0.038 A  
HETATM   37  C   UNL     1      -7.061   6.524  64.648  1.00  0.00    -0.060 A  
HETATM   38  C   UNL     1      -8.334   6.886  64.251  1.00  0.00     0.138 A  
HETATM   39  C   UNL     1      -8.864   8.131  64.640  1.00  0.00     0.263 A  
HETATM   40  C   UNL     1      -8.145   9.052  65.452  1.00  0.00    -0.120 A  
ENDBRANCH  11  24
TORSDOF 6
ENDMDL
MODEL      110
REMARK 921   NORMALIZED FREE ENERGY PREDICTED BY IDOCK:    0.76 KCAL/MOL
REMARK 922        TOTAL FREE ENERGY PREDICTED BY IDOCK:    0.29 KCAL/MOL
REMARK 923 INTER-LIGAND FREE ENERGY PREDICTED BY IDOCK:    0.28 KCAL/MOL
REMARK 924 INTRA-LIGAND FREE ENERGY PREDICTED BY IDOCK:    0.01 KCAL/MOL
REMARK 927      BINDING AFFINITY PREDICTED BY RF-SCORE:    0.00 PKD
ROOT
HETATM    1  C   UNL     1      -9.464  15.232  65.038  1.00  0.00     0.665 C  
HETATM    2  C   UNL     1     -10.174  16.238  64.085  1.00  0.00     3.006 C  
HETATM    3  O   UNL     1     -11.413  15.766  63.538  1.00  0.00     0.050 OA 
HETATM    4  C   UNL     1     -12.266  15.311  64.586  1.00  0.00    -0.138 C  
HETATM    5  C   UNL     1     -11.695  14.043  65.208  1.00  0.00    -0.346 C  
HETATM    6  N   UNL     1     -10.251  14.086  65.443  1.00  0.00    -0.342 N  
HETATM    7  C   UNL     1      -9.623  13.007  66.063  1.00  0.00    -0.165 C  
HETATM    8  O   UNL     1     -10.170  11.909  66.136  1.00  0.00    -0.215 OA 
HETATM    9  C   UNL     1      -8.374  13.395  66.869  1.00  0.00     0.004 C  
HETATM   10  C   UNL     1      -7.876  12.521  67.780  1.00  0.00    -0.151 C  
HETATM   11  N   UNL     1      -8.751  15.755  66.213  1.00  0.00    -0.332 NA 
HETATM   12  C   UNL     1      -6.733  13.004  68.641  1.00  0.00    -0.096 C  
HETATM   13  O   UNL     1      -6.265  12.344  69.565  1.00  0.00    -0.108 OA 
HETATM   14  N   UNL     1      -7.928  14.737  66.802  1.00  0.00     0.021 NA 
HETATM   15  C   UNL     1      -6.150  14.328  68.355  1.00  0.00    -0.102 C  
HETATM   16  C   UNL     1      -6.776  15.099  67.464  1.00  0.00    -0.160 C  
ENDROOT
BRANCH  10  17
HETATM   17  O   UNL     1      -8.491  11.313  68.046  1.00  0.00    -0.127 OA 
BRANCH  17  18
HETATM   18  C   UNL     1      -8.528  10.888  69.404  1.00  0.00     0.091 C  
BRANCH  18  19
HETATM   19  O   UNL     1      -9.555   9.912  69.578  1.00  0.00    -0.199 OA 
BRANCH  19  20
HETATM   20  C   UNL     1      -9.063   8.665  69.754  1.00  0.00    -0.150 C  
HETATM   21  O   UNL     1      -7.903   8.313  69.593  1.00  0.00    -0.097 OA 
BRANCH  20  22
HETATM   22  O   UNL     1     -10.076   7.871  70.187  1.00  0.00    -0.190 OA 
HETATM   23  C   UNL     1     -10.489   8.154  71.519  1.00  0.00    -0.221 C  
ENDBRANCH  20  22
ENDBRANCH  19  20
ENDBRANCH  18  19
ENDBRANCH  17  18
ENDBRANCH  10  17
BRANCH  11  24
HETATM   24  C   UNL     1      -9.383  16.781  67.160  1.00  0.00    -0.229 C  
HETATM   25  C   UNL     1      -9.950  16.256  68.529  1.00  0.00    -0.234 A  
HETATM   26  C   UNL     1      -9.999  14.893  68.865  1.00  0.00    -0.233 A  
HETATM   27  C   UNL     1     -10.444  14.340  70.070  1.00  0.00     0.419 A  
HETATM   28  C   UNL     1     -10.924  15.184  71.027  1.00  0.00    -0.169 A  
HETATM   29  C   UNL     1     -10.984  16.535  70.749  1.00  0.00     0.112 A  
HETATM   30  F   UNL     1     -11.309  14.695  72.212  1.00  0.00    -0.297 F  
HETATM   31  F   UNL     1     -11.462  17.361  71.693  1.00  0.00     0.115 F  
HETATM   32  C   UNL     1     -10.536  17.078  69.510  1.00  0.00    -0.182 A  
HETATM   33  C   UNL     1     -10.552  18.564  69.381  1.00  0.00     0.777 C  
HETATM   34  S   UNL     1      -8.891  19.106  69.816  1.00  0.00     0.950 SA 
HETATM   35  C   UNL     1      -8.094  18.903  68.233  1.00  0.00    -0.320 A  
HETATM   36  C   UNL     1      -7.034  19.830  68.091  1.00  0.00    -0.324 A  
HETATM   37  C   UNL     1      -6.421  20.066  66.872  1.00  0.00    -0.219 A  
HETATM   38  C   UNL     1      -6.911  19.420  65.752  1.00  0.00    -0.307 A  
HETATM   39  C   UNL     1      -7.924  18.451  65.886  1.00  0.00    -0.040 A  
HETATM   40  C   UNL     1      -8.473  18.083  67.146  1.00  0.00    -0.241 A  
ENDBRANCH  11  24
TORSDOF 6
ENDMDL
MODEL      111
REMARK 921   NORMALIZED FREE ENERGY PREDICTED BY IDOCK:    1.02 KCAL/MOL
REMARK 922        TOTAL FREE ENERGY PREDICTED BY IDOCK:    0.64 KCAL/MOL
REMARK 923 INTER-LIGAND FREE ENERGY PREDICTED BY IDOCK:   -1.75 KCAL/MOL
REMARK 924 INTRA-LIGAND FREE ENERGY PREDICTED BY IDOCK:    2.39 KCAL/MOL
REMARK 927      BINDING AFFINITY PREDICTED BY RF-SCORE:    0.00 PKD
ROOT
HETATM    1  C   UNL     1     -11.607  12.544  65.490  1.00  0.00    -0.386 C  
HETATM    2  C   UNL     1     -11.269  13.074  64.065  1.00  0.00    -0.405 C  
HETATM    3  O   UNL     1     -11.470  14.484  63.891  1.00  0.00     0.001 OA 
HETATM    4  C   UNL     1     -10.790  15.202  64.916  1.00  0.00    -0.418 C  
HETATM    5  C   UNL     1     -11.462  14.953  66.260  1.00  0.00    -0.269 C  
HETATM    6  N   UNL     1     -11.826  13.556  66.502  1.00  0.00    -0.377 N  
HETATM    7  C   UNL     1     -12.393  13.195  67.722  1.00  0.00     0.130 C  
HETATM    8  O   UNL     1     -12.881  14.038  68.472  1.00  0.00     0.605 OA 
HETATM    9  C   UNL     1     -12.087  11.750  68.145  1.00  0.00     0.030 C  
HETATM   10  C   UNL     1     -12.283  11.382  69.437  1.00  0.00    -0.221 C  
HETATM   11  N   UNL     1     -10.774  11.476  66.061  1.00  0.00    -0.276 NA 
HETATM   12  C   UNL     1     -11.838   9.994  69.831  1.00  0.00    -0.074 C  
HETATM   13  O   UNL     1     -11.870   9.583  70.987  1.00  0.00    -0.291 OA 
HETATM   14  N   UNL     1     -11.393  10.921  67.231  1.00  0.00    -0.444 NA 
HETATM   15  C   UNL     1     -11.348   9.089  68.775  1.00  0.00     0.447 C  
HETATM   16  C   UNL     1     -11.161   9.603  67.559  1.00  0.00     0.035 C  
ENDROOT
BRANCH  10  17
HETATM   17  O   UNL     1     -12.696  12.284  70.399  1.00  0.00    -0.064 OA 
BRANCH  17  18
HETATM   18  C   UNL     1     -11.684  12.917  71.174  1.00  0.00     1.062 C  
BRANCH  18  19
HETATM   19  O   UNL     1     -11.113  13.996  70.435  1.00  0.00     0.070 OA 
BRANCH  19  20
HETATM   20  C   UNL     1     -11.198  15.176  71.089  1.00  0.00    -0.281 C  
HETATM   21  O   UNL     1     -11.714  15.365  72.182  1.00  0.00    -0.392 OA 
BRANCH  20  22
HETATM   22  O   UNL     1     -10.570  16.119  70.340  1.00  0.00    -0.226 OA 
HETATM   23  C   UNL     1      -9.379  15.648  69.720  1.00  0.00    -0.116 C  
ENDBRANCH  20  22
ENDBRANCH  19  20
ENDBRANCH  18  19
ENDBRANCH  17  18
ENDBRANCH  10  17
BRANCH  11  24
HETATM   24  C   UNL     1      -9.242  11.536  66.041  1.00  0.00    -0.217 C  
HETATM   25  C   UNL     1      -8.491  11.448  67.419  1.00  0.00    -0.143 A  
HETATM   26  C   UNL     1      -9.159  11.429  68.655  1.00  0.00    -0.138 A  
HETATM   27  C   UNL     1      -8.578  11.309  69.921  1.00  0.00     1.390 A  
HETATM   28  C   UNL     1      -7.220  11.242  70.003  1.00  0.00     0.462 A  
HETATM   29  C   UNL     1      -6.481  11.333  68.840  1.00  0.00    -0.063 A  
HETATM   30  F   UNL     1      -6.633  11.074  71.195  1.00  0.00     0.259 F  
HETATM   31  F   UNL     1      -5.143  11.272  68.927  1.00  0.00    -0.042 F  
HETATM   32  C   UNL     1      -7.091  11.466  67.559  1.00  0.00    -0.106 A  
HETATM   33  C   UNL     1      -6.183  11.441  66.376  1.00  0.00    -0.066 C  
HETATM   34  S   UNL     1      -6.177   9.733  65.806  1.00  0.00    -0.078 SA 
HETATM   35  C   UNL     1      -7.636   9.763  64.780  1.00  0.00    -0.129 A  
HETATM   36  C   UNL     1      -7.517   8.826  63.726  1.00  0.00    -0.111 A  
HETATM   37  C   UNL     1      -8.381   8.824  62.643  1.00  0.00    -0.198 A  
HETATM   38  C   UNL     1      -9.344   9.812  62.566  1.00  0.00    -0.198 A  
HETATM   39  C   UNL     1      -9.513  10.713  63.634  1.00  0.00    -0.337 A  
HETATM   40  C   UNL     1      -8.735  10.649  64.824  1.00  0.00    -0.170 A  
ENDBRANCH  11  24
TORSDOF 6
ENDMDL
MODEL      112
REMARK 921   NORMALIZED FREE ENERGY PREDICTED BY IDOCK:    1.03 KCAL/MOL
REMARK 922        TOTAL FREE ENERGY PREDICTED BY IDOCK:    0.65 KCAL/MOL
REMARK 923 INTER-LIGAND FREE ENERGY PREDICTED BY IDOCK:   -3.32 KCAL/MOL
REMARK 924 INTRA-LIGAND FREE ENERGY PREDICTED BY IDOCK:    3.97 KCAL/MOL
REMARK 927      BINDING AFFINITY PREDICTED BY RF-SCORE:    0.00 PKD
ROOT
HETATM    1  C   UNL     1      -7.584   5.528  69.411  1.00  0.00    -0.078 C  
HETATM    2  C   UNL     1      -7.073   5.948  70.821  1.00  0.00    -0.071 C  
HETATM    3  O   UNL     1      -5.646   6.043  70.933  1.00  0.00    -0.017 OA 
HETATM    4  C   UNL     1      -5.131   6.874  69.896  1.00  0.00    -0.015 C  
HETATM    5  C   UNL     1      -5.294   6.184  68.548  1.00  0.00    -0.007 C  
HETATM    6  N   UNL     1      -6.594   5.540  68.354  1.00  0.00    -0.047 N  
HETATM    7  C   UNL     1      -6.883   4.927  67.136  1.00  0.00    -0.056 C  
HETATM    8  O   UNL     1      -5.991   4.637  66.342  1.00  0.00    -0.025 OA 
HETATM    9  C   UNL     1      -8.378   4.931  66.779  1.00  0.00    -0.107 C  
HETATM   10  C   UNL     1      -8.753   4.680  65.499  1.00  0.00    -0.130 C  
HETATM   11  N   UNL     1      -8.826   6.127  68.903  1.00  0.00    -0.122 NA 
HETATM   12  C   UNL     1     -10.219   4.831  65.172  1.00  0.00     0.056 C  
HETATM   13  O   UNL     1     -10.665   4.731  64.032  1.00  0.00     0.486 OA 
HETATM   14  N   UNL     1      -9.291   5.422  67.742  1.00  0.00    -0.113 NA 
HETATM   15  C   UNL     1     -11.159   5.106  66.274  1.00  0.00     0.161 C  
HETATM   16  C   UNL     1     -10.642   5.379  67.473  1.00  0.00    -0.129 C  
ENDROOT
BRANCH  10  17
HETATM   17  O   UNL     1      -7.828   4.478  64.493  1.00  0.00    -0.085 OA 
BRANCH  17  18
HETATM   18  C   UNL     1      -6.712   3.648  64.793  1.00  0.00    -0.047 C  
BRANCH  18  19
HETATM   19  O   UNL     1      -7.145   2.300  64.968  1.00  0.00    -0.050 OA 
BRANCH  19  20
HETATM   20  C   UNL     1      -7.964   1.883  63.977  1.00  0.00    -0.065 C  
HETATM   21  O   UNL     1      -7.689   1.819  62.787  1.00  0.00    -0.051 OA 
BRANCH  20  22
HETATM   22  O   UNL     1      -9.141   1.502  64.537  1.00  0.00    -0.106 OA 
HETATM   23  C   UNL     1      -9.128   1.531  65.959  1.00  0.00    -0.046 C  
ENDBRANCH  20  22
ENDBRANCH  19  20
ENDBRANCH  18  19
ENDBRANCH  17  18
ENDBRANCH  10  17
BRANCH  11  24
HETATM   24  C   UNL     1      -9.085   7.637  68.956  1.00  0.00    -0.144 C  
HETATM   25  C   UNL     1      -9.101   8.422  67.594  1.00  0.00    -0.144 A  
HETATM   26  C   UNL     1      -8.783   7.826  66.363  1.00  0.00    -0.167 A  
HETATM   27  C   UNL     1      -8.812   8.433  65.104  1.00  0.00    -0.075 A  
HETATM   28  C   UNL     1      -9.142   9.753  65.032  1.00  0.00    -0.231 A  
HETATM   29  C   UNL     1      -9.394  10.437  66.205  1.00  0.00    -0.166 A  
HETATM   30  F   UNL     1      -9.231  10.353  63.839  1.00  0.00    -0.192 F  
HETATM   31  F   UNL     1      -9.713  11.739  66.130  1.00  0.00    -0.213 F  
HETATM   32  C   UNL     1      -9.348   9.803  67.481  1.00  0.00    -0.152 A  
HETATM   33  C   UNL     1      -9.749  10.628  68.657  1.00  0.00    -0.178 C  
HETATM   34  S   UNL     1     -11.492  10.266  68.931  1.00  0.00    -0.061 SA 
HETATM   35  C   UNL     1     -11.330   8.792  69.925  1.00  0.00     0.039 A  
HETATM   36  C   UNL     1     -12.430   8.670  70.808  1.00  0.00     0.094 A  
HETATM   37  C   UNL     1     -12.430   7.771  71.861  1.00  0.00    -0.343 A  
HETATM   38  C   UNL     1     -11.291   7.022  72.089  1.00  0.00    -0.302 A  
HETATM   39  C   UNL     1     -10.213   7.089  71.185  1.00  0.00    -0.208 A  
HETATM   40  C   UNL     1     -10.242   7.896  70.014  1.00  0.00    -0.208 A  
ENDBRANCH  11  24
TORSDOF 6
ENDMDL
MODEL      113
REMARK 921   NORMALIZED FREE ENERGY PREDICTED BY IDOCK:    1.13 KCAL/MOL
REMARK 922        TOTAL FREE ENERGY PREDICTED BY IDOCK:    0.79 KCAL/MOL
REMARK 923 INTER-LIGAND FREE ENERGY PREDICTED BY IDOCK:   -3.81 KCAL/MOL
REMARK 924 INTRA-LIGAND FREE ENERGY PREDICTED BY IDOCK:    4.60 KCAL/MOL
REMARK 927      BINDING AFFINITY PREDICTED BY RF-SCORE:    0.00 PKD
ROOT
HETATM    1  C   UNL     1      -7.686  10.358  67.295  1.00  0.00    -0.099 C  
HETATM    2  C   UNL     1      -7.748  11.305  66.060  1.00  0.00     0.070 C  
HETATM    3  O   UNL     1      -8.820  11.027  65.149  1.00  0.00    -0.183 OA 
HETATM    4  C   UNL     1     -10.056  10.969  65.856  1.00  0.00    -0.249 C  
HETATM    5  C   UNL     1     -10.084   9.742  66.757  1.00  0.00    -0.231 C  
HETATM    6  N   UNL     1      -8.841   9.507  67.492  1.00  0.00    -0.125 N  
HETATM    7  C   UNL     1      -8.766   8.447  68.395  1.00  0.00    -0.136 C  
HETATM    8  O   UNL     1      -9.582   7.529  68.367  1.00  0.00    -0.147 OA 
HETATM    9  C   UNL     1      -7.792   8.690  69.558  1.00  0.00    -0.095 C  
HETATM   10  C   UNL     1      -7.873   7.908  70.664  1.00  0.00    -0.095 C  
HETATM   11  N   UNL     1      -7.282  10.916  68.593  1.00  0.00    -0.082 NA 
HETATM   12  C   UNL     1      -6.988   8.276  71.831  1.00  0.00    -0.085 C  
HETATM   13  O   UNL     1      -7.043   7.708  72.918  1.00  0.00    -0.069 OA 
HETATM   14  N   UNL     1      -7.003   9.865  69.532  1.00  0.00    -0.061 NA 
HETATM   15  C   UNL     1      -6.008   9.363  71.653  1.00  0.00    -0.035 C  
HETATM   16  C   UNL     1      -6.076  10.078  70.529  1.00  0.00    -0.100 C  
ENDROOT
BRANCH  10  17
HETATM   17  O   UNL     1      -8.843   6.935  70.801  1.00  0.00    -0.148 OA 
BRANCH  17  18
HETATM   18  C   UNL     1      -9.454   6.802  72.080  1.00  0.00    -0.139 C  
BRANCH  18  19
HETATM   19  O   UNL     1     -10.868   6.671  71.930  1.00  0.00    -0.226 OA 
BRANCH  19  20
HETATM   20  C   UNL     1     -11.211   5.982  70.818  1.00  0.00    -0.269 C  
HETATM   21  O   UNL     1     -10.522   5.157  70.234  1.00  0.00    -0.275 OA 
BRANCH  20  22
HETATM   22  O   UNL     1     -12.479   6.333  70.481  1.00  0.00     0.145 OA 
HETATM   23  C   UNL     1     -13.271   6.732  71.593  1.00  0.00    -0.162 C  
ENDBRANCH  20  22
ENDBRANCH  19  20
ENDBRANCH  18  19
ENDBRANCH  17  18
ENDBRANCH  10  17
BRANCH  11  24
HETATM   24  C   UNL     1      -7.885  12.210  69.149  1.00  0.00     0.288 C  
HETATM   25  C   UNL     1      -7.258  13.570  68.671  1.00  0.00    -0.107 A  
HETATM   26  C   UNL     1      -6.116  13.642  67.856  1.00  0.00    -0.154 A  
HETATM   27  C   UNL     1      -5.517  14.800  67.349  1.00  0.00     0.336 A  
HETATM   28  C   UNL     1      -6.050  16.005  67.696  1.00  0.00    -0.156 A  
HETATM   29  C   UNL     1      -7.128  16.029  68.558  1.00  0.00    -0.132 A  
HETATM   30  F   UNL     1      -5.535  17.131  67.188  1.00  0.00    -0.123 F  
HETATM   31  F   UNL     1      -7.646  17.219  68.902  1.00  0.00    -0.236 F  
HETATM   32  C   UNL     1      -7.718  14.838  69.073  1.00  0.00    -0.145 A  
HETATM   33  C   UNL     1      -8.945  15.000  69.906  1.00  0.00     0.262 C  
HETATM   34  S   UNL     1     -10.329  14.777  68.776  1.00  0.00    -0.253 SA 
HETATM   35  C   UNL     1     -10.450  12.997  68.810  1.00  0.00    -0.164 A  
HETATM   36  C   UNL     1     -11.785  12.589  68.577  1.00  0.00    -0.369 A  
HETATM   37  C   UNL     1     -12.207  11.290  68.805  1.00  0.00    -0.101 A  
HETATM   38  C   UNL     1     -11.306  10.389  69.340  1.00  0.00    -0.310 A  
HETATM   39  C   UNL     1      -9.961  10.763  69.520  1.00  0.00    -0.087 A  
HETATM   40  C   UNL     1      -9.465  12.047  69.159  1.00  0.00     0.435 A  
ENDBRANCH  11  24
TORSDOF 6
ENDMDL
MODEL      114
REMARK 921   NORMALIZED FREE ENERGY PREDICTED BY IDOCK:    1.30 KCAL/MOL
REMARK 922        TOTAL FREE ENERGY PREDICTED BY IDOCK:    1.02 KCAL/MOL
REMARK 923 INTER-LIGAND FREE ENERGY PREDICTED BY IDOCK:   -2.72 KCAL/MOL
REMARK 924 INTRA-LIGAND FREE ENERGY PREDICTED BY IDOCK:    3.74 KCAL/MOL
REMARK 927      BINDING AFFINITY PREDICTED BY RF-SCORE:    0.00 PKD
ROOT
HETATM    1  C   UNL     1     -11.490  14.237  66.776  1.00  0.00    -0.367 C  
HETATM    2  C   UNL     1     -11.673  12.929  65.951  1.00  0.00    -0.399 C  
HETATM    3  O   UNL     1     -11.173  12.997  64.609  1.00  0.00    -0.302 OA 
HETATM    4  C   UNL     1      -9.823  13.454  64.615  1.00  0.00     0.054 C  
HETATM    5  C   UNL     1      -9.771  14.914  65.043  1.00  0.00     0.142 C  
HETATM    6  N   UNL     1     -10.629  15.239  66.183  1.00  0.00    -0.303 N  
HETATM    7  C   UNL     1     -10.621  16.532  66.704  1.00  0.00    -0.216 C  
HETATM    8  O   UNL     1     -10.165  17.474  66.061  1.00  0.00    -0.440 OA 
HETATM    9  C   UNL     1     -10.944  16.598  68.205  1.00  0.00    -0.341 C  
HETATM   10  C   UNL     1     -10.642  17.725  68.898  1.00  0.00    -0.080 C  
HETATM   11  N   UNL     1     -11.175  14.130  68.208  1.00  0.00    -0.260 NA 
HETATM   12  C   UNL     1     -10.852  17.689  70.393  1.00  0.00     1.450 C  
HETATM   13  O   UNL     1     -10.522  18.607  71.138  1.00  0.00     1.843 OA 
HETATM   14  N   UNL     1     -11.328  15.402  68.857  1.00  0.00    -0.293 NA 
HETATM   15  C   UNL     1     -11.487  16.496  70.983  1.00  0.00    -0.079 C  
HETATM   16  C   UNL     1     -11.683  15.443  70.188  1.00  0.00    -0.330 C  
ENDROOT
BRANCH  10  17
HETATM   17  O   UNL     1     -10.000  18.796  68.307  1.00  0.00    -0.345 OA 
BRANCH  17  18
HETATM   18  C   UNL     1      -9.043  19.495  69.095  1.00  0.00    -0.121 C  
BRANCH  18  19
HETATM   19  O   UNL     1      -7.747  18.931  68.895  1.00  0.00    -0.325 OA 
BRANCH  19  20
HETATM   20  C   UNL     1      -7.014  19.618  67.992  1.00  0.00    -0.264 C  
HETATM   21  O   UNL     1      -5.821  19.471  67.762  1.00  0.00    -0.193 OA 
BRANCH  20  22
HETATM   22  O   UNL     1      -7.842  20.478  67.345  1.00  0.00    -0.322 OA 
HETATM   23  C   UNL     1      -8.023  20.165  65.969  1.00  0.00    -0.204 C  
ENDBRANCH  20  22
ENDBRANCH  19  20
ENDBRANCH  18  19
ENDBRANCH  17  18
ENDBRANCH  10  17
BRANCH  11  24
HETATM   24  C   UNL     1     -10.074  13.202  68.735  1.00  0.00    -0.061 C  
HETATM   25  C   UNL     1     -10.258  11.656  68.516  1.00  0.00    -0.216 A  
HETATM   26  C   UNL     1     -11.422  11.095  67.966  1.00  0.00    -0.366 A  
HETATM   27  C   UNL     1     -11.655   9.742  67.696  1.00  0.00     1.036 A  
HETATM   28  C   UNL     1     -10.686   8.843  68.027  1.00  0.00    -0.108 A  
HETATM   29  C   UNL     1      -9.539   9.303  68.644  1.00  0.00    -0.147 A  
HETATM   30  F   UNL     1     -10.853   7.547  67.735  1.00  0.00    -0.277 F  
HETATM   31  F   UNL     1      -8.590   8.412  68.973  1.00  0.00    -0.125 F  
HETATM   32  C   UNL     1      -9.325  10.684  68.921  1.00  0.00    -0.191 A  
HETATM   33  C   UNL     1      -7.998  11.058  69.490  1.00  0.00     0.147 C  
HETATM   34  S   UNL     1      -6.987  11.545  68.081  1.00  0.00    -0.075 SA 
HETATM   35  C   UNL     1      -7.490  13.251  67.937  1.00  0.00    -0.143 A  
HETATM   36  C   UNL     1      -6.440  14.031  67.397  1.00  0.00     0.094 A  
HETATM   37  C   UNL     1      -6.466  15.416  67.420  1.00  0.00    -0.115 A  
HETATM   38  C   UNL     1      -7.522  16.045  68.052  1.00  0.00    -0.134 A  
HETATM   39  C   UNL     1      -8.602  15.285  68.540  1.00  0.00    -0.167 A  
HETATM   40  C   UNL     1      -8.672  13.871  68.401  1.00  0.00    -0.173 A  
ENDBRANCH  11  24
TORSDOF 6
ENDMDL
MODEL      115
REMARK 921   NORMALIZED FREE ENERGY PREDICTED BY IDOCK:    1.50 KCAL/MOL
REMARK 922        TOTAL FREE ENERGY PREDICTED BY IDOCK:    1.28 KCAL/MOL
REMARK 923 INTER-LIGAND FREE ENERGY PREDICTED BY IDOCK:   -2.23 KCAL/MOL
REMARK 924 INTRA-LIGAND FREE ENERGY PREDICTED BY IDOCK:    3.52 KCAL/MOL
REMARK 927      BINDING AFFINITY PREDICTED BY RF-SCORE:    0.00 PKD
ROOT
HETATM    1  C   UNL     1      -8.873   5.250  68.311  1.00  0.00    -0.104 C  
HETATM    2  C   UNL     1      -8.015   4.303  67.420  1.00  0.00    -0.096 C  
HETATM    3  O   UNL     1      -8.624   3.948  66.171  1.00  0.00    -0.109 OA 
HETATM    4  C   UNL     1      -9.037   5.124  65.480  1.00  0.00    -0.153 C  
HETATM    5  C   UNL     1     -10.196   5.781  66.218  1.00  0.00    -0.075 C  
HETATM    6  N   UNL     1     -10.028   5.841  67.670  1.00  0.00    -0.130 N  
HETATM    7  C   UNL     1     -10.996   6.474  68.448  1.00  0.00    -0.281 C  
HETATM    8  O   UNL     1     -12.118   6.705  68.005  1.00  0.00     1.427 OA 
HETATM    9  C   UNL     1     -10.445   7.092  69.743  1.00  0.00    -0.219 C  
HETATM   10  C   UNL     1     -11.191   8.009  70.408  1.00  0.00    -0.229 C  
HETATM   11  N   UNL     1      -8.191   6.283  69.104  1.00  0.00    -0.113 NA 
HETATM   12  C   UNL     1     -10.548   8.686  71.595  1.00  0.00    -0.303 C  
HETATM   13  O   UNL     1     -11.082   9.602  72.215  1.00  0.00     0.378 OA 
HETATM   14  N   UNL     1      -9.087   6.857  70.067  1.00  0.00    -0.145 NA 
HETATM   15  C   UNL     1      -9.219   8.221  72.033  1.00  0.00    -0.270 C  
HETATM   16  C   UNL     1      -8.583   7.347  71.253  1.00  0.00    -0.118 C  
ENDROOT
BRANCH  10  17
HETATM   17  O   UNL     1     -12.409   8.449  69.927  1.00  0.00     0.855 OA 
BRANCH  17  18
HETATM   18  C   UNL     1     -12.621   9.856  69.884  1.00  0.00     0.435 C  
BRANCH  18  19
HETATM   19  O   UNL     1     -11.397  10.520  69.573  1.00  0.00    -0.243 OA 
BRANCH  19  20
HETATM   20  C   UNL     1     -11.465  11.223  68.420  1.00  0.00    -0.307 C  
HETATM   21  O   UNL     1     -12.032  10.878  67.392  1.00  0.00    -0.343 OA 
BRANCH  20  22
HETATM   22  O   UNL     1     -10.830  12.408  68.612  1.00  0.00    -0.227 OA 
HETATM   23  C   UNL     1     -11.717  13.492  68.864  1.00  0.00    -0.339 C  
ENDBRANCH  20  22
ENDBRANCH  19  20
ENDBRANCH  18  19
ENDBRANCH  17  18
ENDBRANCH  10  17
BRANCH  11  24
HETATM   24  C   UNL     1      -7.127   7.207  68.499  1.00  0.00    -0.081 C  
HETATM   25  C   UNL     1      -7.570   8.158  67.328  1.00  0.00    -0.097 A  
HETATM   26  C   UNL     1      -8.850   8.117  66.750  1.00  0.00    -0.156 A  
HETATM   27  C   UNL     1      -9.342   8.949  65.740  1.00  0.00    -0.286 A  
HETATM   28  C   UNL     1      -8.504   9.884  65.210  1.00  0.00    -0.150 A  
HETATM   29  C   UNL     1      -7.202   9.941  65.666  1.00  0.00    -0.113 A  
HETATM   30  F   UNL     1      -8.957  10.732  64.279  1.00  0.00    -0.183 F  
HETATM   31  F   UNL     1      -6.378  10.860  65.137  1.00  0.00    -0.092 F  
HETATM   32  C   UNL     1      -6.715   9.076  66.689  1.00  0.00    -0.075 A  
HETATM   33  C   UNL     1      -5.323   9.316  67.168  1.00  0.00    -0.036 C  
HETATM   34  S   UNL     1      -5.484  10.367  68.621  1.00  0.00    -0.037 SA 
HETATM   35  C   UNL     1      -5.773   9.113  69.857  1.00  0.00    -0.031 A  
HETATM   36  C   UNL     1      -5.289   9.541  71.116  1.00  0.00    -0.055 A  
HETATM   37  C   UNL     1      -5.149   8.671  72.184  1.00  0.00    -0.039 A  
HETATM   38  C   UNL     1      -5.429   7.332  71.985  1.00  0.00    -0.037 A  
HETATM   39  C   UNL     1      -5.967   6.902  70.758  1.00  0.00    -0.028 A  
HETATM   40  C   UNL     1      -6.258   7.797  69.690  1.00  0.00    -0.030 A  
ENDBRANCH  11  24
TORSDOF 6
ENDMDL
MODEL      116
REMARK 921   NORMALIZED FREE ENERGY PREDICTED BY IDOCK:    1.65 KCAL/MOL
REMARK 922        TOTAL FREE ENERGY PREDICTED BY IDOCK:    1.50 KCAL/MOL
REMARK 923 INTER-LIGAND FREE ENERGY PREDICTED BY IDOCK:   -4.67 KCAL/MOL
REMARK 924 INTRA-LIGAND FREE ENERGY PREDICTED BY IDOCK:    6.17 KCAL/MOL
REMARK 927      BINDING AFFINITY PREDICTED BY RF-SCORE:    0.00 PKD
ROOT
HETATM    1  C   UNL     1     -11.245   7.372  70.386  1.00  0.00    -0.262 C  
HETATM    2  C   UNL     1     -11.473   8.475  71.462  1.00  0.00    -0.287 C  
HETATM    3  O   UNL     1     -11.048   8.114  72.783  1.00  0.00    -0.382 OA 
HETATM    4  C   UNL     1      -9.701   7.650  72.752  1.00  0.00    -0.205 C  
HETATM    5  C   UNL     1      -9.626   6.316  72.023  1.00  0.00    -0.151 C  
HETATM    6  N   UNL     1     -10.420   6.255  70.795  1.00  0.00    -0.213 N  
HETATM    7  C   UNL     1     -10.384   5.104  70.009  1.00  0.00    -0.276 C  
HETATM    8  O   UNL     1      -9.966   4.040  70.458  1.00  0.00    -0.187 OA 
HETATM    9  C   UNL     1     -10.622   5.367  68.514  1.00  0.00    -0.082 C  
HETATM   10  C   UNL     1     -10.284   4.411  67.612  1.00  0.00     0.121 C  
HETATM   11  N   UNL     1     -10.850   7.780  69.030  1.00  0.00    -0.094 NA 
HETATM   12  C   UNL     1     -10.410   4.771  66.151  1.00  0.00    -0.300 C  
HETATM   13  O   UNL     1     -10.040   4.030  65.244  1.00  0.00    -0.199 OA 
HETATM   14  N   UNL     1     -10.968   6.680  68.115  1.00  0.00    -0.260 NA 
HETATM   15  C   UNL     1     -11.010   6.071  65.798  1.00  0.00     1.309 C  
HETATM   16  C   UNL     1     -11.248   6.930  66.789  1.00  0.00     0.206 C  
ENDROOT
BRANCH  10  17
HETATM   17  O   UNL     1      -9.677   3.230  67.992  1.00  0.00    -0.144 OA 
BRANCH  17  18
HETATM   18  C   UNL     1      -8.265   3.146  67.838  1.00  0.00    -0.079 C  
BRANCH  18  19
HETATM   19  O   UNL     1      -7.948   2.294  66.737  1.00  0.00    -0.070 OA 
BRANCH  19  20
HETATM   20  C   UNL     1      -6.696   2.493  66.269  1.00  0.00    -0.043 C  
HETATM   21  O   UNL     1      -5.760   2.986  66.884  1.00  0.00    -0.021 OA 
BRANCH  20  22
HETATM   22  O   UNL     1      -6.639   2.007  65.002  1.00  0.00    -0.026 OA 
HETATM   23  C   UNL     1      -7.265   2.851  64.043  1.00  0.00    -0.057 C  
ENDBRANCH  20  22
ENDBRANCH  19  20
ENDBRANCH  18  19
ENDBRANCH  17  18
ENDBRANCH  10  17
BRANCH  11  24
HETATM   24  C   UNL     1      -9.720   8.785  68.776  1.00  0.00    -0.165 C  
HETATM   25  C   UNL     1      -8.752   8.503  67.570  1.00  0.00    -0.135 A  
HETATM   26  C   UNL     1      -8.812   7.331  66.798  1.00  0.00    -0.143 A  
HETATM   27  C   UNL     1      -8.024   7.017  65.686  1.00  0.00    -0.123 A  
HETATM   28  C   UNL     1      -7.060   7.903  65.309  1.00  0.00    -0.060 A  
HETATM   29  C   UNL     1      -6.881   9.047  66.061  1.00  0.00    -0.080 A  
HETATM   30  F   UNL     1      -6.322   7.659  64.218  1.00  0.00    -0.046 F  
HETATM   31  F   UNL     1      -5.925   9.914  65.689  1.00  0.00    -0.057 F  
HETATM   32  C   UNL     1      -7.687   9.344  67.198  1.00  0.00    -0.091 A  
HETATM   33  C   UNL     1      -7.462  10.665  67.856  1.00  0.00    -0.090 C  
HETATM   34  S   UNL     1      -8.684  11.776  67.138  1.00  0.00    -0.175 SA 
HETATM   35  C   UNL     1     -10.074  11.402  68.193  1.00  0.00    -0.189 A  
HETATM   36  C   UNL     1     -10.920  12.530  68.313  1.00  0.00    -0.270 A  
HETATM   37  C   UNL     1     -11.920  12.601  69.268  1.00  0.00    -0.301 A  
HETATM   38  C   UNL     1     -12.044  11.562  70.171  1.00  0.00    -0.432 A  
HETATM   39  C   UNL     1     -11.251  10.408  70.027  1.00  0.00    -0.385 A  
HETATM   40  C   UNL     1     -10.315  10.246  68.968  1.00  0.00    -0.229 A  
ENDBRANCH  11  24
TORSDOF 6
ENDMDL
MODEL      117
REMARK 921   NORMALIZED FREE ENERGY PREDICTED BY IDOCK:    1.77 KCAL/MOL
REMARK 922        TOTAL FREE ENERGY PREDICTED BY IDOCK:    1.65 KCAL/MOL
REMARK 923 INTER-LIGAND FREE ENERGY PREDICTED BY IDOCK:   -4.92 KCAL/MOL
REMARK 924 INTRA-LIGAND FREE ENERGY PREDICTED BY IDOCK:    6.57 KCAL/MOL
REMARK 927      BINDING AFFINITY PREDICTED BY RF-SCORE:    0.00 PKD
ROOT
HETATM    1  C   UNL     1      -7.909   8.389  66.195  1.00  0.00    -0.101 C  
HETATM    2  C   UNL     1      -7.079   7.175  65.681  1.00  0.00    -0.068 C  
HETATM    3  O   UNL     1      -5.688   7.452  65.470  1.00  0.00    -0.035 OA 
HETATM    4  C   UNL     1      -5.126   8.042  66.639  1.00  0.00    -0.027 C  
HETATM    5  C   UNL     1      -5.696   9.440  66.842  1.00  0.00    -0.051 C  
HETATM    6  N   UNL     1      -7.141   9.537  66.628  1.00  0.00    -0.085 N  
HETATM    7  C   UNL     1      -7.787  10.754  66.842  1.00  0.00    -0.130 C  
HETATM    8  O   UNL     1      -7.157  11.807  66.899  1.00  0.00    -0.140 OA 
HETATM    9  C   UNL     1      -9.253  10.609  67.281  1.00  0.00    -0.143 C  
HETATM   10  C   UNL     1      -9.884  11.672  67.840  1.00  0.00    -0.184 C  
HETATM   11  N   UNL     1      -8.987   8.147  67.164  1.00  0.00    -0.136 NA 
HETATM   12  C   UNL     1     -11.276  11.438  68.378  1.00  0.00    -0.263 C  
HETATM   13  O   UNL     1     -11.908  12.291  68.994  1.00  0.00    -0.306 OA 
HETATM   14  N   UNL     1      -9.817   9.311  67.300  1.00  0.00    -0.170 NA 
HETATM   15  C   UNL     1     -11.906  10.124  68.147  1.00  0.00     0.737 C  
HETATM   16  C   UNL     1     -11.147   9.158  67.628  1.00  0.00     0.232 C  
ENDROOT
BRANCH  10  17
HETATM   17  O   UNL     1      -9.232  12.865  68.081  1.00  0.00    -0.204 OA 
BRANCH  17  18
HETATM   18  C   UNL     1      -9.676  14.006  67.354  1.00  0.00    -0.233 C  
BRANCH  18  19
HETATM   19  O   UNL     1      -8.764  15.087  67.548  1.00  0.00    -0.169 OA 
BRANCH  19  20
HETATM   20  C   UNL     1      -8.955  16.093  66.664  1.00  0.00    -0.255 C  
HETATM   21  O   UNL     1     -10.031  16.552  66.309  1.00  0.00    -0.292 OA 
BRANCH  20  22
HETATM   22  O   UNL     1      -7.736  16.541  66.267  1.00  0.00    -0.291 OA 
HETATM   23  C   UNL     1      -7.606  17.956  66.323  1.00  0.00    -0.280 C  
ENDBRANCH  20  22
ENDBRANCH  19  20
ENDBRANCH  18  19
ENDBRANCH  17  18
ENDBRANCH  10  17
BRANCH  11  24
HETATM   24  C   UNL     1      -8.783   7.282  68.414  1.00  0.00    -0.122 C  
HETATM   25  C   UNL     1      -9.477   7.750  69.744  1.00  0.00    -0.160 A  
HETATM   26  C   UNL     1     -10.173   8.965  69.859  1.00  0.00    -0.209 A  
HETATM   27  C   UNL     1     -10.854   9.439  70.984  1.00  0.00    -0.406 A  
HETATM   28  C   UNL     1     -10.827   8.686  72.119  1.00  0.00    -0.354 A  
HETATM   29  C   UNL     1     -10.100   7.512  72.117  1.00  0.00    -0.194 A  
HETATM   30  F   UNL     1     -11.511   9.083  73.199  1.00  0.00     0.335 F  
HETATM   31  F   UNL     1     -10.071   6.776  73.239  1.00  0.00    -0.173 F  
HETATM   32  C   UNL     1      -9.402   7.050  70.963  1.00  0.00    -0.159 A  
HETATM   33  C   UNL     1      -8.748   5.713  71.062  1.00  0.00    -0.134 C  
HETATM   34  S   UNL     1      -9.935   4.543  70.380  1.00  0.00    -0.167 SA 
HETATM   35  C   UNL     1      -9.532   4.695  68.649  1.00  0.00    -0.152 A  
HETATM   36  C   UNL     1      -9.802   3.482  67.971  1.00  0.00     0.063 A  
HETATM   37  C   UNL     1      -9.344   3.239  66.687  1.00  0.00    -0.159 A  
HETATM   38  C   UNL     1      -8.543   4.190  66.083  1.00  0.00    -0.113 A  
HETATM   39  C   UNL     1      -8.316   5.425  66.719  1.00  0.00    -0.108 A  
HETATM   40  C   UNL     1      -8.893   5.759  67.976  1.00  0.00    -0.109 A  
ENDBRANCH  11  24
TORSDOF 6
ENDMDL
MODEL      118
REMARK 921   NORMALIZED FREE ENERGY PREDICTED BY IDOCK:    2.16 KCAL/MOL
REMARK 922        TOTAL FREE ENERGY PREDICTED BY IDOCK:    2.17 KCAL/MOL
REMARK 923 INTER-LIGAND FREE ENERGY PREDICTED BY IDOCK:   -1.85 KCAL/MOL
REMARK 924 INTRA-LIGAND FREE ENERGY PREDICTED BY IDOCK:    4.02 KCAL/MOL
REMARK 927      BINDING AFFINITY PREDICTED BY RF-SCORE:    0.00 PKD
ROOT
HETATM    1  C   UNL     1     -11.601  12.346  65.594  1.00  0.00    -0.392 C  
HETATM    2  C   UNL     1     -11.442  12.578  64.062  1.00  0.00    -0.409 C  
HETATM    3  O   UNL     1     -11.777  13.902  63.623  1.00  0.00    -0.204 OA 
HETATM    4  C   UNL     1     -11.067  14.865  64.399  1.00  0.00    -0.108 C  
HETATM    5  C   UNL     1     -11.589  14.868  65.829  1.00  0.00    -0.234 C  
HETATM    6  N   UNL     1     -11.810  13.535  66.392  1.00  0.00    -0.372 N  
HETATM    7  C   UNL     1     -12.230  13.409  67.716  1.00  0.00    -0.130 C  
HETATM    8  O   UNL     1     -12.716  14.360  68.322  1.00  0.00     0.289 OA 
HETATM    9  C   UNL     1     -11.765  12.110  68.393  1.00  0.00    -0.332 C  
HETATM   10  C   UNL     1     -11.810  12.016  69.746  1.00  0.00    -0.331 C  
HETATM   11  N   UNL     1     -10.632  11.479  66.281  1.00  0.00    -0.255 NA 
HETATM   12  C   UNL     1     -11.215  10.776  70.368  1.00  0.00    -0.186 C  
HETATM   13  O   UNL     1     -11.105  10.621  71.581  1.00  0.00     0.958 OA 
HETATM   14  N   UNL     1     -11.092  11.150  67.600  1.00  0.00    -0.267 NA 
HETATM   15  C   UNL     1     -10.750   9.698  69.475  1.00  0.00    -0.252 C  
HETATM   16  C   UNL     1     -10.720   9.950  68.166  1.00  0.00    -0.233 C  
ENDROOT
BRANCH  10  17
HETATM   17  O   UNL     1     -12.207  13.075  70.539  1.00  0.00    -0.357 OA 
BRANCH  17  18
HETATM   18  C   UNL     1     -11.201  13.997  70.943  1.00  0.00     0.694 C  
BRANCH  18  19
HETATM   19  O   UNL     1     -10.982  14.959  69.911  1.00  0.00    -0.253 OA 
BRANCH  19  20
HETATM   20  C   UNL     1     -11.305  16.215  70.294  1.00  0.00    -0.353 C  
HETATM   21  O   UNL     1     -11.773  16.547  71.374  1.00  0.00    -0.359 OA 
BRANCH  20  22
HETATM   22  O   UNL     1     -10.978  17.059  69.282  1.00  0.00    -0.214 OA 
HETATM   23  C   UNL     1      -9.579  17.137  69.039  1.00  0.00    -0.189 C  
ENDBRANCH  20  22
ENDBRANCH  19  20
ENDBRANCH  18  19
ENDBRANCH  17  18
ENDBRANCH  10  17
BRANCH  11  24
HETATM   24  C   UNL     1      -9.119  11.629  66.083  1.00  0.00    -0.203 C  
HETATM   25  C   UNL     1      -8.422  12.884  66.725  1.00  0.00    -0.023 A  
HETATM   26  C   UNL     1      -9.134  13.910  67.367  1.00  0.00    -0.217 A  
HETATM   27  C   UNL     1      -8.596  15.035  68.000  1.00  0.00    -0.158 A  
HETATM   28  C   UNL     1      -7.244  15.204  67.977  1.00  0.00    -0.127 A  
HETATM   29  C   UNL     1      -6.474  14.280  67.300  1.00  0.00     0.357 A  
HETATM   30  F   UNL     1      -6.692  16.240  68.619  1.00  0.00    -0.122 F  
HETATM   31  F   UNL     1      -5.143  14.453  67.275  1.00  0.00     0.096 F  
HETATM   32  C   UNL     1      -7.041  13.145  66.650  1.00  0.00     1.251 A  
HETATM   33  C   UNL     1      -6.088  12.167  66.050  1.00  0.00     1.737 C  
HETATM   34  S   UNL     1      -5.852  10.893  67.300  1.00  0.00    -0.055 SA 
HETATM   35  C   UNL     1      -7.260   9.860  66.933  1.00  0.00    -0.090 A  
HETATM   36  C   UNL     1      -6.984   8.513  67.269  1.00  0.00    -0.075 A  
HETATM   37  C   UNL     1      -7.795   7.470  66.852  1.00  0.00    -0.111 A  
HETATM   38  C   UNL     1      -8.866   7.758  66.027  1.00  0.00    -0.189 A  
HETATM   39  C   UNL     1      -9.188   9.097  65.734  1.00  0.00    -0.294 A  
HETATM   40  C   UNL     1      -8.458  10.196  66.266  1.00  0.00    -0.132 A  
ENDBRANCH  11  24
TORSDOF 6
ENDMDL
MODEL      119
REMARK 921   NORMALIZED FREE ENERGY PREDICTED BY IDOCK:    2.16 KCAL/MOL
REMARK 922        TOTAL FREE ENERGY PREDICTED BY IDOCK:    2.19 KCAL/MOL
REMARK 923 INTER-LIGAND FREE ENERGY PREDICTED BY IDOCK:    2.82 KCAL/MOL
REMARK 924 INTRA-LIGAND FREE ENERGY PREDICTED BY IDOCK:   -0.63 KCAL/MOL
REMARK 927      BINDING AFFINITY PREDICTED BY RF-SCORE:    0.00 PKD
ROOT
HETATM    1  C   UNL     1      -8.636  10.837  65.273  1.00  0.00    -0.148 C  
HETATM    2  C   UNL     1      -9.052  11.905  64.218  1.00  0.00     0.488 C  
HETATM    3  O   UNL     1     -10.197  11.549  63.430  1.00  0.00    -0.355 OA 
HETATM    4  C   UNL     1     -11.276  11.174  64.282  1.00  0.00     0.009 C  
HETATM    5  C   UNL     1     -10.955   9.859  64.980  1.00  0.00     2.038 C  
HETATM    6  N   UNL     1      -9.587   9.768  65.494  1.00  0.00    -0.264 N  
HETATM    7  C   UNL     1      -9.194   8.635  66.204  1.00  0.00    -0.213 C  
HETATM    8  O   UNL     1      -9.840   7.592  66.149  1.00  0.00    -0.071 OA 
HETATM    9  C   UNL     1      -8.098   8.907  67.247  1.00  0.00    -0.104 C  
HETATM   10  C   UNL     1      -7.869   7.990  68.221  1.00  0.00    -0.123 C  
HETATM   11  N   UNL     1      -8.125  11.292  66.574  1.00  0.00    -0.166 NA 
HETATM   12  C   UNL     1      -6.879   8.366  69.298  1.00  0.00    -0.047 C  
HETATM   13  O   UNL     1      -6.663   7.665  70.283  1.00  0.00    -0.045 OA 
HETATM   14  N   UNL     1      -7.528  10.202  67.293  1.00  0.00    -0.090 NA 
HETATM   15  C   UNL     1      -6.134   9.630  69.156  1.00  0.00    -0.040 C  
HETATM   16  C   UNL     1      -6.501  10.456  68.175  1.00  0.00    -0.056 C  
ENDROOT
BRANCH  10  17
HETATM   17  O   UNL     1      -8.630   6.843  68.339  1.00  0.00    -0.125 OA 
BRANCH  17  18
HETATM   18  C   UNL     1      -7.935   5.601  68.361  1.00  0.00    -0.100 C  
BRANCH  18  19
HETATM   19  O   UNL     1      -7.421   5.312  67.061  1.00  0.00    -0.085 OA 
BRANCH  19  20
HETATM   20  C   UNL     1      -7.614   4.023  66.700  1.00  0.00    -0.088 C  
HETATM   21  O   UNL     1      -8.491   3.277  67.114  1.00  0.00    -0.093 OA 
BRANCH  20  22
HETATM   22  O   UNL     1      -6.689   3.707  65.758  1.00  0.00    -0.043 OA 
HETATM   23  C   UNL     1      -6.906   2.438  65.154  1.00  0.00    -0.043 C  
ENDBRANCH  20  22
ENDBRANCH  19  20
ENDBRANCH  18  19
ENDBRANCH  17  18
ENDBRANCH  10  17
BRANCH  11  24
HETATM   24  C   UNL     1      -8.835  12.371  67.398  1.00  0.00    -0.188 C  
HETATM   25  C   UNL     1      -9.886  11.897  68.468  1.00  0.00    -0.187 A  
HETATM   26  C   UNL     1     -10.273  10.555  68.617  1.00  0.00    -0.197 A  
HETATM   27  C   UNL     1     -11.163  10.038  69.564  1.00  0.00    -0.254 A  
HETATM   28  C   UNL     1     -11.766  10.907  70.423  1.00  0.00    -0.350 A  
HETATM   29  C   UNL     1     -11.501  12.256  70.294  1.00  0.00     0.185 A  
HETATM   30  F   UNL     1     -12.583  10.442  71.376  1.00  0.00    -0.392 F  
HETATM   31  F   UNL     1     -12.102  13.110  71.138  1.00  0.00    -0.404 F  
HETATM   32  C   UNL     1     -10.599  12.765  69.314  1.00  0.00     0.117 A  
HETATM   33  C   UNL     1     -10.318  14.230  69.354  1.00  0.00     0.026 C  
HETATM   34  S   UNL     1      -8.811  14.406  70.324  1.00  0.00     2.163 SA 
HETATM   35  C   UNL     1      -7.604  14.133  69.038  1.00  0.00    -0.058 A  
HETATM   36  C   UNL     1      -6.410  14.837  69.325  1.00  0.00    -0.115 A  
HETATM   37  C   UNL     1      -5.413  15.011  68.379  1.00  0.00    -0.109 A  
HETATM   38  C   UNL     1      -5.630  14.537  67.099  1.00  0.00     0.875 A  
HETATM   39  C   UNL     1      -6.784  13.783  66.815  1.00  0.00     1.629 A  
HETATM   40  C   UNL     1      -7.757  13.465  67.804  1.00  0.00    -0.161 A  
ENDBRANCH  11  24
TORSDOF 6
ENDMDL
MODEL      120
REMARK 921   NORMALIZED FREE ENERGY PREDICTED BY IDOCK:    2.19 KCAL/MOL
REMARK 922        TOTAL FREE ENERGY PREDICTED BY IDOCK:    2.22 KCAL/MOL
REMARK 923 INTER-LIGAND FREE ENERGY PREDICTED BY IDOCK:    2.90 KCAL/MOL
REMARK 924 INTRA-LIGAND FREE ENERGY PREDICTED BY IDOCK:   -0.68 KCAL/MOL
REMARK 927      BINDING AFFINITY PREDICTED BY RF-SCORE:    0.00 PKD
ROOT
HETATM    1  C   UNL     1      -9.735  15.868  67.577  1.00  0.00    -0.223 C  
HETATM    2  C   UNL     1     -10.969  16.670  67.067  1.00  0.00     0.015 C  
HETATM    3  O   UNL     1     -11.251  16.503  65.671  1.00  0.00     0.027 OA 
HETATM    4  C   UNL     1     -11.332  15.115  65.353  1.00  0.00    -0.298 C  
HETATM    5  C   UNL     1      -9.956  14.473  65.474  1.00  0.00    -0.342 C  
HETATM    6  N   UNL     1      -9.203  14.882  66.660  1.00  0.00    -0.261 N  
HETATM    7  C   UNL     1      -7.954  14.315  66.910  1.00  0.00     0.165 C  
HETATM    8  O   UNL     1      -7.332  13.730  66.027  1.00  0.00     2.437 OA 
HETATM    9  C   UNL     1      -7.596  14.238  68.403  1.00  0.00    -0.124 C  
HETATM   10  C   UNL     1      -6.588  13.421  68.800  1.00  0.00    -0.102 C  
HETATM   11  N   UNL     1      -9.781  15.284  68.926  1.00  0.00    -0.210 NA 
HETATM   12  C   UNL     1      -6.367  13.277  70.287  1.00  0.00     0.076 C  
HETATM   13  O   UNL     1      -5.556  12.492  70.771  1.00  0.00    -0.168 OA 
HETATM   14  N   UNL     1      -8.477  14.842  69.332  1.00  0.00    -0.051 NA 
HETATM   15  C   UNL     1      -7.159  14.123  71.199  1.00  0.00     1.797 C  
HETATM   16  C   UNL     1      -8.149  14.843  70.670  1.00  0.00     1.637 C  
ENDROOT
BRANCH  10  17
HETATM   17  O   UNL     1      -5.911  12.610  67.910  1.00  0.00    -0.084 OA 
BRANCH  17  18
HETATM   18  C   UNL     1      -6.343  11.258  67.804  1.00  0.00    -0.056 C  
BRANCH  18  19
HETATM   19  O   UNL     1      -5.652  10.611  66.736  1.00  0.00    -0.049 OA 
BRANCH  19  20
HETATM   20  C   UNL     1      -6.473   9.872  65.956  1.00  0.00    -0.084 C  
HETATM   21  O   UNL     1      -6.551   9.919  64.737  1.00  0.00    -0.107 OA 
BRANCH  20  22
HETATM   22  O   UNL     1      -7.172   9.031  66.761  1.00  0.00    -0.084 OA 
HETATM   23  C   UNL     1      -6.699   7.689  66.724  1.00  0.00    -0.066 C  
ENDBRANCH  20  22
ENDBRANCH  19  20
ENDBRANCH  18  19
ENDBRANCH  17  18
ENDBRANCH  10  17
BRANCH  11  24
HETATM   24  C   UNL     1     -10.983  14.472  69.423  1.00  0.00    -0.249 C  
HETATM   25  C   UNL     1     -10.892  12.905  69.330  1.00  0.00    -0.040 A  
HETATM   26  C   UNL     1      -9.819  12.236  68.718  1.00  0.00    -0.018 A  
HETATM   27  C   UNL     1      -9.635  10.852  68.627  1.00  0.00    -0.192 A  
HETATM   28  C   UNL     1     -10.599  10.039  69.143  1.00  0.00    -0.218 A  
HETATM   29  C   UNL     1     -11.727  10.615  69.694  1.00  0.00    -0.296 A  
HETATM   30  F   UNL     1     -10.431   8.711  69.120  1.00  0.00    -0.209 F  
HETATM   31  F   UNL     1     -12.677   9.810  70.195  1.00  0.00    -0.096 F  
HETATM   32  C   UNL     1     -11.901  12.028  69.767  1.00  0.00    -0.401 A  
HETATM   33  C   UNL     1     -13.113  12.520  70.486  1.00  0.00     0.488 C  
HETATM   34  S   UNL     1     -12.572  12.853  72.171  1.00  0.00     0.365 SA 
HETATM   35  C   UNL     1     -11.938  14.506  71.953  1.00  0.00    -0.167 A  
HETATM   36  C   UNL     1     -12.063  15.246  73.153  1.00  0.00    -0.537 A  
HETATM   37  C   UNL     1     -11.893  16.620  73.192  1.00  0.00    -0.283 A  
HETATM   38  C   UNL     1     -11.659  17.288  72.005  1.00  0.00     1.301 A  
HETATM   39  C   UNL     1     -11.473  16.562  70.814  1.00  0.00    -0.045 A  
HETATM   40  C   UNL     1     -11.499  15.140  70.769  1.00  0.00    -0.350 A  
ENDBRANCH  11  24
TORSDOF 6
ENDMDL
MODEL      121
REMARK 921   NORMALIZED FREE ENERGY PREDICTED BY IDOCK:    2.36 KCAL/MOL
REMARK 922        TOTAL FREE ENERGY PREDICTED BY IDOCK:    2.45 KCAL/MOL
REMARK 923 INTER-LIGAND FREE ENERGY PREDICTED BY IDOCK:    0.90 KCAL/MOL
REMARK 924 INTRA-LIGAND FREE ENERGY PREDICTED BY IDOCK:    1.55 KCAL/MOL
REMARK 927      BINDING AFFINITY PREDICTED BY RF-SCORE:    0.00 PKD
ROOT
HETATM    1  C   UNL     1     -12.056   9.636  68.631  1.00  0.00     1.726 C  
HETATM    2  C   UNL     1     -12.366  10.605  67.452  1.00  0.00     3.102 C  
HETATM    3  O   UNL     1     -12.359  11.995  67.807  1.00  0.00    -0.340 OA 
HETATM    4  C   UNL     1     -11.144  12.320  68.477  1.00  0.00    -0.249 C  
HETATM    5  C   UNL     1     -11.106  11.647  69.842  1.00  0.00     0.048 C  
HETATM    6  N   UNL     1     -11.558  10.256  69.841  1.00  0.00    -0.261 N  
HETATM    7  C   UNL     1     -11.513   9.516  71.022  1.00  0.00    -0.349 C  
HETATM    8  O   UNL     1     -11.404  10.068  72.114  1.00  0.00     0.557 OA 
HETATM    9  C   UNL     1     -11.314   8.008  70.802  1.00  0.00    -0.272 C  
HETATM   10  C   UNL     1     -10.919   7.234  71.845  1.00  0.00    -0.230 C  
HETATM   11  N   UNL     1     -11.266   8.426  68.360  1.00  0.00     0.421 NA 
HETATM   12  C   UNL     1     -10.606   5.788  71.545  1.00  0.00    -0.246 C  
HETATM   13  O   UNL     1     -10.144   5.015  72.380  1.00  0.00    -0.174 OA 
HETATM   14  N   UNL     1     -11.325   7.521  69.474  1.00  0.00     0.053 NA 
HETATM   15  C   UNL     1     -10.873   5.279  70.187  1.00  0.00    -0.093 C  
HETATM   16  C   UNL     1     -11.213   6.166  69.251  1.00  0.00    -0.367 C  
ENDROOT
BRANCH  10  17
HETATM   17  O   UNL     1     -10.632   7.770  73.085  1.00  0.00    -0.359 OA 
BRANCH  17  18
HETATM   18  C   UNL     1      -9.291   8.183  73.321  1.00  0.00    -0.238 C  
BRANCH  18  19
HETATM   19  O   UNL     1      -8.391   7.139  72.948  1.00  0.00    -0.105 OA 
BRANCH  19  20
HETATM   20  C   UNL     1      -7.227   7.187  73.635  1.00  0.00    -0.079 C  
HETATM   21  O   UNL     1      -6.615   6.232  74.092  1.00  0.00    -0.070 OA 
BRANCH  20  22
HETATM   22  O   UNL     1      -6.826   8.483  73.693  1.00  0.00    -0.207 OA 
HETATM   23  C   UNL     1      -5.469   8.674  73.310  1.00  0.00    -0.078 C  
ENDBRANCH  20  22
ENDBRANCH  19  20
ENDBRANCH  18  19
ENDBRANCH  17  18
ENDBRANCH  10  17
BRANCH  11  24
HETATM   24  C   UNL     1      -9.960   8.466  67.559  1.00  0.00    -0.200 C  
HETATM   25  C   UNL     1      -8.713   9.148  68.232  1.00  0.00    -0.129 A  
HETATM   26  C   UNL     1      -8.778   9.808  69.470  1.00  0.00    -0.193 A  
HETATM   27  C   UNL     1      -7.717  10.403  70.160  1.00  0.00     0.129 A  
HETATM   28  C   UNL     1      -6.484  10.393  69.580  1.00  0.00    -0.065 A  
HETATM   29  C   UNL     1      -6.347   9.832  68.325  1.00  0.00    -0.055 A  
HETATM   30  F   UNL     1      -5.436  10.906  70.235  1.00  0.00    -0.049 F  
HETATM   31  F   UNL     1      -5.132   9.830  67.755  1.00  0.00    -0.036 F  
HETATM   32  C   UNL     1      -7.443   9.241  67.632  1.00  0.00    -0.088 A  
HETATM   33  C   UNL     1      -7.137   8.573  66.334  1.00  0.00    -0.079 C  
HETATM   34  S   UNL     1      -6.903   6.832  66.729  1.00  0.00    -0.063 SA 
HETATM   35  C   UNL     1      -8.604   6.293  66.691  1.00  0.00    -0.119 A  
HETATM   36  C   UNL     1      -8.682   4.932  66.311  1.00  0.00    -0.115 A  
HETATM   37  C   UNL     1      -9.879   4.336  65.953  1.00  0.00    -0.230 A  
HETATM   38  C   UNL     1     -11.016   5.120  65.902  1.00  0.00     0.026 A  
HETATM   39  C   UNL     1     -10.967   6.459  66.334  1.00  0.00     0.210 A  
HETATM   40  C   UNL     1      -9.781   7.058  66.845  1.00  0.00    -0.228 A  
ENDBRANCH  11  24
TORSDOF 6
ENDMDL
MODEL      122
REMARK 921   NORMALIZED FREE ENERGY PREDICTED BY IDOCK:    2.43 KCAL/MOL
REMARK 922        TOTAL FREE ENERGY PREDICTED BY IDOCK:    2.54 KCAL/MOL
REMARK 923 INTER-LIGAND FREE ENERGY PREDICTED BY IDOCK:   -2.03 KCAL/MOL
REMARK 924 INTRA-LIGAND FREE ENERGY PREDICTED BY IDOCK:    4.57 KCAL/MOL
REMARK 927      BINDING AFFINITY PREDICTED BY RF-SCORE:    0.00 PKD
ROOT
HETATM    1  C   UNL     1      -9.743   8.990  71.787  1.00  0.00    -0.241 C  
HETATM    2  C   UNL     1     -10.389   7.905  72.699  1.00  0.00    -0.308 C  
HETATM    3  O   UNL     1     -11.823   7.911  72.707  1.00  0.00    -0.340 OA 
HETATM    4  C   UNL     1     -12.318   7.867  71.371  1.00  0.00    -0.312 C  
HETATM    5  C   UNL     1     -12.003   9.174  70.656  1.00  0.00    -0.124 C  
HETATM    6  N   UNL     1     -10.649   9.677  70.890  1.00  0.00    -0.320 N  
HETATM    7  C   UNL     1     -10.224  10.836  70.241  1.00  0.00     0.627 C  
HETATM    8  O   UNL     1     -11.030  11.612  69.733  1.00  0.00    -0.108 OA 
HETATM    9  C   UNL     1      -8.711  10.879  69.975  1.00  0.00     1.127 C  
HETATM   10  C   UNL     1      -8.223  11.766  69.072  1.00  0.00     0.157 C  
HETATM   11  N   UNL     1      -8.514   8.656  71.054  1.00  0.00    -0.147 NA 
HETATM   12  C   UNL     1      -6.751  11.674  68.747  1.00  0.00    -0.077 C  
HETATM   13  O   UNL     1      -6.214  12.352  67.875  1.00  0.00    -0.070 OA 
HETATM   14  N   UNL     1      -7.911   9.840  70.508  1.00  0.00    -0.258 NA 
HETATM   15  C   UNL     1      -5.920  10.731  69.518  1.00  0.00    -0.051 C  
HETATM   16  C   UNL     1      -6.545   9.887  70.339  1.00  0.00    -0.125 C  
ENDROOT
BRANCH  10  17
HETATM   17  O   UNL     1      -9.051  12.593  68.338  1.00  0.00    -0.190 OA 
BRANCH  17  18
HETATM   18  C   UNL     1     -10.249  13.036  68.967  1.00  0.00     0.119 C  
BRANCH  18  19
HETATM   19  O   UNL     1      -9.935  13.948  70.019  1.00  0.00     0.949 OA 
BRANCH  19  20
HETATM   20  C   UNL     1     -10.719  15.049  70.004  1.00  0.00    -0.192 C  
HETATM   21  O   UNL     1     -11.678  15.267  70.731  1.00  0.00    -0.283 OA 
BRANCH  20  22
HETATM   22  O   UNL     1     -10.230  15.900  69.066  1.00  0.00    -0.204 OA 
HETATM   23  C   UNL     1     -11.031  17.061  68.881  1.00  0.00    -0.141 C  
ENDBRANCH  20  22
ENDBRANCH  19  20
ENDBRANCH  18  19
ENDBRANCH  17  18
ENDBRANCH  10  17
BRANCH  11  24
HETATM   24  C   UNL     1      -8.371   7.361  70.247  1.00  0.00    -0.134 C  
HETATM   25  C   UNL     1      -8.376   7.475  68.679  1.00  0.00    -0.129 A  
HETATM   26  C   UNL     1      -8.613   8.682  68.000  1.00  0.00    -0.137 A  
HETATM   27  C   UNL     1      -8.594   8.885  66.617  1.00  0.00    -0.130 A  
HETATM   28  C   UNL     1      -8.363   7.811  65.811  1.00  0.00    -0.137 A  
HETATM   29  C   UNL     1      -8.196   6.570  66.394  1.00  0.00    -0.116 A  
HETATM   30  F   UNL     1      -8.286   7.978  64.485  1.00  0.00    -0.142 F  
HETATM   31  F   UNL     1      -7.975   5.513  65.596  1.00  0.00    -0.097 F  
HETATM   32  C   UNL     1      -8.230   6.381  67.806  1.00  0.00    -0.118 A  
HETATM   33  C   UNL     1      -7.926   5.010  68.309  1.00  0.00    -0.086 C  
HETATM   34  S   UNL     1      -6.170   5.019  68.706  1.00  0.00    -0.032 SA 
HETATM   35  C   UNL     1      -6.248   5.690  70.358  1.00  0.00    -0.027 A  
HETATM   36  C   UNL     1      -5.167   5.210  71.137  1.00  0.00    -0.004 A  
HETATM   37  C   UNL     1      -5.129   5.361  72.513  1.00  0.00    -0.016 A  
HETATM   38  C   UNL     1      -6.214   5.940  73.143  1.00  0.00    -0.058 A  
HETATM   39  C   UNL     1      -7.268   6.475  72.378  1.00  0.00    -0.082 A  
HETATM   40  C   UNL     1      -7.267   6.464  70.955  1.00  0.00    -0.071 A  
ENDBRANCH  11  24
TORSDOF 6
ENDMDL
MODEL      123
REMARK 921   NORMALIZED FREE ENERGY PREDICTED BY IDOCK:    2.50 KCAL/MOL
REMARK 922        TOTAL FREE ENERGY PREDICTED BY IDOCK:    2.64 KCAL/MOL
REMARK 923 INTER-LIGAND FREE ENERGY PREDICTED BY IDOCK:   -5.56 KCAL/MOL
REMARK 924 INTRA-LIGAND FREE ENERGY PREDICTED BY IDOCK:    8.20 KCAL/MOL
REMARK 927      BINDING AFFINITY PREDICTED BY RF-SCORE:    0.00 PKD
ROOT
HETATM    1  C   UNL     1      -9.123   6.846  70.977  1.00  0.00    -0.155 C  
HETATM    2  C   UNL     1      -9.445   7.789  72.173  1.00  0.00    -0.164 C  
HETATM    3  O   UNL     1      -8.310   8.140  72.977  1.00  0.00    -0.171 OA 
HETATM    4  C   UNL     1      -7.265   8.645  72.149  1.00  0.00    -0.023 C  
HETATM    5  C   UNL     1      -6.702   7.526  71.282  1.00  0.00    -0.049 C  
HETATM    6  N   UNL     1      -7.717   6.659  70.684  1.00  0.00    -0.102 N  
HETATM    7  C   UNL     1      -7.326   5.635  69.822  1.00  0.00    -0.070 C  
HETATM    8  O   UNL     1      -6.163   5.240  69.790  1.00  0.00    -0.023 OA 
HETATM    9  C   UNL     1      -8.378   5.284  68.759  1.00  0.00    -0.092 C  
HETATM   10  C   UNL     1      -8.004   4.563  67.671  1.00  0.00    -0.096 C  
HETATM   11  N   UNL     1      -9.848   7.037  69.712  1.00  0.00    -0.168 NA 
HETATM   12  C   UNL     1      -9.041   4.363  66.592  1.00  0.00    -0.127 C  
HETATM   13  O   UNL     1      -8.795   3.818  65.519  1.00  0.00    -0.115 OA 
HETATM   14  N   UNL     1      -9.640   5.919  68.835  1.00  0.00    -0.129 NA 
HETATM   15  C   UNL     1     -10.414   4.840  66.840  1.00  0.00    -0.140 C  
HETATM   16  C   UNL     1     -10.623   5.577  67.932  1.00  0.00    -0.145 C  
ENDROOT
BRANCH  10  17
HETATM   17  O   UNL     1      -6.693   4.184  67.461  1.00  0.00    -0.045 OA 
BRANCH  17  18
HETATM   18  C   UNL     1      -6.194   4.278  66.131  1.00  0.00    -0.032 C  
BRANCH  18  19
HETATM   19  O   UNL     1      -7.124   3.688  65.223  1.00  0.00    -0.063 OA 
BRANCH  19  20
HETATM   20  C   UNL     1      -6.596   2.650  64.537  1.00  0.00    -0.031 C  
HETATM   21  O   UNL     1      -5.419   2.503  64.237  1.00  0.00    -0.008 OA 
BRANCH  20  22
HETATM   22  O   UNL     1      -7.594   1.768  64.275  1.00  0.00    -0.057 OA 
HETATM   23  C   UNL     1      -8.549   2.255  63.339  1.00  0.00    -0.085 C  
ENDBRANCH  20  22
ENDBRANCH  19  20
ENDBRANCH  18  19
ENDBRANCH  17  18
ENDBRANCH  10  17
BRANCH  11  24
HETATM   24  C   UNL     1     -10.009   8.417  69.064  1.00  0.00    -0.190 C  
HETATM   25  C   UNL     1     -11.001   9.429  69.743  1.00  0.00    -0.234 A  
HETATM   26  C   UNL     1     -11.814   9.087  70.837  1.00  0.00    -0.302 A  
HETATM   27  C   UNL     1     -12.689   9.931  71.528  1.00  0.00    -0.515 A  
HETATM   28  C   UNL     1     -12.820  11.217  71.096  1.00  0.00    -0.374 A  
HETATM   29  C   UNL     1     -12.115  11.615  69.978  1.00  0.00    -0.319 A  
HETATM   30  F   UNL     1     -13.609  12.066  71.766  1.00  0.00    -0.425 F  
HETATM   31  F   UNL     1     -12.251  12.881  69.553  1.00  0.00    -0.326 F  
HETATM   32  C   UNL     1     -11.235  10.737  69.280  1.00  0.00    -0.333 A  
HETATM   33  C   UNL     1     -10.450  11.325  68.156  1.00  0.00    -0.189 C  
HETATM   34  S   UNL     1      -8.860  11.784  68.865  1.00  0.00     0.241 SA 
HETATM   35  C   UNL     1      -8.018  10.217  68.733  1.00  0.00    -0.104 A  
HETATM   36  C   UNL     1      -6.625  10.416  68.584  1.00  0.00    -0.052 A  
HETATM   37  C   UNL     1      -5.772   9.394  68.202  1.00  0.00    -0.037 A  
HETATM   38  C   UNL     1      -6.317   8.161  67.895  1.00  0.00    -0.052 A  
HETATM   39  C   UNL     1      -7.692   7.931  68.096  1.00  0.00    -0.125 A  
HETATM   40  C   UNL     1      -8.567   8.920  68.624  1.00  0.00    -0.133 A  
ENDBRANCH  11  24
TORSDOF 6
ENDMDL
MODEL      124
REMARK 921   NORMALIZED FREE ENERGY PREDICTED BY IDOCK:    2.66 KCAL/MOL
REMARK 922        TOTAL FREE ENERGY PREDICTED BY IDOCK:    2.85 KCAL/MOL
REMARK 923 INTER-LIGAND FREE ENERGY PREDICTED BY IDOCK:    2.70 KCAL/MOL
REMARK 924 INTRA-LIGAND FREE ENERGY PREDICTED BY IDOCK:    0.15 KCAL/MOL
REMARK 927      BINDING AFFINITY PREDICTED BY RF-SCORE:    0.00 PKD
ROOT
HETATM    1  C   UNL     1      -6.021   5.722  67.948  1.00  0.00    -0.017 C  
HETATM    2  C   UNL     1      -5.889   4.393  68.749  1.00  0.00    -0.025 C  
HETATM    3  O   UNL     1      -5.315   4.541  70.056  1.00  0.00    -0.007 OA 
HETATM    4  C   UNL     1      -6.012   5.550  70.782  1.00  0.00    -0.025 C  
HETATM    5  C   UNL     1      -5.742   6.916  70.164  1.00  0.00    -0.023 C  
HETATM    6  N   UNL     1      -5.795   6.936  68.702  1.00  0.00    -0.018 N  
HETATM    7  C   UNL     1      -5.623   8.143  68.025  1.00  0.00    -0.034 C  
HETATM    8  O   UNL     1      -5.125   9.119  68.581  1.00  0.00    -0.034 OA 
HETATM    9  C   UNL     1      -6.361   8.209  66.679  1.00  0.00    -0.055 C  
HETATM   10  C   UNL     1      -6.556   9.416  66.090  1.00  0.00    -0.070 C  
HETATM   11  N   UNL     1      -7.197   5.912  67.086  1.00  0.00    -0.074 NA 
HETATM   12  C   UNL     1      -7.405   9.441  64.841  1.00  0.00    -0.106 C  
HETATM   13  O   UNL     1      -7.736  10.480  64.277  1.00  0.00    -0.085 OA 
HETATM   14  N   UNL     1      -7.012   7.040  66.218  1.00  0.00    -0.067 NA 
HETATM   15  C   UNL     1      -7.852   8.157  64.271  1.00  0.00    -0.137 C  
HETATM   16  C   UNL     1      -7.628   7.053  64.985  1.00  0.00    -0.104 C  
ENDROOT
BRANCH  10  17
HETATM   17  O   UNL     1      -6.163  10.595  66.692  1.00  0.00    -0.067 OA 
BRANCH  17  18
HETATM   18  C   UNL     1      -7.156  11.600  66.866  1.00  0.00    -0.124 C  
BRANCH  18  19
HETATM   19  O   UNL     1      -6.614  12.695  67.604  1.00  0.00    -0.111 OA 
BRANCH  19  20
HETATM   20  C   UNL     1      -7.313  13.838  67.428  1.00  0.00    -0.107 C  
HETATM   21  O   UNL     1      -6.911  14.974  67.638  1.00  0.00    -0.154 OA 
BRANCH  20  22
HETATM   22  O   UNL     1      -8.534  13.512  66.930  1.00  0.00    -0.160 OA 
HETATM   23  C   UNL     1      -9.387  14.635  66.741  1.00  0.00    -0.257 C  
ENDBRANCH  20  22
ENDBRANCH  19  20
ENDBRANCH  18  19
ENDBRANCH  17  18
ENDBRANCH  10  17
BRANCH  11  24
HETATM   24  C   UNL     1      -8.622   5.630  67.576  1.00  0.00    -0.108 C  
HETATM   25  C   UNL     1      -9.320   6.730  68.456  1.00  0.00    -0.126 A  
HETATM   26  C   UNL     1      -8.662   7.891  68.895  1.00  0.00    -0.135 A  
HETATM   27  C   UNL     1      -9.213   8.937  69.641  1.00  0.00    -0.152 A  
HETATM   28  C   UNL     1     -10.514   8.834  70.033  1.00  0.00    -0.212 A  
HETATM   29  C   UNL     1     -11.214   7.688  69.709  1.00  0.00    -0.029 A  
HETATM   30  F   UNL     1     -11.090   9.840  70.702  1.00  0.00    -0.285 F  
HETATM   31  F   UNL     1     -12.494   7.588  70.102  1.00  0.00     0.111 F  
HETATM   32  C   UNL     1     -10.631   6.627  68.957  1.00  0.00    -0.273 A  
HETATM   33  C   UNL     1     -11.529   5.496  68.581  1.00  0.00     1.436 C  
HETATM   34  S   UNL     1     -12.117   5.877  66.923  1.00  0.00     4.473 SA 
HETATM   35  C   UNL     1     -10.760   5.214  65.973  1.00  0.00    -0.140 A  
HETATM   36  C   UNL     1     -11.212   4.775  64.705  1.00  0.00     0.574 A  
HETATM   37  C   UNL     1     -10.429   3.989  63.876  1.00  0.00    -0.166 A  
HETATM   38  C   UNL     1      -9.196   3.570  64.338  1.00  0.00    -0.134 A  
HETATM   39  C   UNL     1      -8.707   4.046  65.570  1.00  0.00    -0.119 A  
HETATM   40  C   UNL     1      -9.428   4.970  66.377  1.00  0.00    -0.157 A  
ENDBRANCH  11  24
TORSDOF 6
ENDMDL
MODEL      125
REMARK 921   NORMALIZED FREE ENERGY PREDICTED BY IDOCK:    3.21 KCAL/MOL
REMARK 922        TOTAL FREE ENERGY PREDICTED BY IDOCK:    3.60 KCAL/MOL
REMARK 923 INTER-LIGAND FREE ENERGY PREDICTED BY IDOCK:    3.68 KCAL/MOL
REMARK 924 INTRA-LIGAND FREE ENERGY PREDICTED BY IDOCK:   -0.07 KCAL/MOL
REMARK 927      BINDING AFFINITY PREDICTED BY RF-SCORE:    0.00 PKD
ROOT
HETATM    1  C   UNL     1      -7.326  13.999  69.399  1.00  0.00     0.077 C  
HETATM    2  C   UNL     1      -6.580  15.203  70.048  1.00  0.00    -0.146 C  
HETATM    3  O   UNL     1      -5.387  15.604  69.360  1.00  0.00    -0.104 OA 
HETATM    4  C   UNL     1      -5.669  15.815  67.979  1.00  0.00    -0.130 C  
HETATM    5  C   UNL     1      -5.988  14.488  67.304  1.00  0.00     0.522 C  
HETATM    6  N   UNL     1      -6.873  13.617  68.078  1.00  0.00    -0.119 N  
HETATM    7  C   UNL     1      -7.285  12.400  67.537  1.00  0.00    -0.145 C  
HETATM    8  O   UNL     1      -6.696  11.895  66.585  1.00  0.00    -0.062 OA 
HETATM    9  C   UNL     1      -8.663  11.935  68.034  1.00  0.00    -0.173 C  
HETATM   10  C   UNL     1      -9.321  10.965  67.348  1.00  0.00    -0.155 C  
HETATM   11  N   UNL     1      -8.796  13.986  69.418  1.00  0.00     0.471 NA 
HETATM   12  C   UNL     1     -10.727  10.643  67.796  1.00  0.00    -0.257 C  
HETATM   13  O   UNL     1     -11.457   9.859  67.195  1.00  0.00     0.087 OA 
HETATM   14  N   UNL     1      -9.297  12.692  69.047  1.00  0.00     0.326 NA 
HETATM   15  C   UNL     1     -11.242  11.294  69.014  1.00  0.00    -0.321 C  
HETATM   16  C   UNL     1     -10.503  12.263  69.556  1.00  0.00     0.498 C  
ENDROOT
BRANCH  10  17
HETATM   17  O   UNL     1      -8.816  10.423  66.182  1.00  0.00    -0.150 OA 
BRANCH  17  18
HETATM   18  C   UNL     1      -9.092  11.117  64.970  1.00  0.00    -0.121 C  
BRANCH  18  19
HETATM   19  O   UNL     1     -10.108  10.430  64.241  1.00  0.00    -0.334 OA 
BRANCH  19  20
HETATM   20  C   UNL     1     -11.156  11.226  63.933  1.00  0.00    -0.238 C  
HETATM   21  O   UNL     1     -11.833  11.174  62.915  1.00  0.00     0.409 OA 
BRANCH  20  22
HETATM   22  O   UNL     1     -11.359  12.075  64.973  1.00  0.00    -0.322 OA 
HETATM   23  C   UNL     1     -12.638  12.698  64.955  1.00  0.00    -0.450 C  
ENDBRANCH  20  22
ENDBRANCH  19  20
ENDBRANCH  18  19
ENDBRANCH  17  18
ENDBRANCH  10  17
BRANCH  11  24
HETATM   24  C   UNL     1      -9.628  15.205  69.003  1.00  0.00    -0.229 C  
HETATM   25  C   UNL     1      -9.976  15.365  67.478  1.00  0.00    -0.226 A  
HETATM   26  C   UNL     1      -9.470  14.511  66.484  1.00  0.00    -0.310 A  
HETATM   27  C   UNL     1      -9.758  14.553  65.117  1.00  0.00     0.016 A  
HETATM   28  C   UNL     1     -10.582  15.537  64.661  1.00  0.00    -0.054 A  
HETATM   29  C   UNL     1     -11.063  16.467  65.561  1.00  0.00     0.038 A  
HETATM   30  F   UNL     1     -10.921  15.575  63.366  1.00  0.00     1.095 F  
HETATM   31  F   UNL     1     -11.870  17.439  65.107  1.00  0.00     0.869 F  
HETATM   32  C   UNL     1     -10.749  16.415  66.950  1.00  0.00    -0.202 A  
HETATM   33  C   UNL     1     -11.422  17.414  67.830  1.00  0.00     0.586 C  
HETATM   34  S   UNL     1     -12.876  16.579  68.487  1.00  0.00     3.646 SA 
HETATM   35  C   UNL     1     -12.130  15.745  69.877  1.00  0.00    -0.297 A  
HETATM   36  C   UNL     1     -13.077  15.573  70.915  1.00  0.00    -0.508 A  
HETATM   37  C   UNL     1     -12.704  15.195  72.195  1.00  0.00    -0.420 A  
HETATM   38  C   UNL     1     -11.359  15.049  72.473  1.00  0.00    -0.098 A  
HETATM   39  C   UNL     1     -10.410  15.158  71.438  1.00  0.00     0.930 A  
HETATM   40  C   UNL     1     -10.775  15.403  70.085  1.00  0.00    -0.326 A  
ENDBRANCH  11  24
TORSDOF 6
ENDMDL
MODEL      126
REMARK 921   NORMALIZED FREE ENERGY PREDICTED BY IDOCK:    3.32 KCAL/MOL
REMARK 922        TOTAL FREE ENERGY PREDICTED BY IDOCK:    3.75 KCAL/MOL
REMARK 923 INTER-LIGAND FREE ENERGY PREDICTED BY IDOCK:   -3.20 KCAL/MOL
REMARK 924 INTRA-LIGAND FREE ENERGY PREDICTED BY IDOCK:    6.94 KCAL/MOL
REMARK 927      BINDING AFFINITY PREDICTED BY RF-SCORE:    0.00 PKD
ROOT
HETATM    1  C   UNL     1      -7.894   7.668  65.953  1.00  0.00    -0.103 C  
HETATM    2  C   UNL     1      -7.072   6.355  65.784  1.00  0.00    -0.062 C  
HETATM    3  O   UNL     1      -5.671   6.556  65.554  1.00  0.00    -0.024 OA 
HETATM    4  C   UNL     1      -5.131   7.413  66.557  1.00  0.00    -0.023 C  
HETATM    5  C   UNL     1      -5.681   8.823  66.387  1.00  0.00    -0.046 C  
HETATM    6  N   UNL     1      -7.117   8.880  66.111  1.00  0.00    -0.084 N  
HETATM    7  C   UNL     1      -7.747  10.118  65.996  1.00  0.00    -0.120 C  
HETATM    8  O   UNL     1      -7.100  11.146  65.808  1.00  0.00     0.021 OA 
HETATM    9  C   UNL     1      -9.227  10.103  66.410  1.00  0.00    -0.158 C  
HETATM   10  C   UNL     1      -9.854  11.278  66.667  1.00  0.00    -0.205 C  
HETATM   11  N   UNL     1      -9.003   7.687  66.918  1.00  0.00    -0.132 NA 
HETATM   12  C   UNL     1     -11.264  11.201  67.203  1.00  0.00    -0.249 C  
HETATM   13  O   UNL     1     -11.897  12.187  67.568  1.00  0.00    -0.499 OA 
HETATM   14  N   UNL     1      -9.815   8.857  66.734  1.00  0.00    -0.217 NA 
HETATM   15  C   UNL     1     -11.911   9.878  67.286  1.00  0.00     2.423 C  
HETATM   16  C   UNL     1     -11.155   8.805  67.048  1.00  0.00     0.564 C  
ENDROOT
BRANCH  10  17
HETATM   17  O   UNL     1      -9.187  12.487  66.624  1.00  0.00    -0.222 OA 
BRANCH  17  18
HETATM   18  C   UNL     1      -9.573  13.406  65.607  1.00  0.00     0.013 C  
BRANCH  18  19
HETATM   19  O   UNL     1     -10.671  12.875  64.867  1.00  0.00    -0.288 OA 
BRANCH  19  20
HETATM   20  C   UNL     1     -10.315  12.468  63.628  1.00  0.00    -0.350 C  
HETATM   21  O   UNL     1      -9.182  12.215  63.245  1.00  0.00    -0.086 OA 
BRANCH  20  22
HETATM   22  O   UNL     1     -11.445  12.345  62.885  1.00  0.00    -0.118 OA 
HETATM   23  C   UNL     1     -12.564  11.877  63.628  1.00  0.00    -0.439 C  
ENDBRANCH  20  22
ENDBRANCH  19  20
ENDBRANCH  18  19
ENDBRANCH  17  18
ENDBRANCH  10  17
BRANCH  11  24
HETATM   24  C   UNL     1      -8.849   7.159  68.349  1.00  0.00    -0.127 C  
HETATM   25  C   UNL     1      -9.588   7.939  69.497  1.00  0.00    -0.160 A  
HETATM   26  C   UNL     1     -10.280   9.142  69.282  1.00  0.00    -0.215 A  
HETATM   27  C   UNL     1     -10.999   9.878  70.229  1.00  0.00    -0.366 A  
HETATM   28  C   UNL     1     -11.017   9.428  71.515  1.00  0.00    -0.359 A  
HETATM   29  C   UNL     1     -10.297   8.292  71.830  1.00  0.00    -0.255 A  
HETATM   30  F   UNL     1     -11.738  10.078  72.437  1.00  0.00     0.099 F  
HETATM   31  F   UNL     1     -10.313   7.856  73.100  1.00  0.00    -0.335 F  
HETATM   32  C   UNL     1      -9.561   7.562  70.852  1.00  0.00    -0.165 A  
HETATM   33  C   UNL     1      -8.919   6.293  71.302  1.00  0.00    -0.139 C  
HETATM   34  S   UNL     1     -10.087   4.987  70.889  1.00  0.00    -0.222 SA 
HETATM   35  C   UNL     1      -9.621   4.707  69.189  1.00  0.00    -0.175 A  
HETATM   36  C   UNL     1      -9.874   3.363  68.823  1.00  0.00     0.181 A  
HETATM   37  C   UNL     1      -9.371   2.812  67.656  1.00  0.00    -0.222 A  
HETATM   38  C   UNL     1      -8.543   3.587  66.865  1.00  0.00    -0.115 A  
HETATM   39  C   UNL     1      -8.332   4.941  67.184  1.00  0.00    -0.106 A  
HETATM   40  C   UNL     1      -8.952   5.574  68.297  1.00  0.00    -0.109 A  
ENDBRANCH  11  24
TORSDOF 6
ENDMDL
MODEL      127
REMARK 921   NORMALIZED FREE ENERGY PREDICTED BY IDOCK:    4.70 KCAL/MOL
REMARK 922        TOTAL FREE ENERGY PREDICTED BY IDOCK:    5.61 KCAL/MOL
REMARK 923 INTER-LIGAND FREE ENERGY PREDICTED BY IDOCK:   -2.60 KCAL/MOL
REMARK 924 INTRA-LIGAND FREE ENERGY PREDICTED BY IDOCK:    8.21 KCAL/MOL
REMARK 927      BINDING AFFINITY PREDICTED BY RF-SCORE:    0.00 PKD
ROOT
HETATM    1  C   UNL     1      -7.679   7.726  70.551  1.00  0.00    -0.088 C  
HETATM    2  C   UNL     1      -6.527   6.733  70.888  1.00  0.00    -0.052 C  
HETATM    3  O   UNL     1      -6.384   6.440  72.285  1.00  0.00    -0.051 OA 
HETATM    4  C   UNL     1      -7.637   6.027  72.826  1.00  0.00    -0.095 C  
HETATM    5  C   UNL     1      -8.605   7.203  72.850  1.00  0.00    -0.118 C  
HETATM    6  N   UNL     1      -8.597   8.015  71.633  1.00  0.00    -0.119 N  
HETATM    7  C   UNL     1      -9.484   9.083  71.514  1.00  0.00    -0.246 C  
HETATM    8  O   UNL     1     -10.046   9.556  72.498  1.00  0.00     0.908 OA 
HETATM    9  C   UNL     1      -9.895   9.390  70.065  1.00  0.00    -0.221 C  
HETATM   10  C   UNL     1     -10.988  10.161  69.836  1.00  0.00    -0.293 C  
HETATM   11  N   UNL     1      -8.451   7.519  69.318  1.00  0.00    -0.135 NA 
HETATM   12  C   UNL     1     -11.428  10.318  68.400  1.00  0.00    -0.091 C  
HETATM   13  O   UNL     1     -12.456  10.906  68.075  1.00  0.00     0.121 OA 
HETATM   14  N   UNL     1      -9.259   8.669  69.026  1.00  0.00    -0.145 NA 
HETATM   15  C   UNL     1     -10.579   9.744  67.340  1.00  0.00    -0.330 C  
HETATM   16  C   UNL     1      -9.562   8.967  67.715  1.00  0.00    -0.150 C  
ENDROOT
BRANCH  10  17
HETATM   17  O   UNL     1     -11.778  10.633  70.866  1.00  0.00    -0.328 OA 
BRANCH  17  18
HETATM   18  C   UNL     1     -12.527  11.818  70.620  1.00  0.00    -0.274 C  
BRANCH  18  19
HETATM   19  O   UNL     1     -11.643  12.891  70.296  1.00  0.00    -0.160 OA 
BRANCH  19  20
HETATM   20  C   UNL     1     -11.504  13.066  68.963  1.00  0.00    -0.303 C  
HETATM   21  O   UNL     1     -12.376  12.922  68.117  1.00  0.00    -0.077 OA 
BRANCH  20  22
HETATM   22  O   UNL     1     -10.231  13.475  68.723  1.00  0.00    -0.216 OA 
HETATM   23  C   UNL     1      -9.245  12.629  69.302  1.00  0.00     0.956 C  
ENDBRANCH  20  22
ENDBRANCH  19  20
ENDBRANCH  18  19
ENDBRANCH  17  18
ENDBRANCH  10  17
BRANCH  11  24
HETATM   24  C   UNL     1      -9.018   6.148  68.930  1.00  0.00    -0.124 C  
HETATM   25  C   UNL     1      -8.023   5.094  68.321  1.00  0.00    -0.087 A  
HETATM   26  C   UNL     1      -6.683   5.392  68.019  1.00  0.00    -0.055 A  
HETATM   27  C   UNL     1      -5.720   4.511  67.518  1.00  0.00    -0.022 A  
HETATM   28  C   UNL     1      -6.098   3.231  67.245  1.00  0.00    -0.028 A  
HETATM   29  C   UNL     1      -7.418   2.874  67.439  1.00  0.00    -0.061 A  
HETATM   30  F   UNL     1      -5.190   2.346  66.814  1.00  0.00    -0.007 F  
HETATM   31  F   UNL     1      -7.787   1.613  67.162  1.00  0.00    -0.061 F  
HETATM   32  C   UNL     1      -8.388   3.790  67.940  1.00  0.00    -0.100 A  
HETATM   33  C   UNL     1      -9.752   3.247  68.207  1.00  0.00     0.052 C  
HETATM   34  S   UNL     1      -9.767   2.818  69.956  1.00  0.00     0.232 SA 
HETATM   35  C   UNL     1     -10.185   4.411  70.643  1.00  0.00    -0.026 A  
HETATM   36  C   UNL     1     -10.896   4.253  71.857  1.00  0.00     0.276 A  
HETATM   37  C   UNL     1     -11.562   5.307  72.461  1.00  0.00    -0.166 A  
HETATM   38  C   UNL     1     -11.583   6.529  71.817  1.00  0.00    -0.359 A  
HETATM   39  C   UNL     1     -10.832   6.717  70.641  1.00  0.00    -0.292 A  
HETATM   40  C   UNL     1     -10.022   5.694  70.075  1.00  0.00    -0.267 A  
ENDBRANCH  11  24
TORSDOF 6
ENDMDL
MODEL      128
REMARK 921   NORMALIZED FREE ENERGY PREDICTED BY IDOCK:    4.80 KCAL/MOL
REMARK 922        TOTAL FREE ENERGY PREDICTED BY IDOCK:    5.75 KCAL/MOL
REMARK 923 INTER-LIGAND FREE ENERGY PREDICTED BY IDOCK:   -4.21 KCAL/MOL
REMARK 924 INTRA-LIGAND FREE ENERGY PREDICTED BY IDOCK:    9.96 KCAL/MOL
REMARK 927      BINDING AFFINITY PREDICTED BY RF-SCORE:    0.00 PKD
ROOT
HETATM    1  C   UNL     1      -8.806  12.553  67.948  1.00  0.00    -0.185 C  
HETATM    2  C   UNL     1      -9.785  13.721  67.628  1.00  0.00    -0.227 C  
HETATM    3  O   UNL     1     -10.079  13.885  66.234  1.00  0.00    -0.283 OA 
HETATM    4  C   UNL     1     -10.508  12.645  65.678  1.00  0.00    -0.275 C  
HETATM    5  C   UNL     1      -9.345  11.663  65.639  1.00  0.00    -0.180 C  
HETATM    6  N   UNL     1      -8.531  11.645  66.854  1.00  0.00    -0.164 N  
HETATM    7  C   UNL     1      -7.473  10.744  66.961  1.00  0.00    -0.114 C  
HETATM    8  O   UNL     1      -7.008  10.188  65.968  1.00  0.00    -0.102 OA 
HETATM    9  C   UNL     1      -7.169  10.311  68.404  1.00  0.00    -0.080 C  
HETATM   10  C   UNL     1      -6.411   9.206  68.618  1.00  0.00    -0.049 C  
HETATM   11  N   UNL     1      -9.021  11.768  69.173  1.00  0.00     0.288 NA 
HETATM   12  C   UNL     1      -6.257   8.746  70.048  1.00  0.00    -0.037 C  
HETATM   13  O   UNL     1      -5.681   7.707  70.359  1.00  0.00    -0.023 OA 
HETATM   14  N   UNL     1      -7.880  10.942  69.452  1.00  0.00    -0.093 NA 
HETATM   15  C   UNL     1      -6.819   9.588  71.120  1.00  0.00     0.008 C  
HETATM   16  C   UNL     1      -7.583  10.619  70.758  1.00  0.00     1.768 C  
ENDROOT
BRANCH  10  17
HETATM   17  O   UNL     1      -5.951   8.423  67.577  1.00  0.00    -0.045 OA 
BRANCH  17  18
HETATM   18  C   UNL     1      -6.909   7.624  66.892  1.00  0.00    -0.068 C  
BRANCH  18  19
HETATM   19  O   UNL     1      -7.229   6.474  67.675  1.00  0.00    -0.085 OA 
BRANCH  19  20
HETATM   20  C   UNL     1      -6.413   5.428  67.421  1.00  0.00    -0.051 C  
HETATM   21  O   UNL     1      -5.382   5.454  66.764  1.00  0.00    -0.008 OA 
BRANCH  20  22
HETATM   22  O   UNL     1      -6.912   4.340  68.063  1.00  0.00    -0.054 OA 
HETATM   23  C   UNL     1      -6.011   3.775  69.007  1.00  0.00    -0.023 C  
ENDBRANCH  20  22
ENDBRANCH  19  20
ENDBRANCH  18  19
ENDBRANCH  17  18
ENDBRANCH  10  17
BRANCH  11  24
HETATM   24  C   UNL     1     -10.398  11.213  69.556  1.00  0.00     0.021 C  
HETATM   25  C   UNL     1     -10.440   9.905  70.426  1.00  0.00    -0.347 A  
HETATM   26  C   UNL     1      -9.289   9.175  70.767  1.00  0.00    -0.325 A  
HETATM   27  C   UNL     1      -9.228   8.030  71.568  1.00  0.00    -0.188 A  
HETATM   28  C   UNL     1     -10.394   7.520  72.053  1.00  0.00    -0.199 A  
HETATM   29  C   UNL     1     -11.581   8.132  71.702  1.00  0.00    -0.279 A  
HETATM   30  F   UNL     1     -10.368   6.457  72.866  1.00  0.00    -0.182 F  
HETATM   31  F   UNL     1     -12.729   7.622  72.177  1.00  0.00    -0.307 F  
HETATM   32  C   UNL     1     -11.624   9.292  70.874  1.00  0.00    -0.364 A  
HETATM   33  C   UNL     1     -12.962   9.918  70.662  1.00  0.00    -0.120 C  
HETATM   34  S   UNL     1     -13.085  11.224  71.896  1.00  0.00    -0.256 SA 
HETATM   35  C   UNL     1     -12.250  12.534  71.019  1.00  0.00    -0.098 A  
HETATM   36  C   UNL     1     -12.753  13.795  71.418  1.00  0.00    -0.450 A  
HETATM   37  C   UNL     1     -12.471  14.955  70.717  1.00  0.00    -0.401 A  
HETATM   38  C   UNL     1     -11.728  14.858  69.555  1.00  0.00    -0.353 A  
HETATM   39  C   UNL     1     -11.171  13.622  69.178  1.00  0.00    -0.309 A  
HETATM   40  C   UNL     1     -11.324  12.441  69.956  1.00  0.00     0.024 A  
ENDBRANCH  11  24
TORSDOF 6
ENDMDL
MODEL      129
REMARK 921   NORMALIZED FREE ENERGY PREDICTED BY IDOCK:    4.91 KCAL/MOL
REMARK 922        TOTAL FREE ENERGY PREDICTED BY IDOCK:    5.90 KCAL/MOL
REMARK 923 INTER-LIGAND FREE ENERGY PREDICTED BY IDOCK:    2.23 KCAL/MOL
REMARK 924 INTRA-LIGAND FREE ENERGY PREDICTED BY IDOCK:    3.66 KCAL/MOL
REMARK 927      BINDING AFFINITY PREDICTED BY RF-SCORE:    0.00 PKD
ROOT
HETATM    1  C   UNL     1      -7.293  13.894  69.049  1.00  0.00    -0.055 C  
HETATM    2  C   UNL     1      -7.794  15.275  69.568  1.00  0.00    -0.204 C  
HETATM    3  O   UNL     1      -7.444  16.387  68.732  1.00  0.00    -0.181 OA 
HETATM    4  C   UNL     1      -7.845  16.131  67.389  1.00  0.00    -0.154 C  
HETATM    5  C   UNL     1      -6.994  15.015  66.797  1.00  0.00     0.954 C  
HETATM    6  N   UNL     1      -6.779  13.881  67.696  1.00  0.00    -0.178 N  
HETATM    7  C   UNL     1      -6.066  12.771  67.244  1.00  0.00    -0.035 C  
HETATM    8  O   UNL     1      -5.354  12.836  66.244  1.00  0.00     0.869 OA 
HETATM    9  C   UNL     1      -6.481  11.452  67.914  1.00  0.00    -0.058 C  
HETATM   10  C   UNL     1      -6.119  10.276  67.341  1.00  0.00    -0.054 C  
HETATM   11  N   UNL     1      -8.149  12.715  69.242  1.00  0.00     0.537 NA 
HETATM   12  C   UNL     1      -6.668   9.013  67.962  1.00  0.00    -0.068 C  
HETATM   13  O   UNL     1      -6.495   7.899  67.476  1.00  0.00    -0.053 OA 
HETATM   14  N   UNL     1      -7.419  11.509  68.973  1.00  0.00    -0.103 NA 
HETATM   15  C   UNL     1      -7.441   9.125  69.212  1.00  0.00    -0.075 C  
HETATM   16  C   UNL     1      -7.761  10.349  69.633  1.00  0.00    -0.144 C  
ENDROOT
BRANCH  10  17
HETATM   17  O   UNL     1      -5.438  10.227  66.141  1.00  0.00    -0.048 OA 
BRANCH  17  18
HETATM   18  C   UNL     1      -5.623   9.068  65.335  1.00  0.00    -0.046 C  
BRANCH  18  19
HETATM   19  O   UNL     1      -6.064   9.450  64.032  1.00  0.00    -0.085 OA 
BRANCH  19  20
HETATM   20  C   UNL     1      -6.586   8.416  63.336  1.00  0.00    -0.085 C  
HETATM   21  O   UNL     1      -5.960   7.520  62.787  1.00  0.00    -0.050 OA 
BRANCH  20  22
HETATM   22  O   UNL     1      -7.940   8.516  63.387  1.00  0.00    -0.147 OA 
HETATM   23  C   UNL     1      -8.518   7.820  64.485  1.00  0.00     0.108 C  
ENDBRANCH  20  22
ENDBRANCH  19  20
ENDBRANCH  18  19
ENDBRANCH  17  18
ENDBRANCH  10  17
BRANCH  11  24
HETATM   24  C   UNL     1      -9.642  12.724  68.893  1.00  0.00     0.236 C  
HETATM   25  C   UNL     1     -10.567  13.726  69.674  1.00  0.00     0.271 A  
HETATM   26  C   UNL     1     -10.108  14.521  70.738  1.00  0.00     1.525 A  
HETATM   27  C   UNL     1     -10.845  15.466  71.458  1.00  0.00     0.008 A  
HETATM   28  C   UNL     1     -12.161  15.631  71.146  1.00  0.00    -0.413 A  
HETATM   29  C   UNL     1     -12.714  14.833  70.164  1.00  0.00    -0.219 A  
HETATM   30  F   UNL     1     -12.883  16.563  71.779  1.00  0.00    -0.231 F  
HETATM   31  F   UNL     1     -14.013  14.994  69.865  1.00  0.00     0.618 F  
HETATM   32  C   UNL     1     -11.949  13.866  69.449  1.00  0.00    -0.402 A  
HETATM   33  C   UNL     1     -12.640  13.149  68.338  1.00  0.00     0.766 C  
HETATM   34  S   UNL     1     -12.230  14.064  66.842  1.00  0.00    -0.291 SA 
HETATM   35  C   UNL     1     -10.661  13.306  66.457  1.00  0.00    -0.285 A  
HETATM   36  C   UNL     1     -10.433  13.327  65.060  1.00  0.00    -0.367 A  
HETATM   37  C   UNL     1      -9.427  12.581  64.468  1.00  0.00     0.338 A  
HETATM   38  C   UNL     1      -8.672  11.743  65.266  1.00  0.00     0.431 A  
HETATM   39  C   UNL     1      -8.847  11.756  66.663  1.00  0.00    -0.189 A  
HETATM   40  C   UNL     1      -9.773  12.618  67.313  1.00  0.00    -0.207 A  
ENDBRANCH  11  24
TORSDOF 6
ENDMDL
MODEL      130
REMARK 921   NORMALIZED FREE ENERGY PREDICTED BY IDOCK:    5.00 KCAL/MOL
REMARK 922        TOTAL FREE ENERGY PREDICTED BY IDOCK:    6.02 KCAL/MOL
REMARK 923 INTER-LIGAND FREE ENERGY PREDICTED BY IDOCK:    1.51 KCAL/MOL
REMARK 924 INTRA-LIGAND FREE ENERGY PREDICTED BY IDOCK:    4.51 KCAL/MOL
REMARK 927      BINDING AFFINITY PREDICTED BY RF-SCORE:    0.00 PKD
ROOT
HETATM    1  C   UNL     1      -8.638  10.700  65.129  1.00  0.00    -0.167 C  
HETATM    2  C   UNL     1      -9.298  11.778  64.219  1.00  0.00     0.138 C  
HETATM    3  O   UNL     1     -10.565  11.397  63.667  1.00  0.00    -0.356 OA 
HETATM    4  C   UNL     1     -11.434  10.952  64.705  1.00  0.00     0.704 C  
HETATM    5  C   UNL     1     -10.931   9.632  65.275  1.00  0.00     2.330 C  
HETATM    6  N   UNL     1      -9.486   9.585  65.499  1.00  0.00    -0.255 N  
HETATM    7  C   UNL     1      -8.915   8.451  66.073  1.00  0.00    -0.184 C  
HETATM    8  O   UNL     1      -9.522   7.383  66.112  1.00  0.00    -0.125 OA 
HETATM    9  C   UNL     1      -7.641   8.739  66.882  1.00  0.00    -0.090 C  
HETATM   10  C   UNL     1      -7.186   7.805  67.756  1.00  0.00    -0.094 C  
HETATM   11  N   UNL     1      -7.889  11.139  66.315  1.00  0.00    -0.142 NA 
HETATM   12  C   UNL     1      -6.012   8.192  68.624  1.00  0.00    -0.044 C  
HETATM   13  O   UNL     1      -5.576   7.473  69.518  1.00  0.00    -0.022 OA 
HETATM   14  N   UNL     1      -7.121  10.055  66.859  1.00  0.00    -0.089 NA 
HETATM   15  C   UNL     1      -5.357   9.491  68.380  1.00  0.00    -0.036 C  
HETATM   16  C   UNL     1      -5.945  10.327  67.524  1.00  0.00    -0.053 C  
ENDROOT
BRANCH  10  17
HETATM   17  O   UNL     1      -7.866   6.625  67.983  1.00  0.00    -0.109 OA 
BRANCH  17  18
HETATM   18  C   UNL     1      -7.135   5.413  67.828  1.00  0.00    -0.067 C  
BRANCH  18  19
HETATM   19  O   UNL     1      -6.876   5.178  66.444  1.00  0.00    -0.059 OA 
BRANCH  19  20
HETATM   20  C   UNL     1      -7.085   3.892  66.087  1.00  0.00    -0.064 C  
HETATM   21  O   UNL     1      -7.831   3.097  66.641  1.00  0.00    -0.076 OA 
BRANCH  20  22
HETATM   22  O   UNL     1      -6.353   3.641  64.971  1.00  0.00    -0.026 OA 
HETATM   23  C   UNL     1      -6.634   2.377  64.380  1.00  0.00    -0.031 C  
ENDBRANCH  20  22
ENDBRANCH  19  20
ENDBRANCH  18  19
ENDBRANCH  17  18
ENDBRANCH  10  17
BRANCH  11  24
HETATM   24  C   UNL     1      -8.456  12.163  67.305  1.00  0.00    -0.178 C  
HETATM   25  C   UNL     1      -8.967  13.532  66.724  1.00  0.00    -0.188 A  
HETATM   26  C   UNL     1      -8.826  13.890  65.374  1.00  0.00     1.726 A  
HETATM   27  C   UNL     1      -9.287  15.062  64.764  1.00  0.00     1.801 A  
HETATM   28  C   UNL     1      -9.908  15.992  65.542  1.00  0.00    -0.189 A  
HETATM   29  C   UNL     1     -10.020  15.753  66.897  1.00  0.00    -0.243 A  
HETATM   30  F   UNL     1     -10.408  17.101  64.982  1.00  0.00    -0.092 F  
HETATM   31  F   UNL     1     -10.627  16.675  67.661  1.00  0.00    -0.296 F  
HETATM   32  C   UNL     1      -9.534  14.558  67.503  1.00  0.00    -0.203 A  
HETATM   33  C   UNL     1      -9.817  14.376  68.956  1.00  0.00    -0.101 C  
HETATM   34  S   UNL     1     -11.320  13.388  69.036  1.00  0.00    -0.296 SA 
HETATM   35  C   UNL     1     -10.606  11.759  68.895  1.00  0.00    -0.180 A  
HETATM   36  C   UNL     1     -11.409  10.808  69.568  1.00  0.00    -0.355 A  
HETATM   37  C   UNL     1     -10.961   9.526  69.837  1.00  0.00    -0.263 A  
HETATM   38  C   UNL     1      -9.664   9.195  69.494  1.00  0.00    -0.176 A  
HETATM   39  C   UNL     1      -8.873  10.109  68.771  1.00  0.00    -0.146 A  
HETATM   40  C   UNL     1      -9.357  11.381  68.354  1.00  0.00    -0.194 A  
ENDBRANCH  11  24
TORSDOF 6
ENDMDL
MODEL      131
REMARK 921   NORMALIZED FREE ENERGY PREDICTED BY IDOCK:    5.09 KCAL/MOL
REMARK 922        TOTAL FREE ENERGY PREDICTED BY IDOCK:    6.13 KCAL/MOL
REMARK 923 INTER-LIGAND FREE ENERGY PREDICTED BY IDOCK:    5.02 KCAL/MOL
REMARK 924 INTRA-LIGAND FREE ENERGY PREDICTED BY IDOCK:    1.11 KCAL/MOL
REMARK 927      BINDING AFFINITY PREDICTED BY RF-SCORE:    0.00 PKD
ROOT
HETATM    1  C   UNL     1     -11.701  14.684  66.582  1.00  0.00    -0.333 C  
HETATM    2  C   UNL     1     -12.040  13.591  65.525  1.00  0.00    -0.419 C  
HETATM    3  O   UNL     1     -11.582  13.885  64.198  1.00  0.00    -0.367 OA 
HETATM    4  C   UNL     1     -10.195  14.210  64.223  1.00  0.00     0.629 C  
HETATM    5  C   UNL     1      -9.986  15.543  64.929  1.00  0.00     0.179 C  
HETATM    6  N   UNL     1     -10.769  15.705  66.154  1.00  0.00    -0.314 N  
HETATM    7  C   UNL     1     -10.616  16.859  66.921  1.00  0.00    -0.214 C  
HETATM    8  O   UNL     1     -10.094  17.868  66.454  1.00  0.00    -0.337 OA 
HETATM    9  C   UNL     1     -10.879  16.648  68.420  1.00  0.00    -0.361 C  
HETATM   10  C   UNL     1     -10.445  17.581  69.306  1.00  0.00    -0.100 C  
HETATM   11  N   UNL     1     -11.349  14.261  67.946  1.00  0.00    -0.282 NA 
HETATM   12  C   UNL     1     -10.606  17.260  70.773  1.00  0.00     1.424 C  
HETATM   13  O   UNL     1     -10.163  17.976  71.667  1.00  0.00     3.433 OA 
HETATM   14  N   UNL     1     -11.355  15.384  68.841  1.00  0.00    -0.293 NA 
HETATM   15  C   UNL     1     -11.333  16.034  71.148  1.00  0.00    -0.413 C  
HETATM   16  C   UNL     1     -11.658  15.186  70.171  1.00  0.00    -0.292 C  
ENDROOT
BRANCH  10  17
HETATM   17  O   UNL     1      -9.723  18.688  68.906  1.00  0.00    -0.359 OA 
BRANCH  17  18
HETATM   18  C   UNL     1      -8.524  18.974  69.618  1.00  0.00     0.583 C  
BRANCH  18  19
HETATM   19  O   UNL     1      -7.408  18.405  68.934  1.00  0.00    -0.280 OA 
BRANCH  19  20
HETATM   20  C   UNL     1      -6.887  19.237  68.005  1.00  0.00    -0.238 C  
HETATM   21  O   UNL     1      -5.833  19.086  67.404  1.00  0.00    -0.174 OA 
BRANCH  20  22
HETATM   22  O   UNL     1      -7.763  20.259  67.818  1.00  0.00    -0.295 OA 
HETATM   23  C   UNL     1      -8.428  20.212  66.562  1.00  0.00    -0.258 C  
ENDBRANCH  20  22
ENDBRANCH  19  20
ENDBRANCH  18  19
ENDBRANCH  17  18
ENDBRANCH  10  17
BRANCH  11  24
HETATM   24  C   UNL     1     -10.326  13.152  68.218  1.00  0.00    -0.252 C  
HETATM   25  C   UNL     1      -8.904  13.583  68.730  1.00  0.00     0.104 A  
HETATM   26  C   UNL     1      -8.504  14.925  68.840  1.00  0.00    -0.174 A  
HETATM   27  C   UNL     1      -7.281  15.400  69.324  1.00  0.00    -0.186 A  
HETATM   28  C   UNL     1      -6.339  14.489  69.700  1.00  0.00    -0.141 A  
HETATM   29  C   UNL     1      -6.622  13.146  69.551  1.00  0.00    -0.034 A  
HETATM   30  F   UNL     1      -5.178  14.908  70.217  1.00  0.00    -0.100 F  
HETATM   31  F   UNL     1      -5.689  12.252  69.917  1.00  0.00    -0.078 F  
HETATM   32  C   UNL     1      -7.871  12.681  69.045  1.00  0.00     0.250 A  
HETATM   33  C   UNL     1      -8.087  11.205  69.039  1.00  0.00    -0.076 C  
HETATM   34  S   UNL     1      -8.970  10.840  70.566  1.00  0.00     2.835 SA 
HETATM   35  C   UNL     1     -10.638  11.163  70.023  1.00  0.00     0.352 A  
HETATM   36  C   UNL     1     -11.556  10.361  70.743  1.00  0.00    -0.450 A  
HETATM   37  C   UNL     1     -12.876  10.220  70.349  1.00  0.00    -0.202 A  
HETATM   38  C   UNL     1     -13.283  10.831  69.179  1.00  0.00     2.229 A  
HETATM   39  C   UNL     1     -12.400  11.680  68.485  1.00  0.00     0.329 A  
HETATM   40  C   UNL     1     -11.083  11.959  68.944  1.00  0.00    -0.299 A  
ENDBRANCH  11  24
TORSDOF 6
ENDMDL
MODEL      132
REMARK 921   NORMALIZED FREE ENERGY PREDICTED BY IDOCK:    6.72 KCAL/MOL
REMARK 922        TOTAL FREE ENERGY PREDICTED BY IDOCK:    8.34 KCAL/MOL
REMARK 923 INTER-LIGAND FREE ENERGY PREDICTED BY IDOCK:    8.65 KCAL/MOL
REMARK 924 INTRA-LIGAND FREE ENERGY PREDICTED BY IDOCK:   -0.31 KCAL/MOL
REMARK 927      BINDING AFFINITY PREDICTED BY RF-SCORE:    0.00 PKD
ROOT
HETATM    1  C   UNL     1      -8.470  18.601  66.053  1.00  0.00    -0.024 C  
HETATM    2  C   UNL     1      -8.906  20.039  65.646  1.00  0.00     0.228 C  
HETATM    3  O   UNL     1     -10.082  20.094  64.827  1.00  0.00     0.570 OA 
HETATM    4  C   UNL     1     -11.137  19.356  65.439  1.00  0.00     0.366 C  
HETATM    5  C   UNL     1     -10.810  17.868  65.418  1.00  0.00     0.206 C  
HETATM    6  N   UNL     1      -9.428  17.551  65.776  1.00  0.00     0.062 N  
HETATM    7  C   UNL     1      -9.025  16.218  65.851  1.00  0.00    -0.186 C  
HETATM    8  O   UNL     1      -9.688  15.323  65.332  1.00  0.00    -0.307 OA 
HETATM    9  C   UNL     1      -7.890  15.967  66.856  1.00  0.00    -0.249 C  
HETATM   10  C   UNL     1      -7.641  14.699  67.270  1.00  0.00    -0.143 C  
HETATM   11  N   UNL     1      -7.907  18.387  67.394  1.00  0.00    -0.232 NA 
HETATM   12  C   UNL     1      -6.610  14.524  68.360  1.00  0.00    -0.103 C  
HETATM   13  O   UNL     1      -6.370  13.441  68.887  1.00  0.00    -0.086 OA 
HETATM   14  N   UNL     1      -7.302  17.088  67.489  1.00  0.00    -0.150 NA 
HETATM   15  C   UNL     1      -5.853  15.708  68.806  1.00  0.00    -0.100 C  
HETATM   16  C   UNL     1      -6.241  16.898  68.348  1.00  0.00    -0.140 C  
ENDROOT
BRANCH  10  17
HETATM   17  O   UNL     1      -8.414  13.631  66.860  1.00  0.00    -0.164 OA 
BRANCH  17  18
HETATM   18  C   UNL     1      -8.739  12.650  67.838  1.00  0.00    -0.181 C  
BRANCH  18  19
HETATM   19  O   UNL     1     -10.065  12.169  67.619  1.00  0.00    -0.194 OA 
BRANCH  19  20
HETATM   20  C   UNL     1     -10.176  11.450  66.480  1.00  0.00    -0.221 C  
HETATM   21  O   UNL     1      -9.696  10.345  66.269  1.00  0.00    -0.187 OA 
BRANCH  20  22
HETATM   22  O   UNL     1     -10.956  12.150  65.616  1.00  0.00    -0.276 OA 
HETATM   23  C   UNL     1     -10.419  12.223  64.300  1.00  0.00    -0.346 C  
ENDBRANCH  20  22
ENDBRANCH  19  20
ENDBRANCH  18  19
ENDBRANCH  17  18
ENDBRANCH  10  17
BRANCH  11  24
HETATM   24  C   UNL     1      -8.574  18.944  68.657  1.00  0.00    -0.340 C  
HETATM   25  C   UNL     1      -9.519  17.982  69.466  1.00  0.00     0.456 A  
HETATM   26  C   UNL     1      -9.857  16.692  69.025  1.00  0.00    -0.267 A  
HETATM   27  C   UNL     1     -10.652  15.757  69.696  1.00  0.00    -0.295 A  
HETATM   28  C   UNL     1     -11.203  16.118  70.889  1.00  0.00    -0.293 A  
HETATM   29  C   UNL     1     -10.984  17.397  71.359  1.00  0.00     1.803 A  
HETATM   30  F   UNL     1     -11.925  15.230  71.583  1.00  0.00    -0.306 F  
HETATM   31  F   UNL     1     -11.535  17.750  72.532  1.00  0.00     0.235 F  
HETATM   32  C   UNL     1     -10.181  18.341  70.655  1.00  0.00     2.222 A  
HETATM   33  C   UNL     1      -9.934  19.650  71.327  1.00  0.00     2.426 C  
HETATM   34  S   UNL     1      -8.357  19.468  72.176  1.00  0.00     5.246 SA 
HETATM   35  C   UNL     1      -7.255  19.867  70.830  1.00  0.00     0.745 A  
HETATM   36  C   UNL     1      -6.059  20.441  71.325  1.00  0.00    -0.175 A  
HETATM   37  C   UNL     1      -5.150  21.076  70.495  1.00  0.00    -0.260 A  
HETATM   38  C   UNL     1      -5.461  21.206  69.155  1.00  0.00    -0.299 A  
HETATM   39  C   UNL     1      -6.615  20.588  68.637  1.00  0.00    -0.247 A  
HETATM   40  C   UNL     1      -7.493  19.807  69.439  1.00  0.00    -0.139 A  
ENDBRANCH  11  24
TORSDOF 6
ENDMDL
MODEL      133
REMARK 921   NORMALIZED FREE ENERGY PREDICTED BY IDOCK:    6.80 KCAL/MOL
REMARK 922        TOTAL FREE ENERGY PREDICTED BY IDOCK:    8.45 KCAL/MOL
REMARK 923 INTER-LIGAND FREE ENERGY PREDICTED BY IDOCK:    4.78 KCAL/MOL
REMARK 924 INTRA-LIGAND FREE ENERGY PREDICTED BY IDOCK:    3.67 KCAL/MOL
REMARK 927      BINDING AFFINITY PREDICTED BY RF-SCORE:    0.00 PKD
ROOT
HETATM    1  C   UNL     1      -6.778   5.994  67.995  1.00  0.00    -0.061 C  
HETATM    2  C   UNL     1      -7.131   5.428  66.587  1.00  0.00    -0.069 C  
HETATM    3  O   UNL     1      -6.795   4.047  66.399  1.00  0.00    -0.055 OA 
HETATM    4  C   UNL     1      -7.344   3.264  67.456  1.00  0.00    -0.058 C  
HETATM    5  C   UNL     1      -6.634   3.585  68.765  1.00  0.00    -0.040 C  
HETATM    6  N   UNL     1      -6.405   5.012  68.991  1.00  0.00    -0.030 N  
HETATM    7  C   UNL     1      -5.816   5.433  70.183  1.00  0.00    -0.017 C  
HETATM    8  O   UNL     1      -5.206   4.648  70.904  1.00  0.00    -0.003 OA 
HETATM    9  C   UNL     1      -6.249   6.840  70.625  1.00  0.00    -0.032 C  
HETATM   10  C   UNL     1      -6.026   7.229  71.906  1.00  0.00    -0.037 C  
HETATM   11  N   UNL     1      -7.687   6.971  68.611  1.00  0.00    -0.117 NA 
HETATM   12  C   UNL     1      -6.592   8.565  72.325  1.00  0.00    -0.084 C  
HETATM   13  O   UNL     1      -6.544   8.980  73.480  1.00  0.00    -0.332 OA 
HETATM   14  N   UNL     1      -7.070   7.591  69.749  1.00  0.00    -0.066 NA 
HETATM   15  C   UNL     1      -7.226   9.412  71.298  1.00  0.00     0.060 C  
HETATM   16  C   UNL     1      -7.421   8.878  70.092  1.00  0.00    -0.065 C  
ENDROOT
BRANCH  10  17
HETATM   17  O   UNL     1      -5.473   6.378  72.842  1.00  0.00    -0.036 OA 
BRANCH  17  18
HETATM   18  C   UNL     1      -5.771   4.991  72.716  1.00  0.00    -0.017 C  
BRANCH  18  19
HETATM   19  O   UNL     1      -6.986   4.693  73.402  1.00  0.00    -0.066 OA 
BRANCH  19  20
HETATM   20  C   UNL     1      -7.411   3.429  73.181  1.00  0.00    -0.056 C  
HETATM   21  O   UNL     1      -7.449   2.854  72.102  1.00  0.00    -0.049 OA 
BRANCH  20  22
HETATM   22  O   UNL     1      -7.751   2.884  74.378  1.00  0.00    -0.053 OA 
HETATM   23  C   UNL     1      -8.222   1.546  74.278  1.00  0.00    -0.045 C  
ENDBRANCH  20  22
ENDBRANCH  19  20
ENDBRANCH  18  19
ENDBRANCH  17  18
ENDBRANCH  10  17
BRANCH  11  24
HETATM   24  C   UNL     1      -9.204   6.753  68.668  1.00  0.00    -0.132 C  
HETATM   25  C   UNL     1      -9.853   6.519  70.081  1.00  0.00    -0.185 A  
HETATM   26  C   UNL     1      -9.098   6.395  71.259  1.00  0.00    -0.148 A  
HETATM   27  C   UNL     1      -9.590   6.229  72.557  1.00  0.00    -0.146 A  
HETATM   28  C   UNL     1     -10.939   6.136  72.729  1.00  0.00    -0.260 A  
HETATM   29  C   UNL     1     -11.751   6.171  71.613  1.00  0.00    -0.228 A  
HETATM   30  F   UNL     1     -11.447   6.030  73.962  1.00  0.00     0.288 F  
HETATM   31  F   UNL     1     -13.079   6.073  71.786  1.00  0.00    -0.028 F  
HETATM   32  C   UNL     1     -11.230   6.329  70.296  1.00  0.00    -0.455 A  
HETATM   33  C   UNL     1     -12.224   6.461  69.190  1.00  0.00     1.911 C  
HETATM   34  S   UNL     1     -12.435   8.232  68.940  1.00  0.00     4.919 SA 
HETATM   35  C   UNL     1     -11.061   8.537  67.843  1.00  0.00     0.377 A  
HETATM   36  C   UNL     1     -11.347   9.625  66.984  1.00  0.00     0.807 A  
HETATM   37  C   UNL     1     -10.572   9.907  65.872  1.00  0.00     0.058 A  
HETATM   38  C   UNL     1      -9.529   9.056  65.562  1.00  0.00    -0.220 A  
HETATM   39  C   UNL     1      -9.195   8.006  66.438  1.00  0.00    -0.245 A  
HETATM   40  C   UNL     1      -9.883   7.779  67.663  1.00  0.00    -0.208 A  
ENDBRANCH  11  24
TORSDOF 6
ENDMDL
MODEL      134
REMARK 921   NORMALIZED FREE ENERGY PREDICTED BY IDOCK:    7.78 KCAL/MOL
REMARK 922        TOTAL FREE ENERGY PREDICTED BY IDOCK:    9.77 KCAL/MOL
REMARK 923 INTER-LIGAND FREE ENERGY PREDICTED BY IDOCK:    7.19 KCAL/MOL
REMARK 924 INTRA-LIGAND FREE ENERGY PREDICTED BY IDOCK:    2.58 KCAL/MOL
REMARK 927      BINDING AFFINITY PREDICTED BY RF-SCORE:    0.00 PKD
ROOT
HETATM    1  C   UNL     1     -11.306  12.900  69.738  1.00  0.00    -0.037 C  
HETATM    2  C   UNL     1     -11.493  13.054  71.276  1.00  0.00     2.050 C  
HETATM    3  O   UNL     1     -12.344  12.066  71.874  1.00  0.00     0.134 OA 
HETATM    4  C   UNL     1     -11.907  10.760  71.504  1.00  0.00     0.218 C  
HETATM    5  C   UNL     1     -12.155  10.530  70.019  1.00  0.00    -0.274 C  
HETATM    6  N   UNL     1     -11.792  11.662  69.166  1.00  0.00    -0.316 N  
HETATM    7  C   UNL     1     -11.917  11.548  67.782  1.00  0.00    -0.025 C  
HETATM    8  O   UNL     1     -12.603  10.663  67.276  1.00  0.00     2.578 OA 
HETATM    9  C   UNL     1     -10.916  12.409  66.995  1.00  0.00    -0.260 C  
HETATM   10  C   UNL     1     -10.703  12.142  65.682  1.00  0.00    -0.275 C  
HETATM   11  N   UNL     1      -9.994  13.210  69.152  1.00  0.00     0.245 NA 
HETATM   12  C   UNL     1      -9.612  12.925  64.991  1.00  0.00     0.210 C  
HETATM   13  O   UNL     1      -9.257  12.705  63.837  1.00  0.00     0.379 OA 
HETATM   14  N   UNL     1     -10.084  13.294  67.722  1.00  0.00    -0.224 NA 
HETATM   15  C   UNL     1      -8.945  14.008  65.738  1.00  0.00     0.662 C  
HETATM   16  C   UNL     1      -9.222  14.123  67.038  1.00  0.00    -0.239 C  
ENDROOT
BRANCH  10  17
HETATM   17  O   UNL     1     -11.315  11.082  65.043  1.00  0.00     0.050 OA 
BRANCH  17  18
HETATM   18  C   UNL     1     -10.936  10.829  63.694  1.00  0.00     0.476 C  
BRANCH  18  19
HETATM   19  O   UNL     1     -11.866  11.447  62.806  1.00  0.00     0.338 OA 
BRANCH  19  20
HETATM   20  C   UNL     1     -12.524  12.480  63.378  1.00  0.00    -0.408 C  
HETATM   21  O   UNL     1     -13.345  12.406  64.282  1.00  0.00    -0.716 OA 
BRANCH  20  22
HETATM   22  O   UNL     1     -12.083  13.629  62.804  1.00  0.00    -0.056 OA 
HETATM   23  C   UNL     1     -12.484  14.802  63.502  1.00  0.00     0.842 C  
ENDBRANCH  20  22
ENDBRANCH  19  20
ENDBRANCH  18  19
ENDBRANCH  17  18
ENDBRANCH  10  17
BRANCH  11  24
HETATM   24  C   UNL     1      -8.688  12.664  69.741  1.00  0.00     2.483 C  
HETATM   25  C   UNL     1      -8.327  11.163  69.445  1.00  0.00     0.215 A  
HETATM   26  C   UNL     1      -9.191  10.287  68.768  1.00  0.00    -0.166 A  
HETATM   27  C   UNL     1      -8.937   8.955  68.425  1.00  0.00    -0.134 A  
HETATM   28  C   UNL     1      -7.750   8.406  68.808  1.00  0.00    -0.102 A  
HETATM   29  C   UNL     1      -6.873   9.175  69.546  1.00  0.00    -0.048 A  
HETATM   30  F   UNL     1      -7.451   7.151  68.451  1.00  0.00    -0.093 F  
HETATM   31  F   UNL     1      -5.707   8.629  69.926  1.00  0.00    -0.028 F  
HETATM   32  C   UNL     1      -7.154  10.528  69.896  1.00  0.00    -0.148 A  
HETATM   33  C   UNL     1      -6.075  11.280  70.600  1.00  0.00     0.012 C  
HETATM   34  S   UNL     1      -5.185  12.168  69.311  1.00  0.00    -0.061 SA 
HETATM   35  C   UNL     1      -6.218  13.618  69.188  1.00  0.00    -0.098 A  
HETATM   36  C   UNL     1      -5.453  14.736  68.778  1.00  0.00    -0.088 A  
HETATM   37  C   UNL     1      -5.943  16.029  68.854  1.00  0.00    -0.114 A  
HETATM   38  C   UNL     1      -7.193  16.229  69.410  1.00  0.00    -0.192 A  
HETATM   39  C   UNL     1      -7.989  15.124  69.766  1.00  0.00    -0.019 A  
HETATM   40  C   UNL     1      -7.570  13.779  69.565  1.00  0.00     0.419 A  
ENDBRANCH  11  24
TORSDOF 6
ENDMDL
MODEL      135
REMARK 921   NORMALIZED FREE ENERGY PREDICTED BY IDOCK:    9.04 KCAL/MOL
REMARK 922        TOTAL FREE ENERGY PREDICTED BY IDOCK:   11.47 KCAL/MOL
REMARK 923 INTER-LIGAND FREE ENERGY PREDICTED BY IDOCK:    8.12 KCAL/MOL
REMARK 924 INTRA-LIGAND FREE ENERGY PREDICTED BY IDOCK:    3.34 KCAL/MOL
REMARK 927      BINDING AFFINITY PREDICTED BY RF-SCORE:    0.00 PKD
ROOT
HETATM    1  C   UNL     1     -10.913  10.937  66.559  1.00  0.00    -0.121 C  
HETATM    2  C   UNL     1     -10.862   9.831  65.463  1.00  0.00     1.138 C  
HETATM    3  O   UNL     1     -10.172  10.213  64.265  1.00  0.00    -0.177 OA 
HETATM    4  C   UNL     1      -8.881  10.723  64.587  1.00  0.00    -0.143 C  
HETATM    5  C   UNL     1      -9.014  12.057  65.311  1.00  0.00     0.403 C  
HETATM    6  N   UNL     1     -10.058  12.084  66.336  1.00  0.00    -0.214 N  
HETATM    7  C   UNL     1     -10.235  13.232  67.107  1.00  0.00    -0.246 C  
HETATM    8  O   UNL     1      -9.767  14.312  66.756  1.00  0.00    -0.256 OA 
HETATM    9  C   UNL     1     -10.785  12.954  68.515  1.00  0.00    -0.254 C  
HETATM   10  C   UNL     1     -10.685  13.918  69.466  1.00  0.00     0.068 C  
HETATM   11  N   UNL     1     -10.809  10.537  67.970  1.00  0.00    -0.241 NA 
HETATM   12  C   UNL     1     -11.114  13.547  70.866  1.00  0.00     1.773 C  
HETATM   13  O   UNL     1     -10.977  14.296  71.829  1.00  0.00     1.204 OA 
HETATM   14  N   UNL     1     -11.162  11.628  68.834  1.00  0.00    -0.225 NA 
HETATM   15  C   UNL     1     -11.730  12.225  71.084  1.00  0.00     1.024 C  
HETATM   16  C   UNL     1     -11.716  11.362  70.067  1.00  0.00    -0.334 C  
ENDROOT
BRANCH  10  17
HETATM   17  O   UNL     1     -10.052  15.121  69.223  1.00  0.00    -0.229 OA 
BRANCH  17  18
HETATM   18  C   UNL     1     -10.675  16.297  69.730  1.00  0.00    -0.345 C  
BRANCH  18  19
HETATM   19  O   UNL     1     -10.135  17.448  69.082  1.00  0.00    -0.305 OA 
BRANCH  19  20
HETATM   20  C   UNL     1     -11.090  18.324  68.698  1.00  0.00     0.876 C  
HETATM   21  O   UNL     1     -11.739  18.283  67.662  1.00  0.00     0.900 OA 
BRANCH  20  22
HETATM   22  O   UNL     1     -11.240  19.243  69.687  1.00  0.00     2.301 OA 
HETATM   23  C   UNL     1     -11.248  20.586  69.217  1.00  0.00     1.940 C  
ENDBRANCH  20  22
ENDBRANCH  19  20
ENDBRANCH  18  19
ENDBRANCH  17  18
ENDBRANCH  10  17
BRANCH  11  24
HETATM   24  C   UNL     1      -9.727   9.571  68.467  1.00  0.00    -0.151 C  
HETATM   25  C   UNL     1      -9.970   8.032  68.253  1.00  0.00    -0.210 A  
HETATM   26  C   UNL     1     -11.167   7.512  67.734  1.00  0.00     0.283 A  
HETATM   27  C   UNL     1     -11.453   6.168  67.471  1.00  0.00     0.414 A  
HETATM   28  C   UNL     1     -10.507   5.236  67.775  1.00  0.00    -0.095 A  
HETATM   29  C   UNL     1      -9.330   5.655  68.362  1.00  0.00    -0.119 A  
HETATM   30  F   UNL     1     -10.726   3.947  67.488  1.00  0.00     0.521 F  
HETATM   31  F   UNL     1      -8.403   4.733  68.666  1.00  0.00    -0.083 F  
HETATM   32  C   UNL     1      -9.061   7.028  68.633  1.00  0.00    -0.132 A  
HETATM   33  C   UNL     1      -7.707   7.356  69.167  1.00  0.00    -0.111 C  
HETATM   34  S   UNL     1      -6.718   7.810  67.733  1.00  0.00    -0.069 SA 
HETATM   35  C   UNL     1      -7.166   9.532  67.602  1.00  0.00    -0.082 A  
HETATM   36  C   UNL     1      -6.104  10.276  67.035  1.00  0.00    -0.055 A  
HETATM   37  C   UNL     1      -6.082  11.661  67.059  1.00  0.00    -0.138 A  
HETATM   38  C   UNL     1      -7.099  12.325  67.718  1.00  0.00    -0.114 A  
HETATM   39  C   UNL     1      -8.191  11.602  68.234  1.00  0.00    -0.156 A  
HETATM   40  C   UNL     1      -8.312  10.191  68.097  1.00  0.00    -0.117 A  
ENDBRANCH  11  24
TORSDOF 6
ENDMDL
MODEL      136
REMARK 921   NORMALIZED FREE ENERGY PREDICTED BY IDOCK:    9.58 KCAL/MOL
REMARK 922        TOTAL FREE ENERGY PREDICTED BY IDOCK:   12.20 KCAL/MOL
REMARK 923 INTER-LIGAND FREE ENERGY PREDICTED BY IDOCK:   -1.13 KCAL/MOL
REMARK 924 INTRA-LIGAND FREE ENERGY PREDICTED BY IDOCK:   13.33 KCAL/MOL
REMARK 927      BINDING AFFINITY PREDICTED BY RF-SCORE:    0.00 PKD
ROOT
HETATM    1  C   UNL     1      -8.445   4.833  66.890  1.00  0.00    -0.105 C  
HETATM    2  C   UNL     1      -7.808   4.288  65.577  1.00  0.00    -0.090 C  
HETATM    3  O   UNL     1      -8.690   4.283  64.446  1.00  0.00    -0.127 OA 
HETATM    4  C   UNL     1      -9.272   5.573  64.277  1.00  0.00     0.504 C  
HETATM    5  C   UNL     1     -10.233   5.865  65.422  1.00  0.00     1.049 C  
HETATM    6  N   UNL     1      -9.728   5.488  66.742  1.00  0.00    -0.144 N  
HETATM    7  C   UNL     1     -10.493   5.761  67.875  1.00  0.00    -0.228 C  
HETATM    8  O   UNL     1     -11.692   6.016  67.786  1.00  0.00     0.693 OA 
HETATM    9  C   UNL     1      -9.660   5.996  69.145  1.00  0.00    -0.132 C  
HETATM   10  C   UNL     1     -10.241   6.592  70.216  1.00  0.00    -0.188 C  
HETATM   11  N   UNL     1      -7.610   5.628  67.802  1.00  0.00    -0.088 NA 
HETATM   12  C   UNL     1      -9.345   6.925  71.386  1.00  0.00    -0.156 C  
HETATM   13  O   UNL     1      -9.731   7.553  72.368  1.00  0.00    -0.150 OA 
HETATM   14  N   UNL     1      -8.261   5.794  69.071  1.00  0.00    -0.101 NA 
HETATM   15  C   UNL     1      -7.944   6.467  71.348  1.00  0.00    -0.105 C  
HETATM   16  C   UNL     1      -7.498   5.937  70.209  1.00  0.00    -0.089 C  
ENDROOT
BRANCH  10  17
HETATM   17  O   UNL     1     -11.545   7.049  70.181  1.00  0.00    -0.282 OA 
BRANCH  17  18
HETATM   18  C   UNL     1     -11.786   8.366  70.665  1.00  0.00    -0.147 C  
BRANCH  18  19
HETATM   19  O   UNL     1     -13.191   8.609  70.726  1.00  0.00     0.160 OA 
BRANCH  19  20
HETATM   20  C   UNL     1     -13.526   9.476  71.708  1.00  0.00    -0.402 C  
HETATM   21  O   UNL     1     -13.571   9.234  72.906  1.00  0.00    -0.314 OA 
BRANCH  20  22
HETATM   22  O   UNL     1     -13.764  10.685  71.137  1.00  0.00     0.093 OA 
HETATM   23  C   UNL     1     -13.234  11.776  71.881  1.00  0.00    -0.362 C  
ENDBRANCH  20  22
ENDBRANCH  19  20
ENDBRANCH  18  19
ENDBRANCH  17  18
ENDBRANCH  10  17
BRANCH  11  24
HETATM   24  C   UNL     1      -6.733   6.784  67.307  1.00  0.00    -0.067 C  
HETATM   25  C   UNL     1      -7.319   7.712  66.182  1.00  0.00    -0.078 A  
HETATM   26  C   UNL     1      -8.545   7.462  65.545  1.00  0.00    -0.093 A  
HETATM   27  C   UNL     1      -9.161   8.253  64.569  1.00  0.00     0.643 A  
HETATM   28  C   UNL     1      -8.510   9.370  64.140  1.00  0.00    -0.190 A  
HETATM   29  C   UNL     1      -7.261   9.649  64.658  1.00  0.00    -0.123 A  
HETATM   30  F   UNL     1      -9.093  10.178  63.246  1.00  0.00    -0.186 F  
HETATM   31  F   UNL     1      -6.620  10.747  64.228  1.00  0.00    -0.027 F  
HETATM   32  C   UNL     1      -6.644   8.824  65.644  1.00  0.00    -0.064 A  
HETATM   33  C   UNL     1      -5.343   9.298  66.200  1.00  0.00    -0.037 C  
HETATM   34  S   UNL     1      -5.758  10.188  67.709  1.00  0.00    -0.041 SA 
HETATM   35  C   UNL     1      -5.830   8.815  68.847  1.00  0.00    -0.040 A  
HETATM   36  C   UNL     1      -5.481   9.238  70.152  1.00  0.00    -0.027 A  
HETATM   37  C   UNL     1      -5.205   8.336  71.167  1.00  0.00    -0.029 A  
HETATM   38  C   UNL     1      -5.206   6.987  70.869  1.00  0.00    -0.023 A  
HETATM   39  C   UNL     1      -5.608   6.550  69.593  1.00  0.00    -0.014 A  
HETATM   40  C   UNL     1      -6.038   7.445  68.573  1.00  0.00    -0.028 A  
ENDBRANCH  11  24
TORSDOF 6
ENDMDL
MODEL      137
REMARK 921   NORMALIZED FREE ENERGY PREDICTED BY IDOCK:    9.87 KCAL/MOL
REMARK 922        TOTAL FREE ENERGY PREDICTED BY IDOCK:   12.60 KCAL/MOL
REMARK 923 INTER-LIGAND FREE ENERGY PREDICTED BY IDOCK:    4.21 KCAL/MOL
REMARK 924 INTRA-LIGAND FREE ENERGY PREDICTED BY IDOCK:    8.39 KCAL/MOL
REMARK 927      BINDING AFFINITY PREDICTED BY RF-SCORE:    0.00 PKD
ROOT
HETATM    1  C   UNL     1      -8.321   7.401  66.202  1.00  0.00    -0.139 C  
HETATM    2  C   UNL     1      -9.164   8.238  65.195  1.00  0.00     0.368 C  
HETATM    3  O   UNL     1      -9.608   7.511  64.041  1.00  0.00     2.527 OA 
HETATM    4  C   UNL     1     -10.269   6.314  64.445  1.00  0.00     4.114 C  
HETATM    5  C   UNL     1      -9.265   5.347  65.059  1.00  0.00     0.103 C  
HETATM    6  N   UNL     1      -8.313   5.971  65.978  1.00  0.00    -0.128 N  
HETATM    7  C   UNL     1      -7.382   5.177  66.648  1.00  0.00    -0.086 C  
HETATM    8  O   UNL     1      -7.128   4.037  66.267  1.00  0.00    -0.061 OA 
HETATM    9  C   UNL     1      -6.960   5.736  68.015  1.00  0.00    -0.065 C  
HETATM   10  C   UNL     1      -6.338   4.917  68.901  1.00  0.00    -0.032 C  
HETATM   11  N   UNL     1      -8.483   7.655  67.641  1.00  0.00    -0.117 NA 
HETATM   12  C   UNL     1      -6.068   5.476  70.278  1.00  0.00    -0.025 C  
HETATM   13  O   UNL     1      -5.604   4.803  71.195  1.00  0.00    -0.010 OA 
HETATM   14  N   UNL     1      -7.439   7.014  68.389  1.00  0.00    -0.100 NA 
HETATM   15  C   UNL     1      -6.369   6.897  70.530  1.00  0.00    -0.042 C  
HETATM   16  C   UNL     1      -7.026   7.567  69.582  1.00  0.00    -0.053 C  
ENDROOT
BRANCH  10  17
HETATM   17  O   UNL     1      -6.125   3.579  68.635  1.00  0.00    -0.026 OA 
BRANCH  17  18
HETATM   18  C   UNL     1      -6.858   3.006  67.557  1.00  0.00    -0.045 C  
BRANCH  18  19
HETATM   19  O   UNL     1      -7.576   1.861  68.016  1.00  0.00    -0.053 OA 
BRANCH  19  20
HETATM   20  C   UNL     1      -8.768   2.182  68.566  1.00  0.00    -0.089 C  
HETATM   21  O   UNL     1      -8.997   2.349  69.756  1.00  0.00    -0.074 OA 
BRANCH  20  22
HETATM   22  O   UNL     1      -9.669   2.332  67.561  1.00  0.00    -0.002 OA 
HETATM   23  C   UNL     1     -10.250   3.630  67.510  1.00  0.00     0.875 C  
ENDBRANCH  20  22
ENDBRANCH  19  20
ENDBRANCH  18  19
ENDBRANCH  17  18
ENDBRANCH  10  17
BRANCH  11  24
HETATM   24  C   UNL     1      -9.863   7.750  68.302  1.00  0.00    -0.167 C  
HETATM   25  C   UNL     1     -10.114   6.885  69.590  1.00  0.00    -0.195 A  
HETATM   26  C   UNL     1      -9.180   5.961  70.087  1.00  0.00    -0.169 A  
HETATM   27  C   UNL     1      -9.300   5.184  71.243  1.00  0.00    -0.192 A  
HETATM   28  C   UNL     1     -10.450   5.281  71.967  1.00  0.00    -0.222 A  
HETATM   29  C   UNL     1     -11.454   6.109  71.507  1.00  0.00    -0.264 A  
HETATM   30  F   UNL     1     -10.577   4.592  73.108  1.00  0.00    -0.204 F  
HETATM   31  F   UNL     1     -12.588   6.196  72.221  1.00  0.00    -0.354 F  
HETATM   32  C   UNL     1     -11.318   6.884  70.319  1.00  0.00    -0.373 A  
HETATM   33  C   UNL     1     -12.433   7.820  69.995  1.00  0.00     1.097 C  
HETATM   34  S   UNL     1     -11.940   9.414  70.672  1.00  0.00    -0.107 SA 
HETATM   35  C   UNL     1     -10.944  10.011  69.317  1.00  0.00    -0.228 A  
HETATM   36  C   UNL     1     -10.979  11.425  69.265  1.00  0.00    -0.282 A  
HETATM   37  C   UNL     1     -10.512  12.132  68.169  1.00  0.00    -0.225 A  
HETATM   38  C   UNL     1     -10.063  11.424  67.071  1.00  0.00    -0.237 A  
HETATM   39  C   UNL     1      -9.967  10.021  67.130  1.00  0.00    -0.251 A  
HETATM   40  C   UNL     1     -10.303   9.276  68.295  1.00  0.00    -0.257 A  
ENDBRANCH  11  24
TORSDOF 6
ENDMDL
MODEL      138
REMARK 921   NORMALIZED FREE ENERGY PREDICTED BY IDOCK:    9.89 KCAL/MOL
REMARK 922        TOTAL FREE ENERGY PREDICTED BY IDOCK:   12.62 KCAL/MOL
REMARK 923 INTER-LIGAND FREE ENERGY PREDICTED BY IDOCK:    3.04 KCAL/MOL
REMARK 924 INTRA-LIGAND FREE ENERGY PREDICTED BY IDOCK:    9.58 KCAL/MOL
REMARK 927      BINDING AFFINITY PREDICTED BY RF-SCORE:    0.00 PKD
ROOT
HETATM    1  C   UNL     1      -7.380  14.096  67.496  1.00  0.00    -0.175 C  
HETATM    2  C   UNL     1      -7.945  14.767  66.209  1.00  0.00     1.169 C  
HETATM    3  O   UNL     1      -8.605  13.866  65.309  1.00  0.00     2.026 OA 
HETATM    4  C   UNL     1      -9.591  13.113  66.010  1.00  0.00    -0.157 C  
HETATM    5  C   UNL     1      -8.918  12.150  66.980  1.00  0.00    -0.201 C  
HETATM    6  N   UNL     1      -7.808  12.733  67.735  1.00  0.00    -0.142 N  
HETATM    7  C   UNL     1      -7.153  11.966  68.697  1.00  0.00    -0.102 C  
HETATM    8  O   UNL     1      -7.260  10.743  68.717  1.00  0.00    -0.078 OA 
HETATM    9  C   UNL     1      -6.561  12.792  69.850  1.00  0.00     0.138 C  
HETATM   10  C   UNL     1      -6.203  12.162  70.998  1.00  0.00     0.991 C  
HETATM   11  N   UNL     1      -7.437  14.839  68.763  1.00  0.00    -0.125 NA 
HETATM   12  C   UNL     1      -5.757  13.034  72.148  1.00  0.00     0.695 C  
HETATM   13  O   UNL     1      -5.506  12.592  73.265  1.00  0.00    -0.078 OA 
HETATM   14  N   UNL     1      -6.625  14.203  69.762  1.00  0.00    -0.127 NA 
HETATM   15  C   UNL     1      -5.610  14.483  71.914  1.00  0.00    -0.059 C  
HETATM   16  C   UNL     1      -6.047  14.968  70.751  1.00  0.00     0.029 C  
ENDROOT
BRANCH  10  17
HETATM   17  O   UNL     1      -6.409  10.809  71.185  1.00  0.00    -0.313 OA 
BRANCH  17  18
HETATM   18  C   UNL     1      -6.322   9.974  70.035  1.00  0.00    -0.079 C  
BRANCH  18  19
HETATM   19  O   UNL     1      -6.937   8.715  70.305  1.00  0.00    -0.038 OA 
BRANCH  19  20
HETATM   20  C   UNL     1      -6.841   7.856  69.265  1.00  0.00    -0.048 C  
HETATM   21  O   UNL     1      -7.705   7.630  68.429  1.00  0.00    -0.114 OA 
BRANCH  20  22
HETATM   22  O   UNL     1      -5.596   7.315  69.279  1.00  0.00    -0.015 OA 
HETATM   23  C   UNL     1      -5.443   6.268  70.229  1.00  0.00    -0.014 C  
ENDBRANCH  20  22
ENDBRANCH  19  20
ENDBRANCH  18  19
ENDBRANCH  17  18
ENDBRANCH  10  17
BRANCH  11  24
HETATM   24  C   UNL     1      -8.714  15.541  69.240  1.00  0.00    -0.260 C  
HETATM   25  C   UNL     1      -8.943  17.027  68.782  1.00  0.00    -0.249 A  
HETATM   26  C   UNL     1      -7.988  17.760  68.057  1.00  0.00    -0.244 A  
HETATM   27  C   UNL     1      -8.123  19.065  67.573  1.00  0.00    -0.292 A  
HETATM   28  C   UNL     1      -9.274  19.740  67.850  1.00  0.00    -0.340 A  
HETATM   29  C   UNL     1     -10.235  19.120  68.624  1.00  0.00    -0.330 A  
HETATM   30  F   UNL     1      -9.459  20.971  67.358  1.00  0.00    -0.565 F  
HETATM   31  F   UNL     1     -11.365  19.790  68.900  1.00  0.00     0.712 F  
HETATM   32  C   UNL     1     -10.074  17.793  69.119  1.00  0.00    -0.220 A  
HETATM   33  C   UNL     1     -11.234  17.202  69.848  1.00  0.00     0.743 C  
HETATM   34  S   UNL     1     -12.149  16.257  68.619  1.00  0.00     0.699 SA 
HETATM   35  C   UNL     1     -11.232  14.728  68.684  1.00  0.00    -0.273 A  
HETATM   36  C   UNL     1     -12.071  13.636  68.356  1.00  0.00    -0.312 A  
HETATM   37  C   UNL     1     -11.689  12.323  68.580  1.00  0.00    -0.377 A  
HETATM   38  C   UNL     1     -10.479  12.086  69.204  1.00  0.00    -0.005 A  
HETATM   39  C   UNL     1      -9.609  13.157  69.481  1.00  0.00     1.287 A  
HETATM   40  C   UNL     1      -9.911  14.503  69.131  1.00  0.00    -0.114 A  
ENDBRANCH  11  24
TORSDOF 6
ENDMDL
MODEL      139
REMARK 921   NORMALIZED FREE ENERGY PREDICTED BY IDOCK:   10.86 KCAL/MOL
REMARK 922        TOTAL FREE ENERGY PREDICTED BY IDOCK:   13.93 KCAL/MOL
REMARK 923 INTER-LIGAND FREE ENERGY PREDICTED BY IDOCK:    7.12 KCAL/MOL
REMARK 924 INTRA-LIGAND FREE ENERGY PREDICTED BY IDOCK:    6.81 KCAL/MOL
REMARK 927      BINDING AFFINITY PREDICTED BY RF-SCORE:    0.00 PKD
ROOT
HETATM    1  C   UNL     1      -6.957  16.170  67.312  1.00  0.00    -0.199 C  
HETATM    2  C   UNL     1      -5.703  15.740  68.129  1.00  0.00    -0.123 C  
HETATM    3  O   UNL     1      -5.146  16.774  68.952  1.00  0.00    -0.121 OA 
HETATM    4  C   UNL     1      -6.163  17.345  69.772  1.00  0.00    -0.195 C  
HETATM    5  C   UNL     1      -7.148  18.125  68.911  1.00  0.00    -0.274 C  
HETATM    6  N   UNL     1      -7.538  17.446  67.675  1.00  0.00    -0.186 N  
HETATM    7  C   UNL     1      -8.480  18.036  66.834  1.00  0.00    -0.249 C  
HETATM    8  O   UNL     1      -8.759  19.228  66.929  1.00  0.00    -0.279 OA 
HETATM    9  C   UNL     1      -9.309  17.025  66.026  1.00  0.00    -0.152 C  
HETATM   10  C   UNL     1     -10.463  17.434  65.440  1.00  0.00     0.001 C  
HETATM   11  N   UNL     1      -8.040  15.196  67.116  1.00  0.00    -0.201 NA 
HETATM   12  C   UNL     1     -11.307  16.373  64.775  1.00  0.00    -0.150 C  
HETATM   13  O   UNL     1     -12.417  16.601  64.300  1.00  0.00     0.342 OA 
HETATM   14  N   UNL     1      -8.961  15.656  66.115  1.00  0.00    -0.341 NA 
HETATM   15  C   UNL     1     -10.771  15.002  64.687  1.00  0.00    -0.243 C  
HETATM   16  C   UNL     1      -9.647  14.735  65.353  1.00  0.00    -0.029 C  
ENDROOT
BRANCH  10  17
HETATM   17  O   UNL     1     -10.946  18.718  65.596  1.00  0.00    -0.269 OA 
BRANCH  17  18
HETATM   18  C   UNL     1     -10.515  19.440  66.745  1.00  0.00    -0.467 C  
BRANCH  18  19
HETATM   19  O   UNL     1     -11.637  19.742  67.575  1.00  0.00     0.310 OA 
BRANCH  19  20
HETATM   20  C   UNL     1     -11.276  20.290  68.757  1.00  0.00     1.712 C  
HETATM   21  O   UNL     1     -12.003  20.907  69.523  1.00  0.00     2.844 OA 
BRANCH  20  22
HETATM   22  O   UNL     1      -9.967  19.999  68.973  1.00  0.00    -0.344 OA 
HETATM   23  C   UNL     1      -9.708  19.484  70.273  1.00  0.00     0.916 C  
ENDBRANCH  20  22
ENDBRANCH  19  20
ENDBRANCH  18  19
ENDBRANCH  17  18
ENDBRANCH  10  17
BRANCH  11  24
HETATM   24  C   UNL     1      -8.617  14.372  68.273  1.00  0.00    -0.170 C  
HETATM   25  C   UNL     1      -9.620  15.090  69.249  1.00  0.00    -0.181 A  
HETATM   26  C   UNL     1      -9.917  16.460  69.169  1.00  0.00    -0.273 A  
HETATM   27  C   UNL     1     -10.824  17.170  69.962  1.00  0.00     0.395 A  
HETATM   28  C   UNL     1     -11.476  16.499  70.953  1.00  0.00    -0.021 A  
HETATM   29  C   UNL     1     -11.184  15.164  71.152  1.00  0.00    -0.281 A  
HETATM   30  F   UNL     1     -12.389  17.134  71.697  1.00  0.00     0.813 F  
HETATM   31  F   UNL     1     -11.824  14.508  72.133  1.00  0.00    -0.370 F  
HETATM   32  C   UNL     1     -10.248  14.460  70.339  1.00  0.00     0.993 A  
HETATM   33  C   UNL     1     -10.107  12.996  70.589  1.00  0.00     5.005 C  
HETATM   34  S   UNL     1     -11.202  12.196  69.404  1.00  0.00    -0.131 SA 
HETATM   35  C   UNL     1     -10.112  12.137  67.993  1.00  0.00    -0.204 A  
HETATM   36  C   UNL     1     -10.426  11.026  67.174  1.00  0.00    -0.274 A  
HETATM   37  C   UNL     1      -9.581  10.595  66.164  1.00  0.00    -0.232 A  
HETATM   38  C   UNL     1      -8.367  11.236  66.003  1.00  0.00    -0.071 A  
HETATM   39  C   UNL     1      -8.067  12.378  66.769  1.00  0.00     0.009 A  
HETATM   40  C   UNL     1      -8.977  12.930  67.713  1.00  0.00    -0.191 A  
ENDBRANCH  11  24
TORSDOF 6
ENDMDL
MODEL      140
REMARK 921   NORMALIZED FREE ENERGY PREDICTED BY IDOCK:   11.29 KCAL/MOL
REMARK 922        TOTAL FREE ENERGY PREDICTED BY IDOCK:   14.51 KCAL/MOL
REMARK 923 INTER-LIGAND FREE ENERGY PREDICTED BY IDOCK:    7.52 KCAL/MOL
REMARK 924 INTRA-LIGAND FREE ENERGY PREDICTED BY IDOCK:    6.99 KCAL/MOL
REMARK 927      BINDING AFFINITY PREDICTED BY RF-SCORE:    0.00 PKD
ROOT
HETATM    1  C   UNL     1     -10.374   8.791  70.084  1.00  0.00    -0.208 C  
HETATM    2  C   UNL     1     -10.353  10.332  70.309  1.00  0.00    -0.090 C  
HETATM    3  O   UNL     1      -9.626  10.754  71.472  1.00  0.00     3.913 OA 
HETATM    4  C   UNL     1      -8.319  10.186  71.461  1.00  0.00     3.060 C  
HETATM    5  C   UNL     1      -8.405   8.680  71.674  1.00  0.00    -0.157 C  
HETATM    6  N   UNL     1      -9.465   8.023  70.909  1.00  0.00    -0.159 N  
HETATM    7  C   UNL     1      -9.603   6.638  70.975  1.00  0.00    -0.171 C  
HETATM    8  O   UNL     1      -9.081   5.989  71.878  1.00  0.00    -0.141 OA 
HETATM    9  C   UNL     1     -10.189   6.011  69.700  1.00  0.00    -0.208 C  
HETATM   10  C   UNL     1     -10.063   4.674  69.502  1.00  0.00    -0.142 C  
HETATM   11  N   UNL     1     -10.313   8.278  68.708  1.00  0.00    -0.211 NA 
HETATM   12  C   UNL     1     -10.532   4.131  68.173  1.00  0.00     0.899 C  
HETATM   13  O   UNL     1     -10.379   2.960  67.837  1.00  0.00     1.271 OA 
HETATM   14  N   UNL     1     -10.632   6.879  68.674  1.00  0.00    -0.215 NA 
HETATM   15  C   UNL     1     -11.211   5.048  67.240  1.00  0.00     1.501 C  
HETATM   16  C   UNL     1     -11.219   6.346  67.547  1.00  0.00    -0.179 C  
ENDROOT
BRANCH  10  17
HETATM   17  O   UNL     1      -9.372   3.866  70.384  1.00  0.00    -0.128 OA 
BRANCH  17  18
HETATM   18  C   UNL     1      -8.756   2.699  69.850  1.00  0.00    -0.070 C  
BRANCH  18  19
HETATM   19  O   UNL     1      -7.535   2.438  70.542  1.00  0.00    -0.036 OA 
BRANCH  19  20
HETATM   20  C   UNL     1      -6.450   2.556  69.744  1.00  0.00    -0.029 C  
HETATM   21  O   UNL     1      -6.454   2.682  68.527  1.00  0.00    -0.029 OA 
BRANCH  20  22
HETATM   22  O   UNL     1      -5.345   2.555  70.533  1.00  0.00    -0.007 OA 
HETATM   23  C   UNL     1      -5.440   3.442  71.641  1.00  0.00    -0.008 C  
ENDBRANCH  20  22
ENDBRANCH  19  20
ENDBRANCH  18  19
ENDBRANCH  17  18
ENDBRANCH  10  17
BRANCH  11  24
HETATM   24  C   UNL     1      -9.285   8.788  67.691  1.00  0.00    -0.134 C  
HETATM   25  C   UNL     1      -9.720   9.963  66.741  1.00  0.00    -0.244 A  
HETATM   26  C   UNL     1     -11.026  10.480  66.712  1.00  0.00    -0.150 A  
HETATM   27  C   UNL     1     -11.489  11.546  65.935  1.00  0.00    -0.086 A  
HETATM   28  C   UNL     1     -10.617  12.144  65.076  1.00  0.00    -0.291 A  
HETATM   29  C   UNL     1      -9.332  11.647  64.984  1.00  0.00    -0.037 A  
HETATM   30  F   UNL     1     -11.012  13.201  64.355  1.00  0.00    -0.320 F  
HETATM   31  F   UNL     1      -8.478  12.235  64.131  1.00  0.00     1.142 F  
HETATM   32  C   UNL     1      -8.881  10.551  65.777  1.00  0.00    -0.190 A  
HETATM   33  C   UNL     1      -7.440  10.185  65.661  1.00  0.00    -0.144 C  
HETATM   34  S   UNL     1      -6.612  11.045  67.009  1.00  0.00    -0.110 SA 
HETATM   35  C   UNL     1      -6.885   9.864  68.319  1.00  0.00    -0.064 A  
HETATM   36  C   UNL     1      -5.836   9.929  69.267  1.00  0.00    -0.034 A  
HETATM   37  C   UNL     1      -5.660   8.955  70.237  1.00  0.00    -0.030 A  
HETATM   38  C   UNL     1      -6.500   7.857  70.228  1.00  0.00    -0.037 A  
HETATM   39  C   UNL     1      -7.583   7.808  69.330  1.00  0.00    -0.101 A  
HETATM   40  C   UNL     1      -7.875   8.862  68.419  1.00  0.00    -0.104 A  
ENDBRANCH  11  24
TORSDOF 6
ENDMDL
MODEL      141
REMARK 921   NORMALIZED FREE ENERGY PREDICTED BY IDOCK:   11.31 KCAL/MOL
REMARK 922        TOTAL FREE ENERGY PREDICTED BY IDOCK:   14.54 KCAL/MOL
REMARK 923 INTER-LIGAND FREE ENERGY PREDICTED BY IDOCK:   -3.53 KCAL/MOL
REMARK 924 INTRA-LIGAND FREE ENERGY PREDICTED BY IDOCK:   18.07 KCAL/MOL
REMARK 927      BINDING AFFINITY PREDICTED BY RF-SCORE:    0.00 PKD
ROOT
HETATM    1  C   UNL     1      -9.586  12.099  65.541  1.00  0.00    -0.128 C  
HETATM    2  C   UNL     1     -10.565  12.648  64.462  1.00  0.00    -0.346 C  
HETATM    3  O   UNL     1     -11.840  11.992  64.427  1.00  0.00    -0.350 OA 
HETATM    4  C   UNL     1     -12.416  11.978  65.731  1.00  0.00     0.873 C  
HETATM    5  C   UNL     1     -11.616  11.058  66.643  1.00  0.00     0.467 C  
HETATM    6  N   UNL     1     -10.165  11.197  66.515  1.00  0.00    -0.223 N  
HETATM    7  C   UNL     1      -9.327  10.450  67.342  1.00  0.00    -0.145 C  
HETATM    8  O   UNL     1      -9.743   9.465  67.947  1.00  0.00    -0.146 OA 
HETATM    9  C   UNL     1      -7.981  11.131  67.640  1.00  0.00    -0.116 C  
HETATM   10  C   UNL     1      -7.230  10.685  68.678  1.00  0.00    -0.090 C  
HETATM   11  N   UNL     1      -8.701  13.044  66.238  1.00  0.00     0.186 NA 
HETATM   12  C   UNL     1      -5.986  11.473  69.013  1.00  0.00    -0.052 C  
HETATM   13  O   UNL     1      -5.281  11.230  69.988  1.00  0.00    -0.054 OA 
HETATM   14  N   UNL     1      -7.685  12.342  66.970  1.00  0.00    -0.130 NA 
HETATM   15  C   UNL     1      -5.598  12.583  68.122  1.00  0.00    -0.068 C  
HETATM   16  C   UNL     1      -6.460  12.941  67.170  1.00  0.00     0.143 C  
ENDROOT
BRANCH  10  17
HETATM   17  O   UNL     1      -7.663   9.673  69.513  1.00  0.00    -0.087 OA 
BRANCH  17  18
HETATM   18  C   UNL     1      -7.667   8.351  68.985  1.00  0.00    -0.097 C  
BRANCH  18  19
HETATM   19  O   UNL     1      -8.317   7.468  69.898  1.00  0.00    -0.129 OA 
BRANCH  19  20
HETATM   20  C   UNL     1      -8.836   6.379  69.288  1.00  0.00    -0.128 C  
HETATM   21  O   UNL     1     -10.003   6.013  69.324  1.00  0.00    -0.148 OA 
BRANCH  20  22
HETATM   22  O   UNL     1      -7.842   5.778  68.583  1.00  0.00    -0.095 OA 
HETATM   23  C   UNL     1      -8.316   4.939  67.537  1.00  0.00    -0.105 C  
ENDBRANCH  20  22
ENDBRANCH  19  20
ENDBRANCH  18  19
ENDBRANCH  17  18
ENDBRANCH  10  17
BRANCH  11  24
HETATM   24  C   UNL     1      -9.219  14.355  66.840  1.00  0.00    -0.254 C  
HETATM   25  C   UNL     1      -8.171  15.308  67.522  1.00  0.00    -0.191 A  
HETATM   26  C   UNL     1      -6.821  14.960  67.697  1.00  0.00    -0.204 A  
HETATM   27  C   UNL     1      -5.815  15.758  68.251  1.00  0.00    -0.115 A  
HETATM   28  C   UNL     1      -6.153  16.993  68.716  1.00  0.00    -0.152 A  
HETATM   29  C   UNL     1      -7.476  17.384  68.654  1.00  0.00    -0.263 A  
HETATM   30  F   UNL     1      -5.206  17.803  69.204  1.00  0.00    -0.162 F  
HETATM   31  F   UNL     1      -7.806  18.599  69.119  1.00  0.00    -0.301 F  
HETATM   32  C   UNL     1      -8.491  16.552  68.096  1.00  0.00    -0.191 A  
HETATM   33  C   UNL     1      -9.858  17.139  67.989  1.00  0.00    -0.283 C  
HETATM   34  S   UNL     1      -9.972  17.799  66.318  1.00  0.00    -0.290 SA 
HETATM   35  C   UNL     1     -10.458  16.317  65.451  1.00  0.00    -0.343 A  
HETATM   36  C   UNL     1     -11.238  16.643  64.315  1.00  0.00     0.423 A  
HETATM   37  C   UNL     1     -11.957  15.686  63.618  1.00  0.00     0.811 A  
HETATM   38  C   UNL     1     -11.960  14.388  64.094  1.00  0.00    -0.373 A  
HETATM   39  C   UNL     1     -11.143  14.037  65.185  1.00  0.00    -0.341 A  
HETATM   40  C   UNL     1     -10.283  14.968  65.831  1.00  0.00    -0.335 A  
ENDBRANCH  11  24
TORSDOF 6
ENDMDL
MODEL      142
REMARK 921   NORMALIZED FREE ENERGY PREDICTED BY IDOCK:   11.84 KCAL/MOL
REMARK 922        TOTAL FREE ENERGY PREDICTED BY IDOCK:   15.26 KCAL/MOL
REMARK 923 INTER-LIGAND FREE ENERGY PREDICTED BY IDOCK:    4.12 KCAL/MOL
REMARK 924 INTRA-LIGAND FREE ENERGY PREDICTED BY IDOCK:   11.13 KCAL/MOL
REMARK 927      BINDING AFFINITY PREDICTED BY RF-SCORE:    0.00 PKD
ROOT
HETATM    1  C   UNL     1      -9.252  10.598  66.881  1.00  0.00    -0.155 C  
HETATM    2  C   UNL     1     -10.320  10.126  65.851  1.00  0.00    -0.151 C  
HETATM    3  O   UNL     1     -10.912   8.853  66.148  1.00  0.00     0.741 OA 
HETATM    4  C   UNL     1     -11.403   8.846  67.487  1.00  0.00     1.027 C  
HETATM    5  C   UNL     1     -10.239   8.887  68.468  1.00  0.00    -0.197 C  
HETATM    6  N   UNL     1      -9.183   9.835  68.110  1.00  0.00    -0.129 N  
HETATM    7  C   UNL     1      -8.094  10.005  68.963  1.00  0.00    -0.118 C  
HETATM    8  O   UNL     1      -7.832   9.178  69.834  1.00  0.00    -0.073 OA 
HETATM    9  C   UNL     1      -7.472  11.409  68.903  1.00  0.00    -0.113 C  
HETATM   10  C   UNL     1      -6.644  11.810  69.901  1.00  0.00     0.001 C  
HETATM   11  N   UNL     1      -9.170  12.029  67.207  1.00  0.00    -0.177 NA 
HETATM   12  C   UNL     1      -6.171  13.243  69.866  1.00  0.00    -0.097 C  
HETATM   13  O   UNL     1      -5.503  13.750  70.763  1.00  0.00    -0.132 OA 
HETATM   14  N   UNL     1      -7.965  12.315  67.934  1.00  0.00    -0.140 NA 
HETATM   15  C   UNL     1      -6.521  14.069  68.696  1.00  0.00    -0.091 C  
HETATM   16  C   UNL     1      -7.384  13.559  67.816  1.00  0.00    -0.163 C  
ENDROOT
BRANCH  10  17
HETATM   17  O   UNL     1      -6.388  11.015  71.002  1.00  0.00    -0.307 OA 
BRANCH  17  18
HETATM   18  C   UNL     1      -7.491  10.695  71.843  1.00  0.00     5.078 C  
BRANCH  18  19
HETATM   19  O   UNL     1      -7.974   9.388  71.533  1.00  0.00    -0.298 OA 
BRANCH  19  20
HETATM   20  C   UNL     1      -7.555   8.456  72.418  1.00  0.00    -0.092 C  
HETATM   21  O   UNL     1      -8.024   8.247  73.528  1.00  0.00    -0.212 OA 
BRANCH  20  22
HETATM   22  O   UNL     1      -6.545   7.754  71.843  1.00  0.00    -0.045 OA 
HETATM   23  C   UNL     1      -6.992   6.782  70.906  1.00  0.00    -0.067 C  
ENDBRANCH  20  22
ENDBRANCH  19  20
ENDBRANCH  18  19
ENDBRANCH  17  18
ENDBRANCH  10  17
BRANCH  11  24
HETATM   24  C   UNL     1     -10.411  12.860  67.553  1.00  0.00    -0.223 C  
HETATM   25  C   UNL     1     -11.337  12.339  68.711  1.00  0.00    -0.337 A  
HETATM   26  C   UNL     1     -11.137  11.107  69.356  1.00  0.00    -0.314 A  
HETATM   27  C   UNL     1     -11.881  10.585  70.419  1.00  0.00    -0.431 A  
HETATM   28  C   UNL     1     -12.943  11.305  70.876  1.00  0.00    -0.147 A  
HETATM   29  C   UNL     1     -13.259  12.493  70.247  1.00  0.00     1.031 A  
HETATM   30  F   UNL     1     -13.645  10.861  71.927  1.00  0.00    -0.415 F  
HETATM   31  F   UNL     1     -14.310  13.196  70.697  1.00  0.00     1.360 F  
HETATM   32  C   UNL     1     -12.495  13.003  69.157  1.00  0.00     0.270 A  
HETATM   33  C   UNL     1     -12.876  14.349  68.640  1.00  0.00     1.154 C  
HETATM   34  S   UNL     1     -11.795  15.515  69.485  1.00  0.00    -0.362 SA 
HETATM   35  C   UNL     1     -10.372  15.424  68.412  1.00  0.00    -0.229 A  
HETATM   36  C   UNL     1      -9.667  16.651  68.422  1.00  0.00    -0.243 A  
HETATM   37  C   UNL     1      -8.683  16.941  67.491  1.00  0.00    -0.214 A  
HETATM   38  C   UNL     1      -8.437  16.025  66.485  1.00  0.00    -0.348 A  
HETATM   39  C   UNL     1      -9.087  14.776  66.497  1.00  0.00    -0.291 A  
HETATM   40  C   UNL     1      -9.995  14.393  67.523  1.00  0.00    -0.224 A  
ENDBRANCH  11  24
TORSDOF 6
ENDMDL
MODEL      143
REMARK 921   NORMALIZED FREE ENERGY PREDICTED BY IDOCK:   11.96 KCAL/MOL
REMARK 922        TOTAL FREE ENERGY PREDICTED BY IDOCK:   15.42 KCAL/MOL
REMARK 923 INTER-LIGAND FREE ENERGY PREDICTED BY IDOCK:   12.66 KCAL/MOL
REMARK 924 INTRA-LIGAND FREE ENERGY PREDICTED BY IDOCK:    2.76 KCAL/MOL
REMARK 927      BINDING AFFINITY PREDICTED BY RF-SCORE:    0.00 PKD
ROOT
HETATM    1  C   UNL     1     -11.593   9.617  67.555  1.00  0.00     1.414 C  
HETATM    2  C   UNL     1     -10.919  10.126  66.247  1.00  0.00     0.252 C  
HETATM    3  O   UNL     1     -11.219  11.489  65.915  1.00  0.00    -0.274 OA 
HETATM    4  C   UNL     1     -10.951  12.332  67.032  1.00  0.00    -0.268 C  
HETATM    5  C   UNL     1     -11.951  12.054  68.146  1.00  0.00    -0.163 C  
HETATM    6  N   UNL     1     -12.209  10.633  68.382  1.00  0.00     0.359 N  
HETATM    7  C   UNL     1     -13.062  10.252  69.416  1.00  0.00     1.602 C  
HETATM    8  O   UNL     1     -13.838  11.054  69.929  1.00  0.00     1.413 OA 
HETATM    9  C   UNL     1     -12.730   8.877  70.019  1.00  0.00     1.438 C  
HETATM   10  C   UNL     1     -13.251   8.542  71.227  1.00  0.00    -0.132 C  
HETATM   11  N   UNL     1     -10.846   8.691  68.419  1.00  0.00    -0.026 NA 
HETATM   12  C   UNL     1     -12.784   7.241  71.837  1.00  0.00    -0.277 C  
HETATM   13  O   UNL     1     -13.104   6.878  72.966  1.00  0.00     1.250 OA 
HETATM   14  N   UNL     1     -11.712   8.109  69.406  1.00  0.00     0.746 NA 
HETATM   15  C   UNL     1     -11.910   6.365  71.037  1.00  0.00    -0.321 C  
HETATM   16  C   UNL     1     -11.437   6.848  69.887  1.00  0.00    -0.242 C  
ENDROOT
BRANCH  10  17
HETATM   17  O   UNL     1     -14.024   9.421  71.960  1.00  0.00    -0.347 OA 
BRANCH  17  18
HETATM   18  C   UNL     1     -13.347  10.272  72.879  1.00  0.00     1.250 C  
BRANCH  18  19
HETATM   19  O   UNL     1     -13.514  11.635  72.489  1.00  0.00    -0.139 OA 
BRANCH  19  20
HETATM   20  C   UNL     1     -12.341  12.240  72.198  1.00  0.00     0.986 C  
HETATM   21  O   UNL     1     -11.296  11.686  71.888  1.00  0.00     2.962 OA 
BRANCH  20  22
HETATM   22  O   UNL     1     -12.533  13.583  72.266  1.00  0.00    -0.028 OA 
HETATM   23  C   UNL     1     -13.847  13.987  71.901  1.00  0.00    -0.445 C  
ENDBRANCH  20  22
ENDBRANCH  19  20
ENDBRANCH  18  19
ENDBRANCH  17  18
ENDBRANCH  10  17
BRANCH  11  24
HETATM   24  C   UNL     1      -9.392   8.950  68.829  1.00  0.00    -0.137 C  
HETATM   25  C   UNL     1      -9.071   9.030  70.366  1.00  0.00    -0.242 A  
HETATM   26  C   UNL     1     -10.064   8.985  71.358  1.00  0.00    -0.399 A  
HETATM   27  C   UNL     1      -9.868   9.006  72.743  1.00  0.00     0.809 A  
HETATM   28  C   UNL     1      -8.594   9.121  73.212  1.00  0.00     1.600 A  
HETATM   29  C   UNL     1      -7.563   9.249  72.302  1.00  0.00     0.825 A  
HETATM   30  F   UNL     1      -8.365   9.091  74.530  1.00  0.00     0.018 F  
HETATM   31  F   UNL     1      -6.309   9.369  72.769  1.00  0.00     0.057 F  
HETATM   32  C   UNL     1      -7.783   9.237  70.894  1.00  0.00    -0.134 A  
HETATM   33  C   UNL     1      -6.573   9.273  70.023  1.00  0.00    -0.051 C  
HETATM   34  S   UNL     1      -6.211   7.554  69.626  1.00  0.00    -0.031 SA 
HETATM   35  C   UNL     1      -7.302   7.341  68.230  1.00  0.00    -0.100 A  
HETATM   36  C   UNL     1      -6.778   6.377  67.337  1.00  0.00    -0.060 A  
HETATM   37  C   UNL     1      -7.283   6.207  66.058  1.00  0.00    -0.075 A  
HETATM   38  C   UNL     1      -8.285   7.057  65.628  1.00  0.00    -0.134 A  
HETATM   39  C   UNL     1      -8.857   7.980  66.523  1.00  0.00    -0.175 A  
HETATM   40  C   UNL     1      -8.458   8.077  67.886  1.00  0.00    -0.125 A  
ENDBRANCH  11  24
TORSDOF 6
ENDMDL
MODEL      144
REMARK 921   NORMALIZED FREE ENERGY PREDICTED BY IDOCK:   13.41 KCAL/MOL
REMARK 922        TOTAL FREE ENERGY PREDICTED BY IDOCK:   17.37 KCAL/MOL
REMARK 923 INTER-LIGAND FREE ENERGY PREDICTED BY IDOCK:    0.09 KCAL/MOL
REMARK 924 INTRA-LIGAND FREE ENERGY PREDICTED BY IDOCK:   17.29 KCAL/MOL
REMARK 927      BINDING AFFINITY PREDICTED BY RF-SCORE:    0.00 PKD
ROOT
HETATM    1  C   UNL     1      -6.754   6.897  67.748  1.00  0.00    -0.067 C  
HETATM    2  C   UNL     1      -7.204   6.253  66.403  1.00  0.00    -0.069 C  
HETATM    3  O   UNL     1      -7.001   4.835  66.325  1.00  0.00    -0.066 OA 
HETATM    4  C   UNL     1      -7.584   4.197  67.459  1.00  0.00    -0.069 C  
HETATM    5  C   UNL     1      -6.804   4.557  68.716  1.00  0.00    -0.051 C  
HETATM    6  N   UNL     1      -6.438   5.970  68.814  1.00  0.00    -0.047 N  
HETATM    7  C   UNL     1      -5.774   6.431  69.950  1.00  0.00    -0.014 C  
HETATM    8  O   UNL     1      -5.215   5.654  70.720  1.00  0.00    -0.008 OA 
HETATM    9  C   UNL     1      -6.062   7.904  70.282  1.00  0.00    -0.032 C  
HETATM   10  C   UNL     1      -5.762   8.375  71.519  1.00  0.00    -0.037 C  
HETATM   11  N   UNL     1      -7.549   8.003  68.301  1.00  0.00    -0.106 NA 
HETATM   12  C   UNL     1      -6.190   9.788  71.837  1.00  0.00     0.358 C  
HETATM   13  O   UNL     1      -6.065  10.290  72.951  1.00  0.00     0.371 OA 
HETATM   14  N   UNL     1      -6.840   8.653  69.367  1.00  0.00    -0.048 NA 
HETATM   15  C   UNL     1      -6.778  10.603  70.759  1.00  0.00     0.422 C  
HETATM   16  C   UNL     1      -7.061   9.992  69.607  1.00  0.00    -0.104 C  
ENDROOT
BRANCH  10  17
HETATM   17  O   UNL     1      -5.258   7.556  72.510  1.00  0.00    -0.036 OA 
BRANCH  17  18
HETATM   18  C   UNL     1      -5.412   6.151  72.333  1.00  0.00    -0.031 C  
BRANCH  18  19
HETATM   19  O   UNL     1      -6.717   5.752  72.751  1.00  0.00    -0.069 OA 
BRANCH  19  20
HETATM   20  C   UNL     1      -7.467   6.792  73.180  1.00  0.00    -0.082 C  
HETATM   21  O   UNL     1      -7.104   7.689  73.927  1.00  0.00    -0.094 OA 
BRANCH  20  22
HETATM   22  O   UNL     1      -8.691   6.695  72.600  1.00  0.00    -0.124 OA 
HETATM   23  C   UNL     1      -9.581   7.739  72.976  1.00  0.00    -0.259 C  
ENDBRANCH  20  22
ENDBRANCH  19  20
ENDBRANCH  18  19
ENDBRANCH  17  18
ENDBRANCH  10  17
BRANCH  11  24
HETATM   24  C   UNL     1      -9.076   7.932  68.416  1.00  0.00    -0.135 C  
HETATM   25  C   UNL     1      -9.680   7.049  69.568  1.00  0.00    -0.160 A  
HETATM   26  C   UNL     1      -8.893   6.249  70.412  1.00  0.00    -0.147 A  
HETATM   27  C   UNL     1      -9.337   5.469  71.484  1.00  0.00    -0.172 A  
HETATM   28  C   UNL     1     -10.675   5.428  71.740  1.00  0.00    -0.204 A  
HETATM   29  C   UNL     1     -11.530   6.125  70.910  1.00  0.00    -0.248 A  
HETATM   30  F   UNL     1     -11.130   4.734  72.791  1.00  0.00    -0.267 F  
HETATM   31  F   UNL     1     -12.847   6.077  71.162  1.00  0.00     0.244 F  
HETATM   32  C   UNL     1     -11.058   6.906  69.814  1.00  0.00    -0.316 A  
HETATM   33  C   UNL     1     -12.077   7.698  69.065  1.00  0.00     2.129 C  
HETATM   34  S   UNL     1     -12.044   9.343  69.796  1.00  0.00     0.778 SA 
HETATM   35  C   UNL     1     -10.698  10.050  68.862  1.00  0.00    -0.219 A  
HETATM   36  C   UNL     1     -10.869  11.449  68.733  1.00  0.00    -0.251 A  
HETATM   37  C   UNL     1     -10.118  12.203  67.846  1.00  0.00    -0.199 A  
HETATM   38  C   UNL     1      -9.224  11.549  67.018  1.00  0.00    -0.180 A  
HETATM   39  C   UNL     1      -9.000  10.168  67.176  1.00  0.00    -0.146 A  
HETATM   40  C   UNL     1      -9.651   9.394  68.177  1.00  0.00    -0.158 A  
ENDBRANCH  11  24
TORSDOF 6
ENDMDL
MODEL      145
REMARK 921   NORMALIZED FREE ENERGY PREDICTED BY IDOCK:   13.68 KCAL/MOL
REMARK 922        TOTAL FREE ENERGY PREDICTED BY IDOCK:   17.73 KCAL/MOL
REMARK 923 INTER-LIGAND FREE ENERGY PREDICTED BY IDOCK:    1.71 KCAL/MOL
REMARK 924 INTRA-LIGAND FREE ENERGY PREDICTED BY IDOCK:   16.02 KCAL/MOL
REMARK 927      BINDING AFFINITY PREDICTED BY RF-SCORE:    0.00 PKD
ROOT
HETATM    1  C   UNL     1     -13.119  12.497  69.605  1.00  0.00     1.528 C  
HETATM    2  C   UNL     1     -13.710  13.099  70.915  1.00  0.00     0.888 C  
HETATM    3  O   UNL     1     -13.689  12.210  72.040  1.00  0.00    -0.278 OA 
HETATM    4  C   UNL     1     -12.376  11.686  72.223  1.00  0.00     1.432 C  
HETATM    5  C   UNL     1     -12.026  10.748  71.076  1.00  0.00    -0.304 C  
HETATM    6  N   UNL     1     -12.409  11.244  69.754  1.00  0.00    -0.250 N  
HETATM    7  C   UNL     1     -12.087  10.499  68.620  1.00  0.00     0.334 C  
HETATM    8  O   UNL     1     -11.778   9.313  68.704  1.00  0.00     0.630 OA 
HETATM    9  C   UNL     1     -11.873  11.351  67.358  1.00  0.00     0.047 C  
HETATM   10  C   UNL     1     -11.237  10.805  66.291  1.00  0.00     0.237 C  
HETATM   11  N   UNL     1     -12.352  13.373  68.709  1.00  0.00    -0.090 NA 
HETATM   12  C   UNL     1     -10.931  11.723  65.132  1.00  0.00    -0.294 C  
HETATM   13  O   UNL     1     -10.273  11.373  64.156  1.00  0.00    -0.267 OA 
HETATM   14  N   UNL     1     -12.139  12.739  67.439  1.00  0.00    -0.400 NA 
HETATM   15  C   UNL     1     -11.453  13.102  65.172  1.00  0.00    -0.327 C  
HETATM   16  C   UNL     1     -12.017  13.515  66.307  1.00  0.00    -0.413 C  
ENDROOT
BRANCH  10  17
HETATM   17  O   UNL     1     -10.722   9.524  66.324  1.00  0.00    -0.031 OA 
BRANCH  17  18
HETATM   18  C   UNL     1      -9.309   9.388  66.221  1.00  0.00    -0.198 C  
BRANCH  18  19
HETATM   19  O   UNL     1      -8.676  10.096  67.286  1.00  0.00    -0.128 OA 
BRANCH  19  20
HETATM   20  C   UNL     1      -7.643   9.410  67.824  1.00  0.00    -0.088 C  
HETATM   21  O   UNL     1      -6.802   8.766  67.213  1.00  0.00    -0.066 OA 
BRANCH  20  22
HETATM   22  O   UNL     1      -7.671   9.596  69.169  1.00  0.00    -0.079 OA 
HETATM   23  C   UNL     1      -6.642   8.896  69.860  1.00  0.00    -0.042 C  
ENDBRANCH  20  22
ENDBRANCH  19  20
ENDBRANCH  18  19
ENDBRANCH  17  18
ENDBRANCH  10  17
BRANCH  11  24
HETATM   24  C   UNL     1     -11.243  14.299  69.224  1.00  0.00    -0.273 C  
HETATM   25  C   UNL     1     -10.477  15.175  68.168  1.00  0.00    -0.245 A  
HETATM   26  C   UNL     1     -10.687  15.064  66.784  1.00  0.00    -0.308 A  
HETATM   27  C   UNL     1     -10.085  15.829  65.779  1.00  0.00    -0.399 A  
HETATM   28  C   UNL     1      -9.162  16.762  66.145  1.00  0.00    -0.249 A  
HETATM   29  C   UNL     1      -8.838  16.883  67.482  1.00  0.00    -0.209 A  
HETATM   30  F   UNL     1      -8.605  17.547  65.215  1.00  0.00     0.437 F  
HETATM   31  F   UNL     1      -7.923  17.800  67.837  1.00  0.00    -0.214 F  
HETATM   32  C   UNL     1      -9.454  16.087  68.490  1.00  0.00    -0.216 A  
HETATM   33  C   UNL     1      -9.094  16.395  69.905  1.00  0.00     0.758 C  
HETATM   34  S   UNL     1     -10.375  17.512  70.498  1.00  0.00     1.985 SA 
HETATM   35  C   UNL     1     -11.601  16.313  70.993  1.00  0.00    -0.303 A  
HETATM   36  C   UNL     1     -12.385  16.819  72.057  1.00  0.00     0.914 A  
HETATM   37  C   UNL     1     -13.228  16.008  72.800  1.00  0.00    -0.507 A  
HETATM   38  C   UNL     1     -13.246  14.653  72.529  1.00  0.00    -0.518 A  
HETATM   39  C   UNL     1     -12.518  14.145  71.436  1.00  0.00    -0.438 A  
HETATM   40  C   UNL     1     -11.758  14.975  70.566  1.00  0.00    -0.344 A  
ENDBRANCH  11  24
TORSDOF 6
ENDMDL
MODEL      146
REMARK 921   NORMALIZED FREE ENERGY PREDICTED BY IDOCK:   14.50 KCAL/MOL
REMARK 922        TOTAL FREE ENERGY PREDICTED BY IDOCK:   18.85 KCAL/MOL
REMARK 923 INTER-LIGAND FREE ENERGY PREDICTED BY IDOCK:   11.91 KCAL/MOL
REMARK 924 INTRA-LIGAND FREE ENERGY PREDICTED BY IDOCK:    6.94 KCAL/MOL
REMARK 927      BINDING AFFINITY PREDICTED BY RF-SCORE:    0.00 PKD
ROOT
HETATM    1  C   UNL     1      -7.157  13.230  69.381  1.00  0.00     0.152 C  
HETATM    2  C   UNL     1      -7.645  14.358  70.337  1.00  0.00     1.033 C  
HETATM    3  O   UNL     1      -8.496  15.333  69.720  1.00  0.00    -0.200 OA 
HETATM    4  C   UNL     1      -9.572  14.685  69.046  1.00  0.00    -0.145 C  
HETATM    5  C   UNL     1      -9.044  13.921  67.839  1.00  0.00    -0.194 C  
HETATM    6  N   UNL     1      -7.815  13.168  68.093  1.00  0.00    -0.134 N  
HETATM    7  C   UNL     1      -7.269  12.382  67.080  1.00  0.00    -0.008 C  
HETATM    8  O   UNL     1      -7.596  12.538  65.906  1.00  0.00     1.363 OA 
HETATM    9  C   UNL     1      -6.487  11.162  67.594  1.00  0.00    -0.065 C  
HETATM   10  C   UNL     1      -6.201  10.150  66.736  1.00  0.00    -0.068 C  
HETATM   11  N   UNL     1      -7.023  11.864  69.910  1.00  0.00     0.192 NA 
HETATM   12  C   UNL     1      -5.554   8.918  67.322  1.00  0.00    -0.038 C  
HETATM   13  O   UNL     1      -5.339   7.900  66.670  1.00  0.00    -0.027 OA 
HETATM   14  N   UNL     1      -6.298  11.033  68.991  1.00  0.00    -0.044 NA 
HETATM   15  C   UNL     1      -5.156   8.941  68.742  1.00  0.00    -0.033 C  
HETATM   16  C   UNL     1      -5.547   9.984  69.475  1.00  0.00    -0.037 C  
ENDROOT
BRANCH  10  17
HETATM   17  O   UNL     1      -6.641  10.155  65.427  1.00  0.00    -0.106 OA 
BRANCH  17  18
HETATM   18  C   UNL     1      -7.934   9.616  65.174  1.00  0.00    -0.120 C  
BRANCH  18  19
HETATM   19  O   UNL     1      -8.610  10.417  64.205  1.00  0.00    -0.180 OA 
BRANCH  19  20
HETATM   20  C   UNL     1      -9.956  10.333  64.309  1.00  0.00    -0.223 C  
HETATM   21  O   UNL     1     -10.731   9.991  63.428  1.00  0.00     1.392 OA 
BRANCH  20  22
HETATM   22  O   UNL     1     -10.300  10.653  65.583  1.00  0.00    -0.255 OA 
HETATM   23  C   UNL     1     -11.305  11.656  65.664  1.00  0.00    -0.170 C  
ENDBRANCH  20  22
ENDBRANCH  19  20
ENDBRANCH  18  19
ENDBRANCH  17  18
ENDBRANCH  10  17
BRANCH  11  24
HETATM   24  C   UNL     1      -8.129  11.197  70.736  1.00  0.00     4.062 C  
HETATM   25  C   UNL     1      -9.568  11.131  70.107  1.00  0.00     1.612 A  
HETATM   26  C   UNL     1      -9.900  11.745  68.888  1.00  0.00    -0.019 A  
HETATM   27  C   UNL     1     -11.136  11.702  68.236  1.00  0.00    -0.287 A  
HETATM   28  C   UNL     1     -12.160  11.035  68.839  1.00  0.00    -0.169 A  
HETATM   29  C   UNL     1     -11.941  10.466  70.078  1.00  0.00    -0.247 A  
HETATM   30  F   UNL     1     -13.341  10.929  68.218  1.00  0.00     2.471 F  
HETATM   31  F   UNL     1     -12.954   9.815  70.670  1.00  0.00    -0.320 F  
HETATM   32  C   UNL     1     -10.676  10.531  70.732  1.00  0.00     0.367 A  
HETATM   33  C   UNL     1     -10.544   9.781  72.015  1.00  0.00     1.251 C  
HETATM   34  S   UNL     1      -9.839   8.184  71.572  1.00  0.00    -0.193 SA 
HETATM   35  C   UNL     1      -8.109   8.623  71.562  1.00  0.00    -0.142 A  
HETATM   36  C   UNL     1      -7.314   7.501  71.899  1.00  0.00    -0.072 A  
HETATM   37  C   UNL     1      -5.971   7.620  72.217  1.00  0.00    -0.039 A  
HETATM   38  C   UNL     1      -5.417   8.885  72.270  1.00  0.00    -0.061 A  
HETATM   39  C   UNL     1      -6.177  10.003  71.880  1.00  0.00     0.553 A  
HETATM   40  C   UNL     1      -7.516   9.896  71.409  1.00  0.00     1.055 A  
ENDBRANCH  11  24
TORSDOF 6
ENDMDL
MODEL      147
REMARK 921   NORMALIZED FREE ENERGY PREDICTED BY IDOCK:   14.53 KCAL/MOL
REMARK 922        TOTAL FREE ENERGY PREDICTED BY IDOCK:   18.89 KCAL/MOL
REMARK 923 INTER-LIGAND FREE ENERGY PREDICTED BY IDOCK:    7.81 KCAL/MOL
REMARK 924 INTRA-LIGAND FREE ENERGY PREDICTED BY IDOCK:   11.08 KCAL/MOL
REMARK 927      BINDING AFFINITY PREDICTED BY RF-SCORE:    0.00 PKD
ROOT
HETATM    1  C   UNL     1      -9.991  12.421  67.111  1.00  0.00    -0.207 C  
HETATM    2  C   UNL     1      -9.814  13.709  66.253  1.00  0.00    -0.301 C  
HETATM    3  O   UNL     1     -10.868  13.945  65.309  1.00  0.00    -0.304 OA 
HETATM    4  C   UNL     1     -12.131  13.897  65.968  1.00  0.00    -0.437 C  
HETATM    5  C   UNL     1     -12.428  12.473  66.420  1.00  0.00     0.493 C  
HETATM    6  N   UNL     1     -11.289  11.785  67.029  1.00  0.00    -0.323 N  
HETATM    7  C   UNL     1     -11.455  10.497  67.536  1.00  0.00     0.082 C  
HETATM    8  O   UNL     1     -12.421   9.807  67.216  1.00  0.00     4.382 OA 
HETATM    9  C   UNL     1     -10.518  10.166  68.707  1.00  0.00    -0.204 C  
HETATM   10  C   UNL     1     -10.798   9.099  69.498  1.00  0.00    -0.180 C  
HETATM   11  N   UNL     1      -9.564  12.445  68.517  1.00  0.00    -0.166 NA 
HETATM   12  C   UNL     1      -9.926   8.899  70.715  1.00  0.00    -0.226 C  
HETATM   13  O   UNL     1     -10.142   8.033  71.558  1.00  0.00    -0.173 OA 
HETATM   14  N   UNL     1      -9.530  11.117  69.060  1.00  0.00    -0.117 NA 
HETATM   15  C   UNL     1      -8.759   9.782  70.894  1.00  0.00     0.432 C  
HETATM   16  C   UNL     1      -8.636  10.819  70.065  1.00  0.00     0.874 C  
ENDROOT
BRANCH  10  17
HETATM   17  O   UNL     1     -11.934   8.334  69.318  1.00  0.00     1.161 OA 
BRANCH  17  18
HETATM   18  C   UNL     1     -11.757   7.017  68.807  1.00  0.00     0.739 C  
BRANCH  18  19
HETATM   19  O   UNL     1     -11.337   7.080  67.444  1.00  0.00    -0.167 OA 
BRANCH  19  20
HETATM   20  C   UNL     1     -10.053   6.693  67.277  1.00  0.00    -0.170 C  
HETATM   21  O   UNL     1      -9.104   7.003  67.984  1.00  0.00    -0.129 OA 
BRANCH  20  22
HETATM   22  O   UNL     1     -10.000   5.858  66.207  1.00  0.00    -0.141 OA 
HETATM   23  C   UNL     1      -9.481   6.473  65.034  1.00  0.00     1.137 C  
ENDBRANCH  20  22
ENDBRANCH  19  20
ENDBRANCH  18  19
ENDBRANCH  17  18
ENDBRANCH  10  17
BRANCH  11  24
HETATM   24  C   UNL     1      -9.954  13.582  69.469  1.00  0.00     0.803 C  
HETATM   25  C   UNL     1     -10.102  15.024  68.860  1.00  0.00    -0.234 A  
HETATM   26  C   UNL     1      -9.789  15.326  67.525  1.00  0.00    -0.213 A  
HETATM   27  C   UNL     1      -9.930  16.564  66.890  1.00  0.00    -0.273 A  
HETATM   28  C   UNL     1     -10.379  17.619  67.626  1.00  0.00    -0.368 A  
HETATM   29  C   UNL     1     -10.637  17.427  68.969  1.00  0.00    -0.207 A  
HETATM   30  F   UNL     1     -10.576  18.805  67.038  1.00  0.00    -0.394 F  
HETATM   31  F   UNL     1     -11.074  18.470  69.692  1.00  0.00     0.958 F  
HETATM   32  C   UNL     1     -10.476  16.160  69.601  1.00  0.00    -0.291 A  
HETATM   33  C   UNL     1     -10.895  16.063  71.030  1.00  0.00     0.108 C  
HETATM   34  S   UNL     1     -12.583  15.439  70.998  1.00  0.00    -0.462 SA 
HETATM   35  C   UNL     1     -12.246  13.689  70.900  1.00  0.00    -0.328 A  
HETATM   36  C   UNL     1     -13.288  12.951  71.510  1.00  0.00    -0.260 A  
HETATM   37  C   UNL     1     -13.160  11.603  71.804  1.00  0.00    -0.487 A  
HETATM   38  C   UNL     1     -11.950  10.986  71.551  1.00  0.00     0.146 A  
HETATM   39  C   UNL     1     -10.925  11.691  70.892  1.00  0.00     2.233 A  
HETATM   40  C   UNL     1     -11.080  13.034  70.447  1.00  0.00     1.023 A  
ENDBRANCH  11  24
TORSDOF 6
ENDMDL
MODEL      148
REMARK 921   NORMALIZED FREE ENERGY PREDICTED BY IDOCK:   15.09 KCAL/MOL
REMARK 922        TOTAL FREE ENERGY PREDICTED BY IDOCK:   19.65 KCAL/MOL
REMARK 923 INTER-LIGAND FREE ENERGY PREDICTED BY IDOCK:    8.65 KCAL/MOL
REMARK 924 INTRA-LIGAND FREE ENERGY PREDICTED BY IDOCK:   11.00 KCAL/MOL
REMARK 927      BINDING AFFINITY PREDICTED BY RF-SCORE:    0.00 PKD
ROOT
HETATM    1  C   UNL     1     -11.185  13.273  69.515  1.00  0.00    -0.097 C  
HETATM    2  C   UNL     1     -11.364  13.607  71.025  1.00  0.00     1.161 C  
HETATM    3  O   UNL     1     -12.630  13.217  71.575  1.00  0.00    -0.296 OA 
HETATM    4  C   UNL     1     -12.883  11.845  71.286  1.00  0.00    -0.290 C  
HETATM    5  C   UNL     1     -13.121  11.664  69.792  1.00  0.00     1.025 C  
HETATM    6  N   UNL     1     -12.189  12.402  68.940  1.00  0.00    -0.087 N  
HETATM    7  C   UNL     1     -12.269  12.268  67.555  1.00  0.00     0.331 C  
HETATM    8  O   UNL     1     -13.274  11.808  67.018  1.00  0.00     4.049 OA 
HETATM    9  C   UNL     1     -10.926  12.460  66.834  1.00  0.00    -0.265 C  
HETATM   10  C   UNL     1     -10.795  12.031  65.553  1.00  0.00    -0.292 C  
HETATM   11  N   UNL     1      -9.861  12.848  69.038  1.00  0.00     0.185 NA 
HETATM   12  C   UNL     1      -9.418  12.118  64.938  1.00  0.00     0.128 C  
HETATM   13  O   UNL     1      -9.152  11.670  63.826  1.00  0.00     0.032 OA 
HETATM   14  N   UNL     1      -9.809  12.865  67.603  1.00  0.00    -0.207 NA 
HETATM   15  C   UNL     1      -8.347  12.777  65.707  1.00  0.00     1.460 C  
HETATM   16  C   UNL     1      -8.607  13.105  66.973  1.00  0.00    -0.162 C  
ENDROOT
BRANCH  10  17
HETATM   17  O   UNL     1     -11.815  11.373  64.895  1.00  0.00     0.067 OA 
BRANCH  17  18
HETATM   18  C   UNL     1     -11.811  11.425  63.472  1.00  0.00     0.097 C  
BRANCH  18  19
HETATM   19  O   UNL     1     -12.499  12.594  63.029  1.00  0.00    -0.458 OA 
BRANCH  19  20
HETATM   20  C   UNL     1     -12.120  13.706  63.698  1.00  0.00    -0.342 C  
HETATM   21  O   UNL     1     -11.742  13.760  64.860  1.00  0.00    -0.335 OA 
BRANCH  20  22
HETATM   22  O   UNL     1     -12.188  14.757  62.841  1.00  0.00     0.800 OA 
HETATM   23  C   UNL     1     -11.959  16.014  63.466  1.00  0.00     1.788 C  
ENDBRANCH  20  22
ENDBRANCH  19  20
ENDBRANCH  18  19
ENDBRANCH  17  18
ENDBRANCH  10  17
BRANCH  11  24
HETATM   24  C   UNL     1      -9.042  11.768  69.757  1.00  0.00     1.879 C  
HETATM   25  C   UNL     1      -9.731  10.377  70.006  1.00  0.00     0.095 A  
HETATM   26  C   UNL     1     -11.079  10.125  69.701  1.00  0.00    -0.308 A  
HETATM   27  C   UNL     1     -11.760   8.913  69.849  1.00  0.00     0.321 A  
HETATM   28  C   UNL     1     -11.085   7.854  70.378  1.00  0.00    -0.245 A  
HETATM   29  C   UNL     1      -9.776   8.037  70.777  1.00  0.00    -0.165 A  
HETATM   30  F   UNL     1     -11.690   6.665  70.484  1.00  0.00    -0.362 F  
HETATM   31  F   UNL     1      -9.116   6.993  71.303  1.00  0.00    -0.148 F  
HETATM   32  C   UNL     1      -9.102   9.284  70.629  1.00  0.00    -0.309 A  
HETATM   33  C   UNL     1      -7.656   9.316  70.998  1.00  0.00    -0.059 C  
HETATM   34  S   UNL     1      -6.759   9.049  69.461  1.00  0.00    -0.048 SA 
HETATM   35  C   UNL     1      -6.717  10.725  68.852  1.00  0.00    -0.064 A  
HETATM   36  C   UNL     1      -5.565  10.933  68.057  1.00  0.00    -0.042 A  
HETATM   37  C   UNL     1      -5.152  12.200  67.678  1.00  0.00    -0.083 A  
HETATM   38  C   UNL     1      -5.855  13.291  68.151  1.00  0.00    -0.105 A  
HETATM   39  C   UNL     1      -7.036  13.099  68.892  1.00  0.00    -0.075 A  
HETATM   40  C   UNL     1      -7.565  11.808  69.174  1.00  0.00     0.080 A  
ENDBRANCH  11  24
TORSDOF 6
ENDMDL
MODEL      149
REMARK 921   NORMALIZED FREE ENERGY PREDICTED BY IDOCK:   15.94 KCAL/MOL
REMARK 922        TOTAL FREE ENERGY PREDICTED BY IDOCK:   20.79 KCAL/MOL
REMARK 923 INTER-LIGAND FREE ENERGY PREDICTED BY IDOCK:   15.79 KCAL/MOL
REMARK 924 INTRA-LIGAND FREE ENERGY PREDICTED BY IDOCK:    5.00 KCAL/MOL
REMARK 927      BINDING AFFINITY PREDICTED BY RF-SCORE:    0.00 PKD
ROOT
HETATM    1  C   UNL     1     -10.487   9.215  68.145  1.00  0.00    -0.211 C  
HETATM    2  C   UNL     1     -10.887   7.771  68.571  1.00  0.00     0.062 C  
HETATM    3  O   UNL     1     -11.698   7.072  67.617  1.00  0.00     0.471 OA 
HETATM    4  C   UNL     1     -11.081   7.112  66.333  1.00  0.00     1.114 C  
HETATM    5  C   UNL     1     -11.108   8.533  65.786  1.00  0.00     3.885 C  
HETATM    6  N   UNL     1     -10.760   9.562  66.766  1.00  0.00    -0.129 N  
HETATM    7  C   UNL     1     -10.692  10.896  66.368  1.00  0.00    -0.194 C  
HETATM    8  O   UNL     1     -11.209  11.274  65.320  1.00  0.00    -0.143 OA 
HETATM    9  C   UNL     1      -9.695  11.736  67.181  1.00  0.00    -0.183 C  
HETATM   10  C   UNL     1      -9.286  12.935  66.693  1.00  0.00    -0.240 C  
HETATM   11  N   UNL     1      -9.150   9.711  68.502  1.00  0.00    -0.130 NA 
HETATM   12  C   UNL     1      -8.204  13.656  67.461  1.00  0.00    -0.184 C  
HETATM   13  O   UNL     1      -7.682  14.695  67.066  1.00  0.00    -0.146 OA 
HETATM   14  N   UNL     1      -9.063  11.129  68.292  1.00  0.00    -0.156 NA 
HETATM   15  C   UNL     1      -7.759  13.088  68.747  1.00  0.00     0.004 C  
HETATM   16  C   UNL     1      -8.212  11.877  69.076  1.00  0.00     0.210 C  
ENDROOT
BRANCH  10  17
HETATM   17  O   UNL     1      -9.695  13.398  65.457  1.00  0.00    -0.175 OA 
BRANCH  17  18
HETATM   18  C   UNL     1     -10.469  14.593  65.435  1.00  0.00    -0.380 C  
BRANCH  18  19
HETATM   19  O   UNL     1      -9.698  15.678  65.952  1.00  0.00    -0.307 OA 
BRANCH  19  20
HETATM   20  C   UNL     1      -8.688  16.037  65.130  1.00  0.00     2.480 C  
HETATM   21  O   UNL     1      -8.375  15.489  64.082  1.00  0.00     7.874 OA 
BRANCH  20  22
HETATM   22  O   UNL     1      -8.100  17.147  65.646  1.00  0.00    -0.407 OA 
HETATM   23  C   UNL     1      -7.483  17.971  64.664  1.00  0.00     4.059 C  
ENDBRANCH  20  22
ENDBRANCH  19  20
ENDBRANCH  18  19
ENDBRANCH  17  18
ENDBRANCH  10  17
BRANCH  11  24
HETATM   24  C   UNL     1      -7.881   8.887  68.257  1.00  0.00    -0.101 C  
HETATM   25  C   UNL     1      -7.655   7.614  69.151  1.00  0.00    -0.100 A  
HETATM   26  C   UNL     1      -8.499   7.270  70.220  1.00  0.00    -0.137 A  
HETATM   27  C   UNL     1      -8.400   6.140  71.038  1.00  0.00    -0.124 A  
HETATM   28  C   UNL     1      -7.364   5.280  70.827  1.00  0.00    -0.073 A  
HETATM   29  C   UNL     1      -6.442   5.584  69.845  1.00  0.00    -0.034 A  
HETATM   30  F   UNL     1      -7.269   4.161  71.555  1.00  0.00    -0.043 F  
HETATM   31  F   UNL     1      -5.420   4.737  69.644  1.00  0.00    -0.006 F  
HETATM   32  C   UNL     1      -6.553   6.747  69.029  1.00  0.00    -0.041 A  
HETATM   33  C   UNL     1      -5.553   6.899  67.933  1.00  0.00    -0.016 C  
HETATM   34  S   UNL     1      -6.341   6.221  66.462  1.00  0.00    -0.043 SA 
HETATM   35  C   UNL     1      -7.252   7.660  65.931  1.00  0.00    -0.069 A  
HETATM   36  C   UNL     1      -7.414   7.651  64.525  1.00  0.00    -0.094 A  
HETATM   37  C   UNL     1      -7.850   8.765  63.827  1.00  0.00    -0.145 A  
HETATM   38  C   UNL     1      -8.068   9.937  64.526  1.00  0.00    -0.149 A  
HETATM   39  C   UNL     1      -7.970   9.946  65.931  1.00  0.00    -0.115 A  
HETATM   40  C   UNL     1      -7.664   8.780  66.687  1.00  0.00    -0.093 A  
ENDBRANCH  11  24
TORSDOF 6
ENDMDL
MODEL      150
REMARK 921   NORMALIZED FREE ENERGY PREDICTED BY IDOCK:   16.35 KCAL/MOL
REMARK 922        TOTAL FREE ENERGY PREDICTED BY IDOCK:   21.34 KCAL/MOL
REMARK 923 INTER-LIGAND FREE ENERGY PREDICTED BY IDOCK:    7.56 KCAL/MOL
REMARK 924 INTRA-LIGAND FREE ENERGY PREDICTED BY IDOCK:   13.79 KCAL/MOL
REMARK 927      BINDING AFFINITY PREDICTED BY RF-SCORE:    0.00 PKD
ROOT
HETATM    1  C   UNL     1     -11.007  17.649  68.249  1.00  0.00    -0.045 C  
HETATM    2  C   UNL     1     -10.899  18.994  69.027  1.00  0.00     1.055 C  
HETATM    3  O   UNL     1     -11.479  18.970  70.339  1.00  0.00     4.282 OA 
HETATM    4  C   UNL     1     -10.962  17.867  71.079  1.00  0.00     2.458 C  
HETATM    5  C   UNL     1     -11.472  16.560  70.488  1.00  0.00     0.016 C  
HETATM    6  N   UNL     1     -11.436  16.506  69.026  1.00  0.00    -0.193 N  
HETATM    7  C   UNL     1     -11.821  15.337  68.371  1.00  0.00    -0.260 C  
HETATM    8  O   UNL     1     -12.477  14.472  68.947  1.00  0.00    -0.118 OA 
HETATM    9  C   UNL     1     -11.117  15.120  67.022  1.00  0.00    -0.328 C  
HETATM   10  C   UNL     1     -11.141  13.888  66.454  1.00  0.00    -0.309 C  
HETATM   11  N   UNL     1      -9.890  17.243  67.384  1.00  0.00    -0.265 NA 
HETATM   12  C   UNL     1     -10.320  13.694  65.201  1.00  0.00    -0.364 C  
HETATM   13  O   UNL     1     -10.180  12.604  64.654  1.00  0.00    -0.313 OA 
HETATM   14  N   UNL     1     -10.276  16.150  66.537  1.00  0.00    -0.287 NA 
HETATM   15  C   UNL     1      -9.661  14.871  64.606  1.00  0.00     0.954 C  
HETATM   16  C   UNL     1      -9.682  16.009  65.302  1.00  0.00     0.180 C  
ENDROOT
BRANCH  10  17
HETATM   17  O   UNL     1     -11.729  12.806  67.079  1.00  0.00    -0.342 OA 
BRANCH  17  18
HETATM   18  C   UNL     1     -10.930  12.074  68.002  1.00  0.00    -0.223 C  
BRANCH  18  19
HETATM   19  O   UNL     1     -10.138  11.115  67.302  1.00  0.00    -0.181 OA 
BRANCH  19  20
HETATM   20  C   UNL     1      -9.814  10.050  68.069  1.00  0.00    -0.142 C  
HETATM   21  O   UNL     1      -9.390   8.972  67.673  1.00  0.00    -0.135 OA 
BRANCH  20  22
HETATM   22  O   UNL     1      -9.997  10.396  69.369  1.00  0.00    -0.216 OA 
HETATM   23  C   UNL     1      -9.474   9.445  70.289  1.00  0.00    -0.251 C  
ENDBRANCH  20  22
ENDBRANCH  19  20
ENDBRANCH  18  19
ENDBRANCH  17  18
ENDBRANCH  10  17
BRANCH  11  24
HETATM   24  C   UNL     1      -8.433  17.279  67.861  1.00  0.00    -0.218 C  
HETATM   25  C   UNL     1      -8.052  18.341  68.956  1.00  0.00    -0.091 A  
HETATM   26  C   UNL     1      -8.950  19.313  69.424  1.00  0.00     0.088 A  
HETATM   27  C   UNL     1      -8.712  20.265  70.421  1.00  0.00     1.619 A  
HETATM   28  C   UNL     1      -7.475  20.306  70.991  1.00  0.00     1.299 A  
HETATM   29  C   UNL     1      -6.506  19.435  70.533  1.00  0.00     0.126 A  
HETATM   30  F   UNL     1      -7.228  21.168  71.984  1.00  0.00     1.166 F  
HETATM   31  F   UNL     1      -5.287  19.482  71.093  1.00  0.00    -0.207 F  
HETATM   32  C   UNL     1      -6.765  18.479  69.508  1.00  0.00    -0.140 A  
HETATM   33  C   UNL     1      -5.665  17.524  69.184  1.00  0.00    -0.191 C  
HETATM   34  S   UNL     1      -6.003  16.049  70.159  1.00  0.00    -0.081 SA 
HETATM   35  C   UNL     1      -7.141  15.227  69.057  1.00  0.00    -0.141 A  
HETATM   36  C   UNL     1      -7.058  13.823  69.220  1.00  0.00    -0.004 A  
HETATM   37  C   UNL     1      -7.634  12.943  68.318  1.00  0.00    -0.134 A  
HETATM   38  C   UNL     1      -8.249  13.461  67.194  1.00  0.00    -0.121 A  
HETATM   39  C   UNL     1      -8.393  14.854  67.049  1.00  0.00    -0.246 A  
HETATM   40  C   UNL     1      -7.938  15.779  68.030  1.00  0.00    -0.141 A  
ENDBRANCH  11  24
TORSDOF 6
ENDMDL
MODEL      151
REMARK 921   NORMALIZED FREE ENERGY PREDICTED BY IDOCK:   18.07 KCAL/MOL
REMARK 922        TOTAL FREE ENERGY PREDICTED BY IDOCK:   23.68 KCAL/MOL
REMARK 923 INTER-LIGAND FREE ENERGY PREDICTED BY IDOCK:   18.05 KCAL/MOL
REMARK 924 INTRA-LIGAND FREE ENERGY PREDICTED BY IDOCK:    5.63 KCAL/MOL
REMARK 927      BINDING AFFINITY PREDICTED BY RF-SCORE:    0.00 PKD
ROOT
HETATM    1  C   UNL     1     -10.321  10.689  63.892  1.00  0.00    -0.152 C  
HETATM    2  C   UNL     1     -11.402  11.749  63.527  1.00  0.00    -0.405 C  
HETATM    3  O   UNL     1     -12.682  11.528  64.135  1.00  0.00    -0.034 OA 
HETATM    4  C   UNL     1     -12.530  11.366  65.543  1.00  0.00     2.288 C  
HETATM    5  C   UNL     1     -11.811  10.057  65.841  1.00  0.00     4.064 C  
HETATM    6  N   UNL     1     -10.664   9.789  64.973  1.00  0.00     1.074 N  
HETATM    7  C   UNL     1      -9.890   8.649  65.188  1.00  0.00     1.015 C  
HETATM    8  O   UNL     1     -10.309   7.714  65.865  1.00  0.00     0.622 OA 
HETATM    9  C   UNL     1      -8.421   8.808  64.766  1.00  0.00    -0.160 C  
HETATM   10  C   UNL     1      -7.501   7.920  65.223  1.00  0.00    -0.081 C  
HETATM   11  N   UNL     1      -8.930  11.131  64.067  1.00  0.00    -0.049 NA 
HETATM   12  C   UNL     1      -6.055   8.200  64.892  1.00  0.00    -0.048 C  
HETATM   13  O   UNL     1      -5.126   7.528  65.332  1.00  0.00    -0.027 OA 
HETATM   14  N   UNL     1      -8.042  10.003  64.110  1.00  0.00    -0.148 NA 
HETATM   15  C   UNL     1      -5.745   9.328  63.995  1.00  0.00    -0.071 C  
HETATM   16  C   UNL     1      -6.745  10.146  63.665  1.00  0.00    -0.117 C  
ENDROOT
BRANCH  10  17
HETATM   17  O   UNL     1      -7.836   6.909  66.103  1.00  0.00    -0.095 OA 
BRANCH  17  18
HETATM   18  C   UNL     1      -6.967   6.699  67.211  1.00  0.00    -0.078 C  
BRANCH  18  19
HETATM   19  O   UNL     1      -7.735   6.518  68.400  1.00  0.00    -0.101 OA 
BRANCH  19  20
HETATM   20  C   UNL     1      -7.948   5.214  68.689  1.00  0.00    -0.086 C  
HETATM   21  O   UNL     1      -8.269   4.339  67.897  1.00  0.00    -0.093 OA 
BRANCH  20  22
HETATM   22  O   UNL     1      -7.701   5.030  70.011  1.00  0.00    -0.061 OA 
HETATM   23  C   UNL     1      -8.864   4.712  70.766  1.00  0.00    -0.119 C  
ENDBRANCH  20  22
ENDBRANCH  19  20
ENDBRANCH  18  19
ENDBRANCH  17  18
ENDBRANCH  10  17
BRANCH  11  24
HETATM   24  C   UNL     1      -8.561  12.347  64.924  1.00  0.00     1.828 C  
HETATM   25  C   UNL     1      -9.332  13.690  64.653  1.00  0.00     1.414 A  
HETATM   26  C   UNL     1     -10.251  13.846  63.602  1.00  0.00     2.408 A  
HETATM   27  C   UNL     1     -11.011  14.984  63.314  1.00  0.00     3.774 A  
HETATM   28  C   UNL     1     -10.837  16.089  64.092  1.00  0.00     0.842 A  
HETATM   29  C   UNL     1      -9.895  16.047  65.101  1.00  0.00     0.268 A  
HETATM   30  F   UNL     1     -11.585  17.178  63.877  1.00  0.00     0.284 F  
HETATM   31  F   UNL     1      -9.723  17.140  65.861  1.00  0.00    -0.279 F  
HETATM   32  C   UNL     1      -9.122  14.881  65.372  1.00  0.00     0.853 A  
HETATM   33  C   UNL     1      -8.220  14.933  66.559  1.00  0.00     0.227 C  
HETATM   34  S   UNL     1      -9.156  14.198  67.910  1.00  0.00    -0.198 SA 
HETATM   35  C   UNL     1      -8.792  12.476  67.615  1.00  0.00    -0.179 A  
HETATM   36  C   UNL     1      -8.821  11.750  68.830  1.00  0.00     0.018 A  
HETATM   37  C   UNL     1      -8.325  10.461  68.928  1.00  0.00    -0.138 A  
HETATM   38  C   UNL     1      -7.724   9.900  67.816  1.00  0.00    -0.091 A  
HETATM   39  C   UNL     1      -7.742  10.585  66.587  1.00  0.00    -0.123 A  
HETATM   40  C   UNL     1      -8.372  11.849  66.421  1.00  0.00     0.005 A  
ENDBRANCH  11  24
TORSDOF 6
ENDMDL
MODEL      152
REMARK 921   NORMALIZED FREE ENERGY PREDICTED BY IDOCK:   18.91 KCAL/MOL
REMARK 922        TOTAL FREE ENERGY PREDICTED BY IDOCK:   24.80 KCAL/MOL
REMARK 923 INTER-LIGAND FREE ENERGY PREDICTED BY IDOCK:   15.87 KCAL/MOL
REMARK 924 INTRA-LIGAND FREE ENERGY PREDICTED BY IDOCK:    8.93 KCAL/MOL
REMARK 927      BINDING AFFINITY PREDICTED BY RF-SCORE:    0.00 PKD
ROOT
HETATM    1  C   UNL     1     -11.203  13.431  69.521  1.00  0.00    -0.117 C  
HETATM    2  C   UNL     1     -11.068  13.221  71.058  1.00  0.00     2.468 C  
HETATM    3  O   UNL     1     -12.176  12.542  71.665  1.00  0.00     0.138 OA 
HETATM    4  C   UNL     1     -12.444  11.327  70.969  1.00  0.00    -0.400 C  
HETATM    5  C   UNL     1     -12.987  11.634  69.579  1.00  0.00     1.032 C  
HETATM    6  N   UNL     1     -12.279  12.706  68.879  1.00  0.00    -0.086 N  
HETATM    7  C   UNL     1     -12.647  13.036  67.575  1.00  0.00     0.829 C  
HETATM    8  O   UNL     1     -13.728  12.682  67.111  1.00  0.00     5.245 OA 
HETATM    9  C   UNL     1     -11.493  13.594  66.727  1.00  0.00    -0.346 C  
HETATM   10  C   UNL     1     -11.624  13.634  65.377  1.00  0.00    -0.321 C  
HETATM   11  N   UNL     1      -9.998  13.327  68.685  1.00  0.00    -0.175 NA 
HETATM   12  C   UNL     1     -10.412  14.061  64.583  1.00  0.00    -0.373 C  
HETATM   13  O   UNL     1     -10.374  14.041  63.356  1.00  0.00     1.708 OA 
HETATM   14  N   UNL     1     -10.251  13.829  67.364  1.00  0.00    -0.250 NA 
HETATM   15  C   UNL     1      -9.222  14.530  65.317  1.00  0.00     0.889 C  
HETATM   16  C   UNL     1      -9.219  14.387  66.643  1.00  0.00    -0.261 C  
ENDROOT
BRANCH  10  17
HETATM   17  O   UNL     1     -12.740  13.134  64.735  1.00  0.00    -0.648 OA 
BRANCH  17  18
HETATM   18  C   UNL     1     -13.237  13.873  63.625  1.00  0.00     1.994 C  
BRANCH  18  19
HETATM   19  O   UNL     1     -13.498  15.220  64.018  1.00  0.00     0.599 OA 
BRANCH  19  20
HETATM   20  C   UNL     1     -12.492  15.754  64.747  1.00  0.00     0.600 C  
HETATM   21  O   UNL     1     -11.527  16.366  64.312  1.00  0.00    -0.876 OA 
BRANCH  20  22
HETATM   22  O   UNL     1     -12.760  15.530  66.060  1.00  0.00     1.177 OA 
HETATM   23  C   UNL     1     -12.667  16.700  66.864  1.00  0.00     4.525 C  
ENDBRANCH  20  22
ENDBRANCH  19  20
ENDBRANCH  18  19
ENDBRANCH  17  18
ENDBRANCH  10  17
BRANCH  11  24
HETATM   24  C   UNL     1      -9.013  12.159  68.815  1.00  0.00     0.118 C  
HETATM   25  C   UNL     1      -9.428  10.783  68.178  1.00  0.00    -0.161 A  
HETATM   26  C   UNL     1     -10.690  10.555  67.603  1.00  0.00    -0.324 A  
HETATM   27  C   UNL     1     -11.128   9.383  66.979  1.00  0.00     0.277 A  
HETATM   28  C   UNL     1     -10.280   8.317  66.942  1.00  0.00    -0.318 A  
HETATM   29  C   UNL     1      -9.047   8.430  67.553  1.00  0.00    -0.134 A  
HETATM   30  F   UNL     1     -10.647   7.197  66.306  1.00  0.00    -0.174 F  
HETATM   31  F   UNL     1      -8.218   7.374  67.519  1.00  0.00    -0.109 F  
HETATM   32  C   UNL     1      -8.623   9.629  68.195  1.00  0.00    -0.119 A  
HETATM   33  C   UNL     1      -7.226   9.654  68.718  1.00  0.00    -0.072 C  
HETATM   34  S   UNL     1      -6.236  10.414  67.420  1.00  0.00    -0.058 SA 
HETATM   35  C   UNL     1      -6.498  12.133  67.822  1.00  0.00    -0.095 A  
HETATM   36  C   UNL     1      -5.378  12.907  67.433  1.00  0.00     0.007 A  
HETATM   37  C   UNL     1      -5.205  14.214  67.856  1.00  0.00    -0.058 A  
HETATM   38  C   UNL     1      -6.123  14.747  68.740  1.00  0.00    -0.083 A  
HETATM   39  C   UNL     1      -7.272  14.012  69.089  1.00  0.00    -0.059 A  
HETATM   40  C   UNL     1      -7.551  12.723  68.556  1.00  0.00    -0.120 A  
ENDBRANCH  11  24
TORSDOF 6
ENDMDL
MODEL      153
REMARK 921   NORMALIZED FREE ENERGY PREDICTED BY IDOCK:   23.58 KCAL/MOL
REMARK 922        TOTAL FREE ENERGY PREDICTED BY IDOCK:   31.11 KCAL/MOL
REMARK 923 INTER-LIGAND FREE ENERGY PREDICTED BY IDOCK:   25.21 KCAL/MOL
REMARK 924 INTRA-LIGAND FREE ENERGY PREDICTED BY IDOCK:    5.90 KCAL/MOL
REMARK 927      BINDING AFFINITY PREDICTED BY RF-SCORE:    0.00 PKD
ROOT
HETATM    1  C   UNL     1      -6.645  14.277  67.804  1.00  0.00    -0.174 C  
HETATM    2  C   UNL     1      -6.696  15.105  66.486  1.00  0.00     2.008 C  
HETATM    3  O   UNL     1      -7.617  14.606  65.506  1.00  0.00     4.099 OA 
HETATM    4  C   UNL     1      -8.905  14.432  66.092  1.00  0.00     0.261 C  
HETATM    5  C   UNL     1      -8.868  13.289  67.098  1.00  0.00    -0.222 C  
HETATM    6  N   UNL     1      -7.692  13.290  67.968  1.00  0.00    -0.131 N  
HETATM    7  C   UNL     1      -7.576  12.327  68.969  1.00  0.00     0.103 C  
HETATM    8  O   UNL     1      -8.256  11.304  68.950  1.00  0.00    -0.141 OA 
HETATM    9  C   UNL     1      -6.774  12.797  70.193  1.00  0.00     0.509 C  
HETATM   10  C   UNL     1      -6.871  12.102  71.355  1.00  0.00     4.344 C  
HETATM   11  N   UNL     1      -6.460  14.988  69.077  1.00  0.00    -0.098 NA 
HETATM   12  C   UNL     1      -6.173  12.683  72.562  1.00  0.00     3.280 C  
HETATM   13  O   UNL     1      -6.271  12.202  73.687  1.00  0.00     2.189 OA 
HETATM   14  N   UNL     1      -6.149  14.066  70.133  1.00  0.00    -0.148 NA 
HETATM   15  C   UNL     1      -5.332  13.880  72.378  1.00  0.00    -0.201 C  
HETATM   16  C   UNL     1      -5.372  14.486  71.190  1.00  0.00    -0.153 C  
ENDROOT
BRANCH  10  17
HETATM   17  O   UNL     1      -7.714  11.016  71.488  1.00  0.00     4.085 OA 
BRANCH  17  18
HETATM   18  C   UNL     1      -7.421   9.866  70.703  1.00  0.00     0.075 C  
BRANCH  18  19
HETATM   19  O   UNL     1      -6.655   8.938  71.470  1.00  0.00    -0.078 OA 
BRANCH  19  20
HETATM   20  C   UNL     1      -6.853   9.075  72.800  1.00  0.00     0.330 C  
HETATM   21  O   UNL     1      -6.129   9.674  73.584  1.00  0.00    -0.258 OA 
BRANCH  20  22
HETATM   22  O   UNL     1      -8.026   8.467  73.116  1.00  0.00    -0.354 OA 
HETATM   23  C   UNL     1      -8.217   7.224  72.452  1.00  0.00    -0.100 C  
ENDBRANCH  20  22
ENDBRANCH  19  20
ENDBRANCH  18  19
ENDBRANCH  17  18
ENDBRANCH  10  17
BRANCH  11  24
HETATM   24  C   UNL     1      -7.285  16.225  69.448  1.00  0.00    -0.192 C  
HETATM   25  C   UNL     1      -7.139  17.499  68.537  1.00  0.00    -0.226 A  
HETATM   26  C   UNL     1      -6.216  17.583  67.482  1.00  0.00    -0.167 A  
HETATM   27  C   UNL     1      -6.047  18.653  66.598  1.00  0.00    -0.177 A  
HETATM   28  C   UNL     1      -6.817  19.763  66.775  1.00  0.00    -0.200 A  
HETATM   29  C   UNL     1      -7.697  19.795  67.838  1.00  0.00    -0.295 A  
HETATM   30  F   UNL     1      -6.719  20.785  65.916  1.00  0.00    -0.260 F  
HETATM   31  F   UNL     1      -8.450  20.893  68.013  1.00  0.00    -0.069 F  
HETATM   32  C   UNL     1      -7.847  18.698  68.736  1.00  0.00    -0.319 A  
HETATM   33  C   UNL     1      -8.911  18.819  69.775  1.00  0.00     0.935 C  
HETATM   34  S   UNL     1     -10.357  17.996  69.084  1.00  0.00     0.143 SA 
HETATM   35  C   UNL     1      -9.986  16.315  69.552  1.00  0.00    -0.190 A  
HETATM   36  C   UNL     1     -11.181  15.580  69.740  1.00  0.00    -0.307 A  
HETATM   37  C   UNL     1     -11.192  14.338  70.353  1.00  0.00     0.001 A  
HETATM   38  C   UNL     1     -10.004  13.839  70.851  1.00  0.00     4.518 A  
HETATM   39  C   UNL     1      -8.799  14.529  70.619  1.00  0.00     2.495 A  
HETATM   40  C   UNL     1      -8.737  15.735  69.868  1.00  0.00     0.299 A  
ENDBRANCH  11  24
TORSDOF 6
ENDMDL
MODEL      154
REMARK 921   NORMALIZED FREE ENERGY PREDICTED BY IDOCK:   26.11 KCAL/MOL
REMARK 922        TOTAL FREE ENERGY PREDICTED BY IDOCK:   34.52 KCAL/MOL
REMARK 923 INTER-LIGAND FREE ENERGY PREDICTED BY IDOCK:   14.24 KCAL/MOL
REMARK 924 INTRA-LIGAND FREE ENERGY PREDICTED BY IDOCK:   20.29 KCAL/MOL
REMARK 927      BINDING AFFINITY PREDICTED BY RF-SCORE:    0.00 PKD
ROOT
HETATM    1  C   UNL     1     -12.425  11.119  70.495  1.00  0.00    -0.327 C  
HETATM    2  C   UNL     1     -12.694  10.805  71.997  1.00  0.00    -0.143 C  
HETATM    3  O   UNL     1     -12.136   9.565  72.454  1.00  0.00    -0.147 OA 
HETATM    4  C   UNL     1     -10.751   9.502  72.122  1.00  0.00     0.746 C  
HETATM    5  C   UNL     1     -10.584   9.383  70.612  1.00  0.00    -0.290 C  
HETATM    6  N   UNL     1     -11.455  10.269  69.839  1.00  0.00    -0.264 N  
HETATM    7  C   UNL     1     -11.350  10.293  68.449  1.00  0.00    -0.178 C  
HETATM    8  O   UNL     1     -10.786   9.390  67.837  1.00  0.00    -0.249 OA 
HETATM    9  C   UNL     1     -11.725  11.646  67.822  1.00  0.00    -0.245 C  
HETATM   10  C   UNL     1     -11.351  11.909  66.545  1.00  0.00    -0.341 C  
HETATM   11  N   UNL     1     -12.179  12.513  70.099  1.00  0.00    -0.276 NA 
HETATM   12  C   UNL     1     -11.623  13.301  66.024  1.00  0.00    -0.349 C  
HETATM   13  O   UNL     1     -11.241  13.690  64.923  1.00  0.00    -0.317 OA 
HETATM   14  N   UNL     1     -12.242  12.653  68.671  1.00  0.00    -0.067 NA 
HETATM   15  C   UNL     1     -12.386  14.232  66.875  1.00  0.00    -0.240 C  
HETATM   16  C   UNL     1     -12.645  13.853  68.127  1.00  0.00     0.585 C  
ENDROOT
BRANCH  10  17
HETATM   17  O   UNL     1     -10.592  11.022  65.807  1.00  0.00    -0.247 OA 
BRANCH  17  18
HETATM   18  C   UNL     1     -10.174   9.827  66.459  1.00  0.00    -0.219 C  
BRANCH  18  19
HETATM   19  O   UNL     1     -10.180   8.742  65.531  1.00  0.00     0.422 OA 
BRANCH  19  20
HETATM   20  C   UNL     1     -10.065   7.539  66.136  1.00  0.00     0.326 C  
HETATM   21  O   UNL     1      -9.495   6.553  65.689  1.00  0.00     0.126 OA 
BRANCH  20  22
HETATM   22  O   UNL     1     -10.655   7.624  67.356  1.00  0.00    -0.274 OA 
HETATM   23  C   UNL     1     -10.027   8.557  68.227  1.00  0.00    -0.184 C  
ENDBRANCH  20  22
ENDBRANCH  19  20
ENDBRANCH  18  19
ENDBRANCH  17  18
ENDBRANCH  10  17
BRANCH  11  24
HETATM   24  C   UNL     1     -11.188  13.412  70.849  1.00  0.00     1.581 C  
HETATM   25  C   UNL     1      -9.877  13.839  70.093  1.00  0.00     2.125 A  
HETATM   26  C   UNL     1      -9.531  13.349  68.823  1.00  0.00     0.061 A  
HETATM   27  C   UNL     1      -8.413  13.705  68.063  1.00  0.00    -0.174 A  
HETATM   28  C   UNL     1      -7.524  14.588  68.597  1.00  0.00    -0.128 A  
HETATM   29  C   UNL     1      -7.748  15.061  69.875  1.00  0.00     0.069 A  
HETATM   30  F   UNL     1      -6.471  14.991  67.876  1.00  0.00    -0.107 F  
HETATM   31  F   UNL     1      -6.867  15.927  70.400  1.00  0.00     0.008 F  
HETATM   32  C   UNL     1      -8.888  14.678  70.640  1.00  0.00     2.224 A  
HETATM   33  C   UNL     1      -9.068  15.346  71.962  1.00  0.00     5.945 C  
HETATM   34  S   UNL     1     -10.176  16.732  71.656  1.00  0.00     4.501 SA 
HETATM   35  C   UNL     1     -11.742  15.887  71.786  1.00  0.00    -0.491 A  
HETATM   36  C   UNL     1     -12.745  16.775  72.244  1.00  0.00     1.412 A  
HETATM   37  C   UNL     1     -13.981  16.326  72.679  1.00  0.00     0.239 A  
HETATM   38  C   UNL     1     -14.208  14.963  72.727  1.00  0.00     0.013 A  
HETATM   39  C   UNL     1     -13.244  14.072  72.219  1.00  0.00    -0.558 A  
HETATM   40  C   UNL     1     -12.025  14.511  71.633  1.00  0.00    -0.328 A  
ENDBRANCH  11  24
TORSDOF 6
ENDMDL
MODEL      155
REMARK 921   NORMALIZED FREE ENERGY PREDICTED BY IDOCK:   27.28 KCAL/MOL
REMARK 922        TOTAL FREE ENERGY PREDICTED BY IDOCK:   36.11 KCAL/MOL
REMARK 923 INTER-LIGAND FREE ENERGY PREDICTED BY IDOCK:   25.70 KCAL/MOL
REMARK 924 INTRA-LIGAND FREE ENERGY PREDICTED BY IDOCK:   10.40 KCAL/MOL
REMARK 927      BINDING AFFINITY PREDICTED BY RF-SCORE:    0.00 PKD
ROOT
HETATM    1  C   UNL     1     -10.440  10.959  68.889  1.00  0.00    -0.203 C  
HETATM    2  C   UNL     1     -10.647   9.452  68.557  1.00  0.00    -0.197 C  
HETATM    3  O   UNL     1     -11.970   8.962  68.816  1.00  0.00     1.463 OA 
HETATM    4  C   UNL     1     -12.932   9.799  68.179  1.00  0.00     7.588 C  
HETATM    5  C   UNL     1     -12.965  11.162  68.857  1.00  0.00     1.930 C  
HETATM    6  N   UNL     1     -11.645  11.714  69.164  1.00  0.00    -0.285 N  
HETATM    7  C   UNL     1     -11.545  12.983  69.731  1.00  0.00    -0.216 C  
HETATM    8  O   UNL     1     -12.513  13.520  70.263  1.00  0.00    -0.302 OA 
HETATM    9  C   UNL     1     -10.248  13.725  69.368  1.00  0.00     0.322 C  
HETATM   10  C   UNL     1     -10.175  15.065  69.565  1.00  0.00    -0.188 C  
HETATM   11  N   UNL     1      -9.567  11.760  68.019  1.00  0.00    -0.181 NA 
HETATM   12  C   UNL     1      -8.934  15.765  69.066  1.00  0.00    -0.246 C  
HETATM   13  O   UNL     1      -8.795  16.985  69.095  1.00  0.00    -0.180 OA 
HETATM   14  N   UNL     1      -9.265  13.024  68.629  1.00  0.00    -0.043 NA 
HETATM   15  C   UNL     1      -7.835  14.944  68.524  1.00  0.00    -0.126 C  
HETATM   16  C   UNL     1      -8.068  13.643  68.344  1.00  0.00    -0.146 C  
ENDROOT
BRANCH  10  17
HETATM   17  O   UNL     1     -11.252  15.796  70.029  1.00  0.00    -0.282 OA 
BRANCH  17  18
HETATM   18  C   UNL     1     -11.232  17.201  69.799  1.00  0.00     0.687 C  
BRANCH  18  19
HETATM   19  O   UNL     1      -9.900  17.624  69.510  1.00  0.00    -0.002 OA 
BRANCH  19  20
HETATM   20  C   UNL     1      -9.610  18.831  70.047  1.00  0.00     1.102 C  
HETATM   21  O   UNL     1      -8.891  19.690  69.556  1.00  0.00    -0.011 OA 
BRANCH  20  22
HETATM   22  O   UNL     1     -10.295  18.947  71.214  1.00  0.00     1.951 OA 
HETATM   23  C   UNL     1     -10.519  17.703  71.866  1.00  0.00     4.046 C  
ENDBRANCH  20  22
ENDBRANCH  19  20
ENDBRANCH  18  19
ENDBRANCH  17  18
ENDBRANCH  10  17
BRANCH  11  24
HETATM   24  C   UNL     1      -9.689  11.731  66.491  1.00  0.00    -0.206 C  
HETATM   25  C   UNL     1     -10.412  12.941  65.794  1.00  0.00    -0.293 A  
HETATM   26  C   UNL     1     -11.037  13.974  66.511  1.00  0.00    -0.315 A  
HETATM   27  C   UNL     1     -11.664  15.105  65.978  1.00  0.00     0.003 A  
HETATM   28  C   UNL     1     -11.726  15.229  64.623  1.00  0.00    -0.308 A  
HETATM   29  C   UNL     1     -11.204  14.218  63.841  1.00  0.00     0.425 A  
HETATM   30  F   UNL     1     -12.271  16.324  64.079  1.00  0.00    -0.327 F  
HETATM   31  F   UNL     1     -11.274  14.341  62.506  1.00  0.00     2.667 F  
HETATM   32  C   UNL     1     -10.580  13.066  64.403  1.00  0.00    -0.429 A  
HETATM   33  C   UNL     1      -9.959  12.103  63.447  1.00  0.00    -0.275 C  
HETATM   34  S   UNL     1      -8.222  12.566  63.352  1.00  0.00     5.335 SA 
HETATM   35  C   UNL     1      -7.605  11.674  64.769  1.00  0.00     1.991 A  
HETATM   36  C   UNL     1      -6.251  11.310  64.571  1.00  0.00     1.327 A  
HETATM   37  C   UNL     1      -5.609  10.395  65.389  1.00  0.00    -0.121 A  
HETATM   38  C   UNL     1      -6.340   9.775  66.385  1.00  0.00    -0.070 A  
HETATM   39  C   UNL     1      -7.668  10.169  66.632  1.00  0.00    -0.106 A  
HETATM   40  C   UNL     1      -8.309  11.209  65.902  1.00  0.00    -0.076 A  
ENDBRANCH  11  24
TORSDOF 6
ENDMDL
MODEL      156
REMARK 921   NORMALIZED FREE ENERGY PREDICTED BY IDOCK:   27.78 KCAL/MOL
REMARK 922        TOTAL FREE ENERGY PREDICTED BY IDOCK:   36.78 KCAL/MOL
REMARK 923 INTER-LIGAND FREE ENERGY PREDICTED BY IDOCK:   32.76 KCAL/MOL
REMARK 924 INTRA-LIGAND FREE ENERGY PREDICTED BY IDOCK:    4.02 KCAL/MOL
REMARK 927      BINDING AFFINITY PREDICTED BY RF-SCORE:    0.00 PKD
ROOT
HETATM    1  C   UNL     1      -6.536  14.817  68.520  1.00  0.00    -0.094 C  
HETATM    2  C   UNL     1      -6.809  16.287  68.082  1.00  0.00    -0.128 C  
HETATM    3  O   UNL     1      -6.510  16.562  66.706  1.00  0.00    -0.210 OA 
HETATM    4  C   UNL     1      -7.162  15.612  65.867  1.00  0.00     3.152 C  
HETATM    5  C   UNL     1      -6.534  14.237  66.054  1.00  0.00     6.399 C  
HETATM    6  N   UNL     1      -6.270  13.880  67.449  1.00  0.00     0.023 N  
HETATM    7  C   UNL     1      -5.752  12.622  67.750  1.00  0.00    -0.122 C  
HETATM    8  O   UNL     1      -5.224  11.927  66.886  1.00  0.00    -0.148 OA 
HETATM    9  C   UNL     1      -6.163  12.097  69.135  1.00  0.00    -0.088 C  
HETATM   10  C   UNL     1      -6.017  10.777  69.413  1.00  0.00    -0.046 C  
HETATM   11  N   UNL     1      -7.450  14.187  69.484  1.00  0.00     0.074 NA 
HETATM   12  C   UNL     1      -6.563  10.290  70.734  1.00  0.00     0.048 C  
HETATM   13  O   UNL     1      -6.581   9.105  71.055  1.00  0.00    -0.071 OA 
HETATM   14  N   UNL     1      -6.892  12.963  69.986  1.00  0.00     0.344 NA 
HETATM   15  C   UNL     1      -7.091  11.285  71.685  1.00  0.00     5.061 C  
HETATM   16  C   UNL     1      -7.219  12.541  71.256  1.00  0.00     5.711 C  
ENDROOT
BRANCH  10  17
HETATM   17  O   UNL     1      -5.564   9.877  68.468  1.00  0.00    -0.039 OA 
BRANCH  17  18
HETATM   18  C   UNL     1      -6.365   9.697  67.306  1.00  0.00    -0.068 C  
BRANCH  18  19
HETATM   19  O   UNL     1      -7.478   8.857  67.611  1.00  0.00    -0.090 OA 
BRANCH  19  20
HETATM   20  C   UNL     1      -7.110   7.591  67.907  1.00  0.00    -0.085 C  
HETATM   21  O   UNL     1      -7.344   6.991  68.947  1.00  0.00    -0.088 OA 
BRANCH  20  22
HETATM   22  O   UNL     1      -6.466   7.077  66.827  1.00  0.00    -0.047 OA 
HETATM   23  C   UNL     1      -7.111   5.938  66.272  1.00  0.00    -0.068 C  
ENDBRANCH  20  22
ENDBRANCH  19  20
ENDBRANCH  18  19
ENDBRANCH  17  18
ENDBRANCH  10  17
BRANCH  11  24
HETATM   24  C   UNL     1      -8.973  14.250  69.326  1.00  0.00     0.282 C  
HETATM   25  C   UNL     1      -9.684  15.614  69.651  1.00  0.00    -0.276 A  
HETATM   26  C   UNL     1      -9.003  16.725  70.177  1.00  0.00     1.908 A  
HETATM   27  C   UNL     1      -9.542  17.985  70.456  1.00  0.00     2.995 A  
HETATM   28  C   UNL     1     -10.874  18.178  70.241  1.00  0.00     2.059 A  
HETATM   29  C   UNL     1     -11.634  17.114  69.797  1.00  0.00     1.448 A  
HETATM   30  F   UNL     1     -11.413  19.386  70.446  1.00  0.00     2.953 F  
HETATM   31  F   UNL     1     -12.947  17.307  69.593  1.00  0.00     3.933 F  
HETATM   32  C   UNL     1     -11.068  15.833  69.530  1.00  0.00    -0.306 A  
HETATM   33  C   UNL     1     -11.979  14.803  68.950  1.00  0.00    -0.263 C  
HETATM   34  S   UNL     1     -11.736  14.892  67.168  1.00  0.00    -0.196 SA 
HETATM   35  C   UNL     1     -10.312  13.828  67.014  1.00  0.00    -0.260 A  
HETATM   36  C   UNL     1     -10.304  13.195  65.748  1.00  0.00    -0.294 A  
HETATM   37  C   UNL     1      -9.464  12.131  65.464  1.00  0.00    -0.077 A  
HETATM   38  C   UNL     1      -8.662  11.636  66.475  1.00  0.00    -0.182 A  
HETATM   39  C   UNL     1      -8.615  12.292  67.720  1.00  0.00    -0.170 A  
HETATM   40  C   UNL     1      -9.358  13.474  67.994  1.00  0.00    -0.213 A  
ENDBRANCH  11  24
TORSDOF 6
ENDMDL
MODEL      157
REMARK 921   NORMALIZED FREE ENERGY PREDICTED BY IDOCK:   28.20 KCAL/MOL
REMARK 922        TOTAL FREE ENERGY PREDICTED BY IDOCK:   37.35 KCAL/MOL
REMARK 923 INTER-LIGAND FREE ENERGY PREDICTED BY IDOCK:    7.26 KCAL/MOL
REMARK 924 INTRA-LIGAND FREE ENERGY PREDICTED BY IDOCK:   30.09 KCAL/MOL
REMARK 927      BINDING AFFINITY PREDICTED BY RF-SCORE:    0.00 PKD
ROOT
HETATM    1  C   UNL     1     -11.687  14.231  69.058  1.00  0.00    -0.317 C  
HETATM    2  C   UNL     1     -13.129  14.820  69.043  1.00  0.00     1.523 C  
HETATM    3  O   UNL     1     -13.194  16.228  68.772  1.00  0.00     1.783 OA 
HETATM    4  C   UNL     1     -12.468  16.528  67.583  1.00  0.00     2.372 C  
HETATM    5  C   UNL     1     -10.977  16.323  67.817  1.00  0.00    -0.281 C  
HETATM    6  N   UNL     1     -10.646  15.103  68.554  1.00  0.00    -0.232 N  
HETATM    7  C   UNL     1      -9.310  14.776  68.778  1.00  0.00    -0.198 C  
HETATM    8  O   UNL     1      -8.420  15.615  68.656  1.00  0.00    -0.159 OA 
HETATM    9  C   UNL     1      -9.051  13.265  68.887  1.00  0.00     0.281 C  
HETATM   10  C   UNL     1      -7.781  12.800  68.764  1.00  0.00     0.007 C  
HETATM   11  N   UNL     1     -11.472  12.879  68.523  1.00  0.00    -0.286 NA 
HETATM   12  C   UNL     1      -7.598  11.302  68.741  1.00  0.00    -0.130 C  
HETATM   13  O   UNL     1      -6.515  10.762  68.535  1.00  0.00    -0.053 OA 
HETATM   14  N   UNL     1     -10.167  12.395  68.878  1.00  0.00    -0.079 NA 
HETATM   15  C   UNL     1      -8.776  10.447  68.983  1.00  0.00    -0.170 C  
HETATM   16  C   UNL     1      -9.969  11.041  69.037  1.00  0.00    -0.167 C  
ENDROOT
BRANCH  10  17
HETATM   17  O   UNL     1      -6.720  13.639  68.487  1.00  0.00    -0.080 OA 
BRANCH  17  18
HETATM   18  C   UNL     1      -6.747  14.937  69.071  1.00  0.00    -0.117 C  
BRANCH  18  19
HETATM   19  O   UNL     1      -7.662  15.770  68.359  1.00  0.00    -0.122 OA 
BRANCH  19  20
HETATM   20  C   UNL     1      -7.069  16.868  67.840  1.00  0.00    -0.152 C  
HETATM   21  O   UNL     1      -7.626  17.908  67.515  1.00  0.00    -0.205 OA 
BRANCH  20  22
HETATM   22  O   UNL     1      -5.732  16.638  67.782  1.00  0.00    -0.118 OA 
HETATM   23  C   UNL     1      -5.153  16.340  69.047  1.00  0.00    -0.106 C  
ENDBRANCH  20  22
ENDBRANCH  19  20
ENDBRANCH  18  19
ENDBRANCH  17  18
ENDBRANCH  10  17
BRANCH  11  24
HETATM   24  C   UNL     1     -12.039  12.436  67.169  1.00  0.00    -0.002 C  
HETATM   25  C   UNL     1     -12.017  13.480  65.994  1.00  0.00    -0.449 A  
HETATM   26  C   UNL     1     -11.607  14.813  66.162  1.00  0.00    -0.292 A  
HETATM   27  C   UNL     1     -11.514  15.794  65.169  1.00  0.00    -0.048 A  
HETATM   28  C   UNL     1     -11.891  15.466  63.902  1.00  0.00     0.232 A  
HETATM   29  C   UNL     1     -12.381  14.197  63.664  1.00  0.00     0.056 A  
HETATM   30  F   UNL     1     -11.766  16.364  62.917  1.00  0.00     2.375 F  
HETATM   31  F   UNL     1     -12.757  13.881  62.415  1.00  0.00     0.442 F  
HETATM   32  C   UNL     1     -12.479  13.214  64.692  1.00  0.00    -0.433 A  
HETATM   33  C   UNL     1     -12.921  11.851  64.278  1.00  0.00     0.138 C  
HETATM   34  S   UNL     1     -11.407  10.913  64.010  1.00  0.00     1.049 SA 
HETATM   35  C   UNL     1     -11.091  10.384  65.685  1.00  0.00     0.574 A  
HETATM   36  C   UNL     1     -10.401   9.148  65.691  1.00  0.00     0.620 A  
HETATM   37  C   UNL     1     -10.261   8.390  66.841  1.00  0.00    -0.383 A  
HETATM   38  C   UNL     1     -10.875   8.829  67.999  1.00  0.00    -0.056 A  
HETATM   39  C   UNL     1     -11.512  10.084  68.024  1.00  0.00     0.115 A  
HETATM   40  C   UNL     1     -11.547  10.951  66.896  1.00  0.00     0.331 A  
ENDBRANCH  11  24
TORSDOF 6
ENDMDL
MODEL      158
REMARK 921   NORMALIZED FREE ENERGY PREDICTED BY IDOCK:   29.64 KCAL/MOL
REMARK 922        TOTAL FREE ENERGY PREDICTED BY IDOCK:   39.30 KCAL/MOL
REMARK 923 INTER-LIGAND FREE ENERGY PREDICTED BY IDOCK:   15.12 KCAL/MOL
REMARK 924 INTRA-LIGAND FREE ENERGY PREDICTED BY IDOCK:   24.18 KCAL/MOL
REMARK 927      BINDING AFFINITY PREDICTED BY RF-SCORE:    0.00 PKD
ROOT
HETATM    1  C   UNL     1      -7.920   7.582  67.309  1.00  0.00    -0.118 C  
HETATM    2  C   UNL     1      -6.767   8.470  66.755  1.00  0.00    -0.061 C  
HETATM    3  O   UNL     1      -6.544   8.344  65.344  1.00  0.00    -0.055 OA 
HETATM    4  C   UNL     1      -7.768   8.536  64.639  1.00  0.00    -0.116 C  
HETATM    5  C   UNL     1      -8.713   7.374  64.912  1.00  0.00     0.278 C  
HETATM    6  N   UNL     1      -8.766   6.957  66.314  1.00  0.00    -0.138 N  
HETATM    7  C   UNL     1      -9.640   5.941  66.697  1.00  0.00    -0.153 C  
HETATM    8  O   UNL     1     -10.134   5.181  65.869  1.00  0.00    -0.172 OA 
HETATM    9  C   UNL     1     -10.133   6.062  68.148  1.00  0.00    -0.160 C  
HETATM   10  C   UNL     1     -11.225   5.355  68.537  1.00  0.00     0.889 C  
HETATM   11  N   UNL     1      -8.769   8.118  68.383  1.00  0.00    -0.134 NA 
HETATM   12  C   UNL     1     -11.748   5.614  69.930  1.00  0.00     1.326 C  
HETATM   13  O   UNL     1     -12.784   5.113  70.359  1.00  0.00     5.696 OA 
HETATM   14  N   UNL     1      -9.574   7.078  68.960  1.00  0.00    -0.142 NA 
HETATM   15  C   UNL     1     -10.976   6.503  70.816  1.00  0.00    -0.328 C  
HETATM   16  C   UNL     1      -9.951   7.169  70.282  1.00  0.00    -0.187 C  
ENDROOT
BRANCH  10  17
HETATM   17  O   UNL     1     -11.943   4.575  67.652  1.00  0.00     6.585 OA 
BRANCH  17  18
HETATM   18  C   UNL     1     -11.230   3.560  66.954  1.00  0.00     5.628 C  
BRANCH  18  19
HETATM   19  O   UNL     1      -9.878   3.518  67.410  1.00  0.00    -0.106 OA 
BRANCH  19  20
HETATM   20  C   UNL     1      -9.743   2.849  68.577  1.00  0.00     0.127 C  
HETATM   21  O   UNL     1      -9.993   1.667  68.769  1.00  0.00     0.026 OA 
BRANCH  20  22
HETATM   22  O   UNL     1      -9.236   3.708  69.498  1.00  0.00    -0.124 OA 
HETATM   23  C   UNL     1      -9.870   3.617  70.768  1.00  0.00    -0.072 C  
ENDBRANCH  20  22
ENDBRANCH  19  20
ENDBRANCH  18  19
ENDBRANCH  17  18
ENDBRANCH  10  17
BRANCH  11  24
HETATM   24  C   UNL     1      -9.381   9.522  68.317  1.00  0.00    -0.133 C  
HETATM   25  C   UNL     1      -9.775  10.079  66.900  1.00  0.00    -0.237 A  
HETATM   26  C   UNL     1      -9.492   9.398  65.705  1.00  0.00    -0.328 A  
HETATM   27  C   UNL     1      -9.841   9.795  64.410  1.00  0.00     0.092 A  
HETATM   28  C   UNL     1     -10.491  10.982  64.253  1.00  0.00    -0.359 A  
HETATM   29  C   UNL     1     -10.740  11.753  65.371  1.00  0.00    -0.283 A  
HETATM   30  F   UNL     1     -10.887  11.368  63.034  1.00  0.00    -0.353 F  
HETATM   31  F   UNL     1     -11.376  12.925  65.212  1.00  0.00    -0.307 F  
HETATM   32  C   UNL     1     -10.366  11.337  66.682  1.00  0.00    -0.279 A  
HETATM   33  C   UNL     1     -10.793  12.211  67.813  1.00  0.00    -0.224 C  
HETATM   34  S   UNL     1     -12.339  11.508  68.412  1.00  0.00     0.816 SA 
HETATM   35  C   UNL     1     -11.687  10.268  69.517  1.00  0.00    -0.122 A  
HETATM   36  C   UNL     1     -12.591  10.029  70.579  1.00  0.00    -0.224 A  
HETATM   37  C   UNL     1     -12.227   9.314  71.709  1.00  0.00    -0.457 A  
HETATM   38  C   UNL     1     -10.919   8.883  71.822  1.00  0.00    -0.431 A  
HETATM   39  C   UNL     1     -10.025   9.060  70.749  1.00  0.00    -0.307 A  
HETATM   40  C   UNL     1     -10.410   9.663  69.519  1.00  0.00    -0.235 A  
ENDBRANCH  11  24
TORSDOF 6
ENDMDL
MODEL      159
REMARK 921   NORMALIZED FREE ENERGY PREDICTED BY IDOCK:   30.36 KCAL/MOL
REMARK 922        TOTAL FREE ENERGY PREDICTED BY IDOCK:   40.27 KCAL/MOL
REMARK 923 INTER-LIGAND FREE ENERGY PREDICTED BY IDOCK:   39.61 KCAL/MOL
REMARK 924 INTRA-LIGAND FREE ENERGY PREDICTED BY IDOCK:    0.66 KCAL/MOL
REMARK 927      BINDING AFFINITY PREDICTED BY RF-SCORE:    0.00 PKD
ROOT
HETATM    1  C   UNL     1      -8.432  15.111  67.260  1.00  0.00    -0.198 C  
HETATM    2  C   UNL     1      -7.451  15.459  66.101  1.00  0.00     1.924 C  
HETATM    3  O   UNL     1      -7.956  15.176  64.789  1.00  0.00     6.101 OA 
HETATM    4  C   UNL     1      -9.237  15.777  64.620  1.00  0.00     3.372 C  
HETATM    5  C   UNL     1     -10.260  15.080  65.506  1.00  0.00    -0.378 C  
HETATM    6  N   UNL     1      -9.789  14.797  66.862  1.00  0.00    -0.238 N  
HETATM    7  C   UNL     1     -10.657  14.214  67.784  1.00  0.00    -0.243 C  
HETATM    8  O   UNL     1     -11.686  13.651  67.421  1.00  0.00    -0.337 OA 
HETATM    9  C   UNL     1     -10.360  14.597  69.243  1.00  0.00    -0.173 C  
HETATM   10  C   UNL     1     -11.309  14.383  70.189  1.00  0.00    -0.165 C  
HETATM   11  N   UNL     1      -8.476  15.991  68.437  1.00  0.00    -0.173 NA 
HETATM   12  C   UNL     1     -11.022  14.902  71.578  1.00  0.00     0.271 C  
HETATM   13  O   UNL     1     -11.842  14.859  72.491  1.00  0.00    -0.324 OA 
HETATM   14  N   UNL     1      -9.204  15.370  69.507  1.00  0.00    -0.263 NA 
HETATM   15  C   UNL     1      -9.694  15.482  71.850  1.00  0.00     3.767 C  
HETATM   16  C   UNL     1      -8.880  15.675  70.811  1.00  0.00     2.320 C  
ENDROOT
BRANCH  10  17
HETATM   17  O   UNL     1     -12.558  13.884  69.873  1.00  0.00    -0.281 OA 
BRANCH  17  18
HETATM   18  C   UNL     1     -12.765  12.488  70.058  1.00  0.00     0.348 C  
BRANCH  18  19
HETATM   19  O   UNL     1     -11.636  11.914  70.716  1.00  0.00     0.092 OA 
BRANCH  19  20
HETATM   20  C   UNL     1     -11.802  10.599  70.980  1.00  0.00    -0.296 C  
HETATM   21  O   UNL     1     -11.160   9.675  70.499  1.00  0.00    -0.260 OA 
BRANCH  20  22
HETATM   22  O   UNL     1     -12.781  10.477  71.914  1.00  0.00    -0.419 OA 
HETATM   23  C   UNL     1     -12.955   9.145  72.382  1.00  0.00    -0.398 C  
ENDBRANCH  20  22
ENDBRANCH  19  20
ENDBRANCH  18  19
ENDBRANCH  17  18
ENDBRANCH  10  17
BRANCH  11  24
HETATM   24  C   UNL     1      -8.575  17.515  68.313  1.00  0.00    -0.266 C  
HETATM   25  C   UNL     1      -9.970  18.125  67.920  1.00  0.00    -0.340 A  
HETATM   26  C   UNL     1     -11.080  17.336  67.576  1.00  0.00     0.044 A  
HETATM   27  C   UNL     1     -12.365  17.789  67.257  1.00  0.00     4.196 A  
HETATM   28  C   UNL     1     -12.586  19.133  67.229  1.00  0.00     4.984 A  
HETATM   29  C   UNL     1     -11.527  19.983  67.479  1.00  0.00     0.982 A  
HETATM   30  F   UNL     1     -13.815  19.600  66.979  1.00  0.00     4.029 F  
HETATM   31  F   UNL     1     -11.749  21.307  67.444  1.00  0.00     3.488 F  
HETATM   32  C   UNL     1     -10.222  19.503  67.791  1.00  0.00    -0.550 A  
HETATM   33  C   UNL     1      -9.196  20.526  68.149  1.00  0.00     0.110 C  
HETATM   34  S   UNL     1      -9.211  20.618  69.947  1.00  0.00     2.041 SA 
HETATM   35  C   UNL     1      -8.103  19.269  70.316  1.00  0.00     1.456 A  
HETATM   36  C   UNL     1      -7.422  19.509  71.534  1.00  0.00     2.526 A  
HETATM   37  C   UNL     1      -6.325  18.759  71.923  1.00  0.00     1.754 A  
HETATM   38  C   UNL     1      -5.847  17.793  71.058  1.00  0.00     0.547 A  
HETATM   39  C   UNL     1      -6.548  17.502  69.873  1.00  0.00     0.157 A  
HETATM   40  C   UNL     1      -7.760  18.157  69.516  1.00  0.00     0.404 A  
ENDBRANCH  11  24
TORSDOF 6
ENDMDL
MODEL      160
REMARK 921   NORMALIZED FREE ENERGY PREDICTED BY IDOCK:   32.30 KCAL/MOL
REMARK 922        TOTAL FREE ENERGY PREDICTED BY IDOCK:   42.89 KCAL/MOL
REMARK 923 INTER-LIGAND FREE ENERGY PREDICTED BY IDOCK:   42.99 KCAL/MOL
REMARK 924 INTRA-LIGAND FREE ENERGY PREDICTED BY IDOCK:   -0.10 KCAL/MOL
REMARK 927      BINDING AFFINITY PREDICTED BY RF-SCORE:    0.00 PKD
ROOT
HETATM    1  C   UNL     1     -10.870   9.291  70.179  1.00  0.00    -0.242 C  
HETATM    2  C   UNL     1     -10.454  10.176  71.391  1.00  0.00     1.060 C  
HETATM    3  O   UNL     1      -9.731   9.481  72.416  1.00  0.00     0.642 OA 
HETATM    4  C   UNL     1      -8.628   8.782  71.846  1.00  0.00    -0.099 C  
HETATM    5  C   UNL     1      -9.130   7.633  70.981  1.00  0.00    -0.147 C  
HETATM    6  N   UNL     1     -10.266   7.976  70.125  1.00  0.00    -0.199 N  
HETATM    7  C   UNL     1     -10.775   7.023  69.244  1.00  0.00    -0.225 C  
HETATM    8  O   UNL     1     -10.516   5.829  69.379  1.00  0.00    -0.232 OA 
HETATM    9  C   UNL     1     -11.409   7.623  67.979  1.00  0.00     0.707 C  
HETATM   10  C   UNL     1     -11.631   6.821  66.907  1.00  0.00     0.938 C  
HETATM   11  N   UNL     1     -10.845   9.880  68.833  1.00  0.00    -0.221 NA 
HETATM   12  C   UNL     1     -12.127   7.486  65.645  1.00  0.00    10.059 C  
HETATM   13  O   UNL     1     -12.268   6.886  64.583  1.00  0.00    11.327 OA 
HETATM   14  N   UNL     1     -11.523   9.031  67.895  1.00  0.00     0.804 NA 
HETATM   15  C   UNL     1     -12.462   8.922  65.693  1.00  0.00    14.474 C  
HETATM   16  C   UNL     1     -12.144   9.593  66.801  1.00  0.00     5.581 C  
ENDROOT
BRANCH  10  17
HETATM   17  O   UNL     1     -11.252   5.493  66.895  1.00  0.00     0.053 OA 
BRANCH  17  18
HETATM   18  C   UNL     1     -10.957   4.912  65.630  1.00  0.00     0.068 C  
BRANCH  18  19
HETATM   19  O   UNL     1      -9.901   3.962  65.768  1.00  0.00    -0.184 OA 
BRANCH  19  20
HETATM   20  C   UNL     1      -8.784   4.326  65.099  1.00  0.00    -0.126 C  
HETATM   21  O   UNL     1      -8.683   5.248  64.301  1.00  0.00    -0.121 OA 
BRANCH  20  22
HETATM   22  O   UNL     1      -7.771   3.514  65.500  1.00  0.00    -0.080 OA 
HETATM   23  C   UNL     1      -7.672   3.387  66.913  1.00  0.00    -0.080 C  
ENDBRANCH  20  22
ENDBRANCH  19  20
ENDBRANCH  18  19
ENDBRANCH  17  18
ENDBRANCH  10  17
BRANCH  11  24
HETATM   24  C   UNL     1      -9.643  10.678  68.314  1.00  0.00    -0.162 C  
HETATM   25  C   UNL     1      -8.494   9.881  67.596  1.00  0.00    -0.114 A  
HETATM   26  C   UNL     1      -8.473   8.479  67.511  1.00  0.00    -0.128 A  
HETATM   27  C   UNL     1      -7.519   7.692  66.858  1.00  0.00    -0.094 A  
HETATM   28  C   UNL     1      -6.464   8.318  66.265  1.00  0.00    -0.047 A  
HETATM   29  C   UNL     1      -6.366   9.691  66.367  1.00  0.00    -0.069 A  
HETATM   30  F   UNL     1      -5.561   7.600  65.586  1.00  0.00    -0.030 F  
HETATM   31  F   UNL     1      -5.322  10.303  65.786  1.00  0.00    -0.043 F  
HETATM   32  C   UNL     1      -7.343  10.475  67.047  1.00  0.00    -0.099 A  
HETATM   33  C   UNL     1      -7.176  11.957  66.989  1.00  0.00    -0.118 C  
HETATM   34  S   UNL     1      -8.202  12.506  65.615  1.00  0.00     1.968 SA 
HETATM   35  C   UNL     1      -9.769  12.640  66.457  1.00  0.00    -0.256 A  
HETATM   36  C   UNL     1     -10.571  13.638  65.852  1.00  0.00    -0.289 A  
HETATM   37  C   UNL     1     -11.717  14.126  66.456  1.00  0.00    -0.414 A  
HETATM   38  C   UNL     1     -12.044  13.668  67.718  1.00  0.00    -0.325 A  
HETATM   39  C   UNL     1     -11.292  12.634  68.307  1.00  0.00    -0.337 A  
HETATM   40  C   UNL     1     -10.194  12.011  67.648  1.00  0.00    -0.210 A  
ENDBRANCH  11  24
TORSDOF 6
ENDMDL
MODEL      161
REMARK 921   NORMALIZED FREE ENERGY PREDICTED BY IDOCK:   34.12 KCAL/MOL
REMARK 922        TOTAL FREE ENERGY PREDICTED BY IDOCK:   45.35 KCAL/MOL
REMARK 923 INTER-LIGAND FREE ENERGY PREDICTED BY IDOCK:   36.57 KCAL/MOL
REMARK 924 INTRA-LIGAND FREE ENERGY PREDICTED BY IDOCK:    8.77 KCAL/MOL
REMARK 927      BINDING AFFINITY PREDICTED BY RF-SCORE:    0.00 PKD
ROOT
HETATM    1  C   UNL     1      -7.197  15.488  68.670  1.00  0.00    -0.123 C  
HETATM    2  C   UNL     1      -7.783  16.587  67.734  1.00  0.00    -0.152 C  
HETATM    3  O   UNL     1      -7.588  16.342  66.335  1.00  0.00    -0.238 OA 
HETATM    4  C   UNL     1      -8.050  15.035  66.000  1.00  0.00     1.504 C  
HETATM    5  C   UNL     1      -7.144  13.986  66.631  1.00  0.00     1.788 C  
HETATM    6  N   UNL     1      -6.771  14.268  68.018  1.00  0.00    -0.130 N  
HETATM    7  C   UNL     1      -5.993  13.349  68.721  1.00  0.00    -0.084 C  
HETATM    8  O   UNL     1      -5.356  12.476  68.136  1.00  0.00    -0.057 OA 
HETATM    9  C   UNL     1      -6.246  13.354  70.236  1.00  0.00    -0.034 C  
HETATM   10  C   UNL     1      -5.819  12.303  70.982  1.00  0.00     0.213 C  
HETATM   11  N   UNL     1      -7.931  15.139  69.895  1.00  0.00    -0.022 NA 
HETATM   12  C   UNL     1      -6.213  12.291  72.440  1.00  0.00     3.510 C  
HETATM   13  O   UNL     1      -5.974  11.349  73.190  1.00  0.00     1.384 OA 
HETATM   14  N   UNL     1      -7.115  14.338  70.764  1.00  0.00     0.702 NA 
HETATM   15  C   UNL     1      -6.911  13.469  72.987  1.00  0.00     4.334 C  
HETATM   16  C   UNL     1      -7.311  14.405  72.126  1.00  0.00     4.058 C  
ENDROOT
BRANCH  10  17
HETATM   17  O   UNL     1      -5.215  11.200  70.411  1.00  0.00    -0.075 OA 
BRANCH  17  18
HETATM   18  C   UNL     1      -5.972  10.466  69.454  1.00  0.00    -0.038 C  
BRANCH  18  19
HETATM   19  O   UNL     1      -6.394   9.226  70.019  1.00  0.00    -0.040 OA 
BRANCH  19  20
HETATM   20  C   UNL     1      -7.117   9.389  71.150  1.00  0.00     0.008 C  
HETATM   21  O   UNL     1      -7.394  10.453  71.687  1.00  0.00     1.430 OA 
BRANCH  20  22
HETATM   22  O   UNL     1      -7.526   8.163  71.568  1.00  0.00    -0.068 OA 
HETATM   23  C   UNL     1      -8.915   7.931  71.368  1.00  0.00    -0.136 C  
ENDBRANCH  20  22
ENDBRANCH  19  20
ENDBRANCH  18  19
ENDBRANCH  17  18
ENDBRANCH  10  17
BRANCH  11  24
HETATM   24  C   UNL     1      -9.438  14.857  69.891  1.00  0.00     0.265 C  
HETATM   25  C   UNL     1      -9.899  13.360  70.026  1.00  0.00     2.302 A  
HETATM   26  C   UNL     1      -9.001  12.281  70.037  1.00  0.00     3.432 A  
HETATM   27  C   UNL     1      -9.317  10.927  70.194  1.00  0.00     1.270 A  
HETATM   28  C   UNL     1     -10.629  10.582  70.313  1.00  0.00    -0.015 A  
HETATM   29  C   UNL     1     -11.585  11.575  70.234  1.00  0.00    -0.214 A  
HETATM   30  F   UNL     1     -10.964   9.302  70.518  1.00  0.00    -0.239 F  
HETATM   31  F   UNL     1     -12.878  11.229  70.345  1.00  0.00    -0.307 F  
HETATM   32  C   UNL     1     -11.244  12.948  70.062  1.00  0.00     0.216 A  
HETATM   33  C   UNL     1     -12.366  13.931  70.104  1.00  0.00    -0.334 C  
HETATM   34  S   UNL     1     -12.427  14.523  71.803  1.00  0.00    -0.338 SA 
HETATM   35  C   UNL     1     -11.199  15.815  71.706  1.00  0.00    -0.168 A  
HETATM   36  C   UNL     1     -11.492  16.844  72.633  1.00  0.00     0.510 A  
HETATM   37  C   UNL     1     -10.858  18.075  72.588  1.00  0.00     3.126 A  
HETATM   38  C   UNL     1      -9.964  18.319  71.564  1.00  0.00     5.025 A  
HETATM   39  C   UNL     1      -9.618  17.286  70.672  1.00  0.00     3.334 A  
HETATM   40  C   UNL     1     -10.144  15.969  70.780  1.00  0.00     0.976 A  
ENDBRANCH  11  24
TORSDOF 6
ENDMDL
MODEL      162
REMARK 921   NORMALIZED FREE ENERGY PREDICTED BY IDOCK:   34.62 KCAL/MOL
REMARK 922        TOTAL FREE ENERGY PREDICTED BY IDOCK:   46.02 KCAL/MOL
REMARK 923 INTER-LIGAND FREE ENERGY PREDICTED BY IDOCK:   14.95 KCAL/MOL
REMARK 924 INTRA-LIGAND FREE ENERGY PREDICTED BY IDOCK:   31.08 KCAL/MOL
REMARK 927      BINDING AFFINITY PREDICTED BY RF-SCORE:    0.00 PKD
ROOT
HETATM    1  C   UNL     1      -6.498   5.639  67.963  1.00  0.00    -0.044 C  
HETATM    2  C   UNL     1      -5.983   4.181  68.150  1.00  0.00    -0.027 C  
HETATM    3  O   UNL     1      -5.142   3.989  69.295  1.00  0.00     0.000 OA 
HETATM    4  C   UNL     1      -5.785   4.495  70.462  1.00  0.00    -0.013 C  
HETATM    5  C   UNL     1      -5.874   6.014  70.390  1.00  0.00    -0.021 C  
HETATM    6  N   UNL     1      -6.278   6.532  69.082  1.00  0.00    -0.032 N  
HETATM    7  C   UNL     1      -6.453   7.904  68.910  1.00  0.00    -0.048 C  
HETATM    8  O   UNL     1      -5.986   8.710  69.711  1.00  0.00    -0.028 OA 
HETATM    9  C   UNL     1      -7.493   8.268  67.839  1.00  0.00    -0.098 C  
HETATM   10  C   UNL     1      -7.999   9.527  67.809  1.00  0.00    -0.099 C  
HETATM   11  N   UNL     1      -7.860   5.847  67.452  1.00  0.00    -0.101 NA 
HETATM   12  C   UNL     1      -9.116   9.793  66.828  1.00  0.00    -0.146 C  
HETATM   13  O   UNL     1      -9.721  10.860  66.776  1.00  0.00    -0.183 OA 
HETATM   14  N   UNL     1      -8.056   7.218  67.074  1.00  0.00    -0.115 NA 
HETATM   15  C   UNL     1      -9.492   8.724  65.885  1.00  0.00    -0.278 C  
HETATM   16  C   UNL     1      -8.944   7.521  66.065  1.00  0.00    -0.127 C  
ENDROOT
BRANCH  10  17
HETATM   17  O   UNL     1      -7.650  10.477  68.748  1.00  0.00    -0.087 OA 
BRANCH  17  18
HETATM   18  C   UNL     1      -8.624  10.805  69.733  1.00  0.00     0.428 C  
BRANCH  18  19
HETATM   19  O   UNL     1      -9.847  10.126  69.449  1.00  0.00    -0.206 OA 
BRANCH  19  20
HETATM   20  C   UNL     1     -10.768  10.932  68.874  1.00  0.00    -0.215 C  
HETATM   21  O   UNL     1     -10.603  11.631  67.884  1.00  0.00    -0.183 OA 
BRANCH  20  22
HETATM   22  O   UNL     1     -11.931  10.800  69.563  1.00  0.00    -0.300 OA 
HETATM   23  C   UNL     1     -12.060  11.721  70.640  1.00  0.00    -0.311 C  
ENDBRANCH  20  22
ENDBRANCH  19  20
ENDBRANCH  18  19
ENDBRANCH  17  18
ENDBRANCH  10  17
BRANCH  11  24
HETATM   24  C   UNL     1      -9.069   5.098  68.023  1.00  0.00    -0.112 C  
HETATM   25  C   UNL     1      -8.835   4.193  69.287  1.00  0.00    -0.142 A  
HETATM   26  C   UNL     1      -7.564   3.962  69.838  1.00  0.00    -0.052 A  
HETATM   27  C   UNL     1      -7.267   3.211  70.980  1.00  0.00    -0.033 A  
HETATM   28  C   UNL     1      -8.294   2.593  71.628  1.00  0.00    -0.063 A  
HETATM   29  C   UNL     1      -9.568   2.704  71.109  1.00  0.00    -0.150 A  
HETATM   30  F   UNL     1      -8.054   1.910  72.754  1.00  0.00    -0.048 F  
HETATM   31  F   UNL     1     -10.575   2.088  71.748  1.00  0.00    -0.170 F  
HETATM   32  C   UNL     1      -9.849   3.465  69.937  1.00  0.00     0.076 A  
HETATM   33  C   UNL     1     -11.283   3.594  69.546  1.00  0.00     6.409 C  
HETATM   34  S   UNL     1     -11.841   5.149  70.263  1.00  0.00     4.362 SA 
HETATM   35  C   UNL     1     -11.312   6.269  68.978  1.00  0.00    -0.242 A  
HETATM   36  C   UNL     1     -12.158   7.402  68.932  1.00  0.00     1.956 A  
HETATM   37  C   UNL     1     -12.135   8.295  67.873  1.00  0.00     4.329 A  
HETATM   38  C   UNL     1     -11.305   8.025  66.802  1.00  0.00     1.662 A  
HETATM   39  C   UNL     1     -10.415   6.936  66.860  1.00  0.00    -0.349 A  
HETATM   40  C   UNL     1     -10.313   6.086  67.996  1.00  0.00    -0.250 A  
ENDBRANCH  11  24
TORSDOF 6
ENDMDL
MODEL      163
REMARK 921   NORMALIZED FREE ENERGY PREDICTED BY IDOCK:   34.90 KCAL/MOL
REMARK 922        TOTAL FREE ENERGY PREDICTED BY IDOCK:   46.40 KCAL/MOL
REMARK 923 INTER-LIGAND FREE ENERGY PREDICTED BY IDOCK:   23.49 KCAL/MOL
REMARK 924 INTRA-LIGAND FREE ENERGY PREDICTED BY IDOCK:   22.91 KCAL/MOL
REMARK 927      BINDING AFFINITY PREDICTED BY RF-SCORE:    0.00 PKD
ROOT
HETATM    1  C   UNL     1      -7.148  15.394  69.557  1.00  0.00    -0.200 C  
HETATM    2  C   UNL     1      -7.100  14.229  70.590  1.00  0.00     0.806 C  
HETATM    3  O   UNL     1      -6.965  14.649  71.955  1.00  0.00     1.276 OA 
HETATM    4  C   UNL     1      -7.965  15.615  72.267  1.00  0.00     8.366 C  
HETATM    5  C   UNL     1      -7.691  16.910  71.513  1.00  0.00     8.182 C  
HETATM    6  N   UNL     1      -7.307  16.721  70.113  1.00  0.00     1.047 N  
HETATM    7  C   UNL     1      -7.089  17.835  69.304  1.00  0.00    -0.113 C  
HETATM    8  O   UNL     1      -6.903  18.948  69.790  1.00  0.00    -0.130 OA 
HETATM    9  C   UNL     1      -7.394  17.591  67.818  1.00  0.00    -0.186 C  
HETATM   10  C   UNL     1      -7.550  18.656  66.991  1.00  0.00    -0.226 C  
HETATM   11  N   UNL     1      -8.027  15.263  68.386  1.00  0.00    -0.127 NA 
HETATM   12  C   UNL     1      -7.983  18.365  65.573  1.00  0.00     0.644 C  
HETATM   13  O   UNL     1      -8.254  19.246  64.762  1.00  0.00     1.449 OA 
HETATM   14  N   UNL     1      -7.730  16.277  67.413  1.00  0.00    -0.147 NA 
HETATM   15  C   UNL     1      -8.079  16.958  65.143  1.00  0.00     3.051 C  
HETATM   16  C   UNL     1      -7.946  16.016  66.078  1.00  0.00     0.495 C  
ENDROOT
BRANCH  10  17
HETATM   17  O   UNL     1      -7.501  19.955  67.455  1.00  0.00    -0.260 OA 
BRANCH  17  18
HETATM   18  C   UNL     1      -6.348  20.721  67.123  1.00  0.00    -0.277 C  
BRANCH  18  19
HETATM   19  O   UNL     1      -5.233  20.278  67.896  1.00  0.00    -0.185 OA 
BRANCH  19  20
HETATM   20  C   UNL     1      -5.564  19.307  68.776  1.00  0.00    -0.203 C  
HETATM   21  O   UNL     1      -5.399  18.104  68.625  1.00  0.00    -0.161 OA 
BRANCH  20  22
HETATM   22  O   UNL     1      -6.075  19.900  69.885  1.00  0.00    -0.293 OA 
HETATM   23  C   UNL     1      -5.136  20.718  70.574  1.00  0.00    -0.276 C  
ENDBRANCH  20  22
ENDBRANCH  19  20
ENDBRANCH  18  19
ENDBRANCH  17  18
ENDBRANCH  10  17
BRANCH  11  24
HETATM   24  C   UNL     1      -9.488  14.814  68.507  1.00  0.00    -0.214 C  
HETATM   25  C   UNL     1      -9.764  13.279  68.703  1.00  0.00    -0.074 A  
HETATM   26  C   UNL     1      -8.751  12.307  68.661  1.00  0.00     0.021 A  
HETATM   27  C   UNL     1      -8.898  10.932  68.866  1.00  0.00    -0.143 A  
HETATM   28  C   UNL     1     -10.150  10.445  69.094  1.00  0.00    -0.222 A  
HETATM   29  C   UNL     1     -11.216  11.323  69.076  1.00  0.00    -0.258 A  
HETATM   30  F   UNL     1     -10.321   9.141  69.347  1.00  0.00    -0.191 F  
HETATM   31  F   UNL     1     -12.448  10.837  69.296  1.00  0.00    -0.370 F  
HETATM   32  C   UNL     1     -11.047  12.720  68.853  1.00  0.00    -0.310 A  
HETATM   33  C   UNL     1     -12.266  13.572  68.969  1.00  0.00    -0.186 C  
HETATM   34  S   UNL     1     -12.262  14.197  70.657  1.00  0.00    -0.379 SA 
HETATM   35  C   UNL     1     -11.200  15.615  70.441  1.00  0.00    -0.357 A  
HETATM   36  C   UNL     1     -11.535  16.629  71.370  1.00  0.00     0.077 A  
HETATM   37  C   UNL     1     -11.051  17.921  71.255  1.00  0.00     2.651 A  
HETATM   38  C   UNL     1     -10.272  18.237  70.158  1.00  0.00     1.259 A  
HETATM   39  C   UNL     1      -9.881  17.227  69.258  1.00  0.00    -0.087 A  
HETATM   40  C   UNL     1     -10.244  15.862  69.431  1.00  0.00    -0.262 A  
ENDBRANCH  11  24
TORSDOF 6
ENDMDL
MODEL      164
REMARK 921   NORMALIZED FREE ENERGY PREDICTED BY IDOCK:   34.93 KCAL/MOL
REMARK 922        TOTAL FREE ENERGY PREDICTED BY IDOCK:   46.44 KCAL/MOL
REMARK 923 INTER-LIGAND FREE ENERGY PREDICTED BY IDOCK:   35.25 KCAL/MOL
REMARK 924 INTRA-LIGAND FREE ENERGY PREDICTED BY IDOCK:   11.19 KCAL/MOL
REMARK 927      BINDING AFFINITY PREDICTED BY RF-SCORE:    0.00 PKD
ROOT
HETATM    1  C   UNL     1      -9.490  11.541  66.028  1.00  0.00    -0.229 C  
HETATM    2  C   UNL     1      -9.251  10.065  65.593  1.00  0.00    -0.186 C  
HETATM    3  O   UNL     1      -8.106   9.870  64.751  1.00  0.00    -0.136 OA 
HETATM    4  C   UNL     1      -6.955  10.456  65.353  1.00  0.00    -0.118 C  
HETATM    5  C   UNL     1      -7.085  11.973  65.359  1.00  0.00     2.707 C  
HETATM    6  N   UNL     1      -8.409  12.462  65.748  1.00  0.00     0.807 N  
HETATM    7  C   UNL     1      -8.633  13.834  65.848  1.00  0.00     1.263 C  
HETATM    8  O   UNL     1      -7.868  14.643  65.329  1.00  0.00     4.621 OA 
HETATM    9  C   UNL     1      -9.708  14.214  66.878  1.00  0.00    -0.269 C  
HETATM   10  C   UNL     1      -9.784  15.497  67.314  1.00  0.00    -0.218 C  
HETATM   11  N   UNL     1      -9.998  11.805  67.382  1.00  0.00    -0.184 NA 
HETATM   12  C   UNL     1     -10.764  15.788  68.425  1.00  0.00    -0.281 C  
HETATM   13  O   UNL     1     -10.852  16.884  68.971  1.00  0.00    -0.314 OA 
HETATM   14  N   UNL     1     -10.427  13.169  67.506  1.00  0.00    -0.227 NA 
HETATM   15  C   UNL     1     -11.662  14.705  68.869  1.00  0.00    -0.343 C  
HETATM   16  C   UNL     1     -11.440  13.482  68.387  1.00  0.00    -0.311 C  
ENDROOT
BRANCH  10  17
HETATM   17  O   UNL     1      -8.885  16.462  66.903  1.00  0.00    -0.183 OA 
BRANCH  17  18
HETATM   18  C   UNL     1      -8.511  17.450  67.858  1.00  0.00    -0.228 C  
BRANCH  18  19
HETATM   19  O   UNL     1      -9.311  18.619  67.683  1.00  0.00    -0.284 OA 
BRANCH  19  20
HETATM   20  C   UNL     1      -9.500  18.931  66.381  1.00  0.00    -0.336 C  
HETATM   21  O   UNL     1      -9.703  20.047  65.924  1.00  0.00    -0.411 OA 
BRANCH  20  22
HETATM   22  O   UNL     1      -9.381  17.790  65.654  1.00  0.00    -0.406 OA 
HETATM   23  C   UNL     1      -8.131  17.134  65.828  1.00  0.00     0.273 C  
ENDBRANCH  20  22
ENDBRANCH  19  20
ENDBRANCH  18  19
ENDBRANCH  17  18
ENDBRANCH  10  17
BRANCH  11  24
HETATM   24  C   UNL     1      -9.388  11.146  68.625  1.00  0.00    -0.184 C  
HETATM   25  C   UNL     1      -8.434  12.020  69.518  1.00  0.00     1.223 A  
HETATM   26  C   UNL     1      -8.037  13.321  69.169  1.00  0.00     0.449 A  
HETATM   27  C   UNL     1      -7.230  14.183  69.919  1.00  0.00     0.253 A  
HETATM   28  C   UNL     1      -6.727  13.728  71.101  1.00  0.00     1.316 A  
HETATM   29  C   UNL     1      -7.004  12.431  71.483  1.00  0.00     5.419 A  
HETATM   30  F   UNL     1      -5.995  14.544  71.870  1.00  0.00    -0.124 F  
HETATM   31  F   UNL     1      -6.501  11.985  72.645  1.00  0.00     2.926 F  
HETATM   32  C   UNL     1      -7.819  11.563  70.699  1.00  0.00     3.984 A  
HETATM   33  C   UNL     1      -8.131  10.225  71.280  1.00  0.00     2.653 C  
HETATM   34  S   UNL     1      -9.725  10.411  72.096  1.00  0.00     7.874 SA 
HETATM   35  C   UNL     1     -10.801  10.138  70.699  1.00  0.00    -0.235 A  
HETATM   36  C   UNL     1     -12.030   9.579  71.124  1.00  0.00    -0.429 A  
HETATM   37  C   UNL     1     -12.936   9.031  70.231  1.00  0.00     0.995 A  
HETATM   38  C   UNL     1     -12.591   8.973  68.894  1.00  0.00     4.183 A  
HETATM   39  C   UNL     1     -11.401   9.579  68.448  1.00  0.00     0.196 A  
HETATM   40  C   UNL     1     -10.520  10.276  69.321  1.00  0.00    -0.250 A  
ENDBRANCH  11  24
TORSDOF 6
ENDMDL
MODEL      165
REMARK 921   NORMALIZED FREE ENERGY PREDICTED BY IDOCK:   36.19 KCAL/MOL
REMARK 922        TOTAL FREE ENERGY PREDICTED BY IDOCK:   48.15 KCAL/MOL
REMARK 923 INTER-LIGAND FREE ENERGY PREDICTED BY IDOCK:    3.05 KCAL/MOL
REMARK 924 INTRA-LIGAND FREE ENERGY PREDICTED BY IDOCK:   45.10 KCAL/MOL
REMARK 927      BINDING AFFINITY PREDICTED BY RF-SCORE:    0.00 PKD
ROOT
HETATM    1  C   UNL     1     -11.868   9.829  69.210  1.00  0.00     0.401 C  
HETATM    2  C   UNL     1     -12.213  11.294  68.808  1.00  0.00    -0.032 C  
HETATM    3  O   UNL     1     -12.124  12.242  69.881  1.00  0.00    -0.299 OA 
HETATM    4  C   UNL     1     -10.854  12.134  70.521  1.00  0.00     2.096 C  
HETATM    5  C   UNL     1     -10.757  10.809  71.265  1.00  0.00     2.115 C  
HETATM    6  N   UNL     1     -11.268   9.660  70.516  1.00  0.00    -0.275 N  
HETATM    7  C   UNL     1     -11.177   8.384  71.070  1.00  0.00    -0.266 C  
HETATM    8  O   UNL     1     -10.975   8.224  72.271  1.00  0.00    -0.298 OA 
HETATM    9  C   UNL     1     -11.058   7.262  70.026  1.00  0.00    -0.240 C  
HETATM   10  C   UNL     1     -10.629   6.035  70.419  1.00  0.00    -0.268 C  
HETATM   11  N   UNL     1     -11.150   8.983  68.246  1.00  0.00     0.103 NA 
HETATM   12  C   UNL     1     -10.398   5.010  69.335  1.00  0.00    -0.144 C  
HETATM   13  O   UNL     1      -9.917   3.902  69.553  1.00  0.00    -0.104 OA 
HETATM   14  N   UNL     1     -11.176   7.608  68.659  1.00  0.00     0.291 NA 
HETATM   15  C   UNL     1     -10.774   5.355  67.951  1.00  0.00    -0.095 C  
HETATM   16  C   UNL     1     -11.135   6.615  67.705  1.00  0.00    -0.242 C  
ENDROOT
BRANCH  10  17
HETATM   17  O   UNL     1     -10.240   5.779  71.719  1.00  0.00    -0.186 OA 
BRANCH  17  18
HETATM   18  C   UNL     1      -8.890   6.070  72.064  1.00  0.00    -0.137 C  
BRANCH  18  19
HETATM   19  O   UNL     1      -8.219   6.648  70.944  1.00  0.00    -0.121 OA 
BRANCH  19  20
HETATM   20  C   UNL     1      -8.719   7.858  70.606  1.00  0.00    -0.135 C  
HETATM   21  O   UNL     1      -9.815   8.078  70.112  1.00  0.00    -0.183 OA 
BRANCH  20  22
HETATM   22  O   UNL     1      -7.805   8.801  70.953  1.00  0.00    -0.094 OA 
HETATM   23  C   UNL     1      -7.123   9.365  69.840  1.00  0.00    -0.075 C  
ENDBRANCH  20  22
ENDBRANCH  19  20
ENDBRANCH  18  19
ENDBRANCH  17  18
ENDBRANCH  10  17
BRANCH  11  24
HETATM   24  C   UNL     1      -9.897   9.470  67.507  1.00  0.00    -0.167 C  
HETATM   25  C   UNL     1      -9.173  10.748  68.066  1.00  0.00    -0.150 A  
HETATM   26  C   UNL     1      -9.682  11.513  69.129  1.00  0.00     0.124 A  
HETATM   27  C   UNL     1      -9.087  12.634  69.716  1.00  0.00     2.484 A  
HETATM   28  C   UNL     1      -7.908  13.082  69.201  1.00  0.00     0.382 A  
HETATM   29  C   UNL     1      -7.376  12.434  68.104  1.00  0.00    -0.111 A  
HETATM   30  F   UNL     1      -7.284  14.120  69.772  1.00  0.00    -0.089 F  
HETATM   31  F   UNL     1      -6.217  12.883  67.596  1.00  0.00    -0.098 F  
HETATM   32  C   UNL     1      -8.003  11.299  67.512  1.00  0.00    -0.124 A  
HETATM   33  C   UNL     1      -7.267  10.627  66.402  1.00  0.00    -0.134 C  
HETATM   34  S   UNL     1      -6.354   9.280  67.173  1.00  0.00    -0.063 SA 
HETATM   35  C   UNL     1      -7.630   8.032  67.185  1.00  0.00    -0.097 A  
HETATM   36  C   UNL     1      -7.057   6.740  67.105  1.00  0.00    -0.079 A  
HETATM   37  C   UNL     1      -7.817   5.614  66.836  1.00  0.00    -0.101 A  
HETATM   38  C   UNL     1      -9.164   5.776  66.572  1.00  0.00    -0.150 A  
HETATM   39  C   UNL     1      -9.759   7.045  66.706  1.00  0.00    -0.241 A  
HETATM   40  C   UNL     1      -9.032   8.195  67.123  1.00  0.00    -0.154 A  
ENDBRANCH  11  24
TORSDOF 6
ENDMDL
MODEL      166
REMARK 921   NORMALIZED FREE ENERGY PREDICTED BY IDOCK:   39.48 KCAL/MOL
REMARK 922        TOTAL FREE ENERGY PREDICTED BY IDOCK:   52.59 KCAL/MOL
REMARK 923 INTER-LIGAND FREE ENERGY PREDICTED BY IDOCK:   20.18 KCAL/MOL
REMARK 924 INTRA-LIGAND FREE ENERGY PREDICTED BY IDOCK:   32.41 KCAL/MOL
REMARK 927      BINDING AFFINITY PREDICTED BY RF-SCORE:    0.00 PKD
ROOT
HETATM    1  C   UNL     1     -11.142  14.988  69.695  1.00  0.00    -0.273 C  
HETATM    2  C   UNL     1     -12.643  15.103  69.295  1.00  0.00     0.147 C  
HETATM    3  O   UNL     1     -13.032  16.394  68.807  1.00  0.00     1.328 OA 
HETATM    4  C   UNL     1     -12.155  16.803  67.760  1.00  0.00     1.465 C  
HETATM    5  C   UNL     1     -10.769  17.085  68.323  1.00  0.00    -0.372 C  
HETATM    6  N   UNL     1     -10.297  16.092  69.289  1.00  0.00    -0.246 N  
HETATM    7  C   UNL     1      -9.018  16.211  69.829  1.00  0.00     0.333 C  
HETATM    8  O   UNL     1      -8.397  17.270  69.767  1.00  0.00     0.697 OA 
HETATM    9  C   UNL     1      -8.380  14.868  70.217  1.00  0.00     0.919 C  
HETATM   10  C   UNL     1      -7.041  14.807  70.429  1.00  0.00     0.303 C  
HETATM   11  N   UNL     1     -10.434  13.728  69.427  1.00  0.00     0.067 NA 
HETATM   12  C   UNL     1      -6.446  13.441  70.672  1.00  0.00     0.450 C  
HETATM   13  O   UNL     1      -5.239  13.245  70.776  1.00  0.00    -0.112 OA 
HETATM   14  N   UNL     1      -9.172  13.700  70.111  1.00  0.00     2.614 NA 
HETATM   15  C   UNL     1      -7.359  12.290  70.794  1.00  0.00     4.057 C  
HETATM   16  C   UNL     1      -8.647  12.490  70.511  1.00  0.00     6.552 C  
ENDROOT
BRANCH  10  17
HETATM   17  O   UNL     1      -6.223  15.906  70.251  1.00  0.00    -0.117 OA 
BRANCH  17  18
HETATM   18  C   UNL     1      -6.768  17.181  70.571  1.00  0.00     1.520 C  
BRANCH  18  19
HETATM   19  O   UNL     1      -6.633  18.059  69.453  1.00  0.00    -0.248 OA 
BRANCH  19  20
HETATM   20  C   UNL     1      -5.927  19.173  69.750  1.00  0.00    -0.255 C  
HETATM   21  O   UNL     1      -5.946  20.230  69.134  1.00  0.00    -0.284 OA 
BRANCH  20  22
HETATM   22  O   UNL     1      -5.219  18.933  70.883  1.00  0.00    -0.230 OA 
HETATM   23  C   UNL     1      -6.025  18.507  71.976  1.00  0.00     1.164 C  
ENDBRANCH  20  22
ENDBRANCH  19  20
ENDBRANCH  18  19
ENDBRANCH  17  18
ENDBRANCH  10  17
BRANCH  11  24
HETATM   24  C   UNL     1     -10.512  13.021  68.069  1.00  0.00    -0.228 C  
HETATM   25  C   UNL     1     -11.173  13.804  66.877  1.00  0.00    -0.326 A  
HETATM   26  C   UNL     1     -11.783  15.060  67.031  1.00  0.00    -0.199 A  
HETATM   27  C   UNL     1     -12.355  15.844  66.024  1.00  0.00     1.779 A  
HETATM   28  C   UNL     1     -12.373  15.351  64.754  1.00  0.00     0.119 A  
HETATM   29  C   UNL     1     -11.862  14.088  64.528  1.00  0.00    -0.434 A  
HETATM   30  F   UNL     1     -12.864  16.097  63.757  1.00  0.00     0.144 F  
HETATM   31  F   UNL     1     -11.888  13.603  63.276  1.00  0.00    -0.406 F  
HETATM   32  C   UNL     1     -11.294  13.298  65.569  1.00  0.00    -0.315 A  
HETATM   33  C   UNL     1     -10.679  11.999  65.170  1.00  0.00    -0.288 C  
HETATM   34  S   UNL     1      -8.925  12.342  64.951  1.00  0.00     1.074 SA 
HETATM   35  C   UNL     1      -8.380  12.165  66.642  1.00  0.00    -0.051 A  
HETATM   36  C   UNL     1      -7.035  11.728  66.684  1.00  0.00     0.027 A  
HETATM   37  C   UNL     1      -6.448  11.265  67.850  1.00  0.00    -0.058 A  
HETATM   38  C   UNL     1      -7.229  11.167  68.986  1.00  0.00    -0.118 A  
HETATM   39  C   UNL     1      -8.550  11.653  68.975  1.00  0.00     0.174 A  
HETATM   40  C   UNL     1      -9.134  12.267  67.832  1.00  0.00    -0.190 A  
ENDBRANCH  11  24
TORSDOF 6
ENDMDL
MODEL      167
REMARK 921   NORMALIZED FREE ENERGY PREDICTED BY IDOCK:   40.68 KCAL/MOL
REMARK 922        TOTAL FREE ENERGY PREDICTED BY IDOCK:   54.21 KCAL/MOL
REMARK 923 INTER-LIGAND FREE ENERGY PREDICTED BY IDOCK:   27.66 KCAL/MOL
REMARK 924 INTRA-LIGAND FREE ENERGY PREDICTED BY IDOCK:   26.55 KCAL/MOL
REMARK 927      BINDING AFFINITY PREDICTED BY RF-SCORE:    0.00 PKD
ROOT
HETATM    1  C   UNL     1      -8.041   5.021  67.476  1.00  0.00    -0.099 C  
HETATM    2  C   UNL     1      -6.983   5.103  68.616  1.00  0.00    -0.056 C  
HETATM    3  O   UNL     1      -5.667   5.470  68.180  1.00  0.00    -0.011 OA 
HETATM    4  C   UNL     1      -5.726   6.663  67.402  1.00  0.00    -0.013 C  
HETATM    5  C   UNL     1      -6.429   6.387  66.079  1.00  0.00    -0.043 C  
HETATM    6  N   UNL     1      -7.631   5.562  66.197  1.00  0.00    -0.089 N  
HETATM    7  C   UNL     1      -8.393   5.291  65.061  1.00  0.00    -0.146 C  
HETATM    8  O   UNL     1      -7.934   5.452  63.933  1.00  0.00    -0.098 OA 
HETATM    9  C   UNL     1      -9.887   5.074  65.353  1.00  0.00     0.021 C  
HETATM   10  C   UNL     1     -10.777   5.140  64.331  1.00  0.00     1.565 C  
HETATM   11  N   UNL     1      -9.416   5.458  67.756  1.00  0.00    -0.116 NA 
HETATM   12  C   UNL     1     -12.241   5.058  64.690  1.00  0.00     3.944 C  
HETATM   13  O   UNL     1     -13.142   5.206  63.869  1.00  0.00     5.547 OA 
HETATM   14  N   UNL     1     -10.304   5.046  66.705  1.00  0.00    -0.249 NA 
HETATM   15  C   UNL     1     -12.605   4.780  66.092  1.00  0.00     8.313 C  
HETATM   16  C   UNL     1     -11.626   4.790  66.998  1.00  0.00     4.078 C  
ENDROOT
BRANCH  10  17
HETATM   17  O   UNL     1     -10.389   5.454  63.043  1.00  0.00     1.449 OA 
BRANCH  17  18
HETATM   18  C   UNL     1      -8.992   5.572  62.795  1.00  0.00     0.214 C  
BRANCH  18  19
HETATM   19  O   UNL     1      -8.269   4.729  63.692  1.00  0.00    -0.098 OA 
BRANCH  19  20
HETATM   20  C   UNL     1      -6.943   4.708  63.431  1.00  0.00    -0.043 C  
HETATM   21  O   UNL     1      -6.179   3.773  63.627  1.00  0.00    -0.020 OA 
BRANCH  20  22
HETATM   22  O   UNL     1      -6.607   5.897  62.866  1.00  0.00    -0.034 OA 
HETATM   23  C   UNL     1      -5.222   6.204  62.974  1.00  0.00    -0.018 C  
ENDBRANCH  20  22
ENDBRANCH  19  20
ENDBRANCH  18  19
ENDBRANCH  17  18
ENDBRANCH  10  17
BRANCH  11  24
HETATM   24  C   UNL     1      -9.724   6.789  68.452  1.00  0.00    -0.128 C  
HETATM   25  C   UNL     1      -9.972   8.046  67.541  1.00  0.00    -0.253 A  
HETATM   26  C   UNL     1      -9.816   8.023  66.146  1.00  0.00    -0.057 A  
HETATM   27  C   UNL     1     -10.055   9.076  65.257  1.00  0.00     0.808 A  
HETATM   28  C   UNL     1     -10.444  10.277  65.770  1.00  0.00    -0.089 A  
HETATM   29  C   UNL     1     -10.547  10.409  67.141  1.00  0.00    -0.261 A  
HETATM   30  F   UNL     1     -10.732  11.291  64.945  1.00  0.00    -0.338 F  
HETATM   31  F   UNL     1     -10.924  11.596  67.642  1.00  0.00    -0.222 F  
HETATM   32  C   UNL     1     -10.288   9.327  68.031  1.00  0.00    -0.270 A  
HETATM   33  C   UNL     1     -10.542   9.572  69.481  1.00  0.00    -0.221 C  
HETATM   34  S   UNL     1     -12.209   8.965  69.788  1.00  0.00     1.419 SA 
HETATM   35  C   UNL     1     -11.845   7.241  70.068  1.00  0.00     0.094 A  
HETATM   36  C   UNL     1     -12.796   6.672  70.948  1.00  0.00     0.091 A  
HETATM   37  C   UNL     1     -12.605   5.432  71.535  1.00  0.00     2.229 A  
HETATM   38  C   UNL     1     -11.416   4.767  71.299  1.00  0.00     1.504 A  
HETATM   39  C   UNL     1     -10.488   5.292  70.380  1.00  0.00    -0.322 A  
HETATM   40  C   UNL     1     -10.721   6.492  69.652  1.00  0.00    -0.323 A  
ENDBRANCH  11  24
TORSDOF 6
ENDMDL
MODEL      168
REMARK 921   NORMALIZED FREE ENERGY PREDICTED BY IDOCK:   41.01 KCAL/MOL
REMARK 922        TOTAL FREE ENERGY PREDICTED BY IDOCK:   54.65 KCAL/MOL
REMARK 923 INTER-LIGAND FREE ENERGY PREDICTED BY IDOCK:   41.20 KCAL/MOL
REMARK 924 INTRA-LIGAND FREE ENERGY PREDICTED BY IDOCK:   13.45 KCAL/MOL
REMARK 927      BINDING AFFINITY PREDICTED BY RF-SCORE:    0.00 PKD
ROOT
HETATM    1  C   UNL     1      -8.249   9.479  66.147  1.00  0.00    -0.115 C  
HETATM    2  C   UNL     1      -7.668  10.867  65.742  1.00  0.00    -0.036 C  
HETATM    3  O   UNL     1      -8.296  11.465  64.600  1.00  0.00     0.383 OA 
HETATM    4  C   UNL     1      -9.709  11.497  64.783  1.00  0.00    -0.219 C  
HETATM    5  C   UNL     1     -10.270  10.081  64.744  1.00  0.00     0.100 C  
HETATM    6  N   UNL     1      -9.485   9.101  65.495  1.00  0.00    -0.239 N  
HETATM    7  C   UNL     1      -9.932   7.784  65.582  1.00  0.00     1.077 C  
HETATM    8  O   UNL     1     -10.779   7.346  64.808  1.00  0.00     6.046 OA 
HETATM    9  C   UNL     1      -9.501   7.067  66.872  1.00  0.00    -0.160 C  
HETATM   10  C   UNL     1     -10.135   5.924  67.237  1.00  0.00    -0.174 C  
HETATM   11  N   UNL     1      -8.344   9.143  67.575  1.00  0.00    -0.115 NA 
HETATM   12  C   UNL     1      -9.769   5.335  68.579  1.00  0.00    -0.143 C  
HETATM   13  O   UNL     1     -10.343   4.364  69.063  1.00  0.00     0.085 OA 
HETATM   14  N   UNL     1      -8.621   7.745  67.749  1.00  0.00    -0.121 NA 
HETATM   15  C   UNL     1      -8.667   5.953  69.339  1.00  0.00    -0.116 C  
HETATM   16  C   UNL     1      -8.169   7.102  68.880  1.00  0.00    -0.125 C  
ENDROOT
BRANCH  10  17
HETATM   17  O   UNL     1     -11.197   5.415  66.515  1.00  0.00    -0.006 OA 
BRANCH  17  18
HETATM   18  C   UNL     1     -11.298   3.998  66.420  1.00  0.00     3.706 C  
BRANCH  18  19
HETATM   19  O   UNL     1     -10.373   3.511  65.449  1.00  0.00     0.111 OA 
BRANCH  19  20
HETATM   20  C   UNL     1     -10.897   2.535  64.674  1.00  0.00     1.085 C  
HETATM   21  O   UNL     1     -11.475   1.530  65.065  1.00  0.00     2.807 OA 
BRANCH  20  22
HETATM   22  O   UNL     1     -10.710   2.884  63.375  1.00  0.00    -0.218 OA 
HETATM   23  C   UNL     1      -9.639   3.799  63.182  1.00  0.00    -0.132 C  
ENDBRANCH  20  22
ENDBRANCH  19  20
ENDBRANCH  18  19
ENDBRANCH  17  18
ENDBRANCH  10  17
BRANCH  11  24
HETATM   24  C   UNL     1      -8.943  10.110  68.603  1.00  0.00    -0.136 C  
HETATM   25  C   UNL     1      -7.960  10.784  69.628  1.00  0.00     0.065 A  
HETATM   26  C   UNL     1      -6.596  10.456  69.709  1.00  0.00    -0.103 A  
HETATM   27  C   UNL     1      -5.644  11.032  70.556  1.00  0.00    -0.125 A  
HETATM   28  C   UNL     1      -6.057  11.987  71.435  1.00  0.00     1.302 A  
HETATM   29  C   UNL     1      -7.398  12.315  71.476  1.00  0.00     7.654 A  
HETATM   30  F   UNL     1      -5.163  12.597  72.224  1.00  0.00    -0.090 F  
HETATM   31  F   UNL     1      -7.802  13.252  72.348  1.00  0.00     7.207 F  
HETATM   32  C   UNL     1      -8.356  11.708  70.612  1.00  0.00     5.374 A  
HETATM   33  C   UNL     1      -9.752  12.231  70.682  1.00  0.00     6.400 C  
HETATM   34  S   UNL     1      -9.873  13.463  69.374  1.00  0.00     0.957 SA 
HETATM   35  C   UNL     1     -10.263  12.392  68.001  1.00  0.00    -0.219 A  
HETATM   36  C   UNL     1     -11.040  13.084  67.041  1.00  0.00    -0.311 A  
HETATM   37  C   UNL     1     -11.694  12.427  66.012  1.00  0.00    -0.469 A  
HETATM   38  C   UNL     1     -11.635  11.047  65.970  1.00  0.00     0.634 A  
HETATM   39  C   UNL     1     -10.819  10.349  66.880  1.00  0.00    -0.229 A  
HETATM   40  C   UNL     1     -10.021  11.008  67.857  1.00  0.00    -0.192 A  
ENDBRANCH  11  24
TORSDOF 6
ENDMDL
MODEL      169
REMARK 921   NORMALIZED FREE ENERGY PREDICTED BY IDOCK:   42.78 KCAL/MOL
REMARK 922        TOTAL FREE ENERGY PREDICTED BY IDOCK:   57.05 KCAL/MOL
REMARK 923 INTER-LIGAND FREE ENERGY PREDICTED BY IDOCK:   26.00 KCAL/MOL
REMARK 924 INTRA-LIGAND FREE ENERGY PREDICTED BY IDOCK:   31.05 KCAL/MOL
REMARK 927      BINDING AFFINITY PREDICTED BY RF-SCORE:    0.00 PKD
ROOT
HETATM    1  C   UNL     1      -8.659   5.938  70.249  1.00  0.00    -0.134 C  
HETATM    2  C   UNL     1      -7.971   5.960  71.646  1.00  0.00    -0.113 C  
HETATM    3  O   UNL     1      -6.538   5.941  71.603  1.00  0.00    -0.051 OA 
HETATM    4  C   UNL     1      -6.063   6.975  70.744  1.00  0.00    -0.032 C  
HETATM    5  C   UNL     1      -6.423   6.656  69.299  1.00  0.00    -0.039 C  
HETATM    6  N   UNL     1      -7.787   6.158  69.114  1.00  0.00    -0.102 N  
HETATM    7  C   UNL     1      -8.252   5.889  67.828  1.00  0.00    -0.105 C  
HETATM    8  O   UNL     1      -7.475   5.756  66.886  1.00  0.00    -0.082 OA 
HETATM    9  C   UNL     1      -9.770   6.068  67.667  1.00  0.00    -0.115 C  
HETATM   10  C   UNL     1     -10.295   6.170  66.420  1.00  0.00    -0.037 C  
HETATM   11  N   UNL     1      -9.891   6.717  70.056  1.00  0.00    -0.165 NA 
HETATM   12  C   UNL     1     -11.769   6.483  66.321  1.00  0.00     2.450 C  
HETATM   13  O   UNL     1     -12.338   6.698  65.254  1.00  0.00     6.794 OA 
HETATM   14  N   UNL     1     -10.533   6.354  68.824  1.00  0.00    -0.197 NA 
HETATM   15  C   UNL     1     -12.563   6.526  67.563  1.00  0.00     6.996 C  
HETATM   16  C   UNL     1     -11.903   6.458  68.720  1.00  0.00     0.923 C  
ENDROOT
BRANCH  10  17
HETATM   17  O   UNL     1      -9.501   6.175  65.290  1.00  0.00     0.293 OA 
BRANCH  17  18
HETATM   18  C   UNL     1      -8.858   4.953  64.942  1.00  0.00    -0.152 C  
BRANCH  18  19
HETATM   19  O   UNL     1      -7.447   5.085  65.105  1.00  0.00    -0.074 OA 
BRANCH  19  20
HETATM   20  C   UNL     1      -7.115   5.997  66.046  1.00  0.00    -0.074 C  
HETATM   21  O   UNL     1      -6.416   5.802  67.031  1.00  0.00    -0.044 OA 
BRANCH  20  22
HETATM   22  O   UNL     1      -7.657   7.189  65.685  1.00  0.00    -0.084 OA 
HETATM   23  C   UNL     1      -6.688   8.202  65.442  1.00  0.00    -0.052 C  
ENDBRANCH  20  22
ENDBRANCH  19  20
ENDBRANCH  18  19
ENDBRANCH  17  18
ENDBRANCH  10  17
BRANCH  11  24
HETATM   24  C   UNL     1     -10.012   8.177  70.507  1.00  0.00    -0.187 C  
HETATM   25  C   UNL     1      -8.948   9.198  69.962  1.00  0.00    -0.201 A  
HETATM   26  C   UNL     1      -7.846   8.811  69.182  1.00  0.00    -0.098 A  
HETATM   27  C   UNL     1      -6.878   9.651  68.621  1.00  0.00    -0.056 A  
HETATM   28  C   UNL     1      -6.962  10.988  68.871  1.00  0.00    -0.088 A  
HETATM   29  C   UNL     1      -7.972  11.445  69.694  1.00  0.00     0.629 A  
HETATM   30  F   UNL     1      -6.084  11.826  68.308  1.00  0.00    -0.049 F  
HETATM   31  F   UNL     1      -8.048  12.762  69.943  1.00  0.00     1.070 F  
HETATM   32  C   UNL     1      -8.943  10.572  70.266  1.00  0.00     0.895 A  
HETATM   33  C   UNL     1     -10.045  11.208  71.045  1.00  0.00     4.230 C  
HETATM   34  S   UNL     1     -11.410  11.396  69.887  1.00  0.00    -0.165 SA 
HETATM   35  C   UNL     1     -12.142   9.775  70.033  1.00  0.00     0.125 A  
HETATM   36  C   UNL     1     -13.534   9.837  69.783  1.00  0.00     1.775 A  
HETATM   37  C   UNL     1     -14.382   8.784  70.082  1.00  0.00     2.001 A  
HETATM   38  C   UNL     1     -13.854   7.668  70.703  1.00  0.00     0.618 A  
HETATM   39  C   UNL     1     -12.464   7.567  70.903  1.00  0.00    -0.163 A  
HETATM   40  C   UNL     1     -11.551   8.571  70.476  1.00  0.00    -0.145 A  
ENDBRANCH  11  24
TORSDOF 6
ENDMDL
MODEL      170
REMARK 921   NORMALIZED FREE ENERGY PREDICTED BY IDOCK:   45.32 KCAL/MOL
REMARK 922        TOTAL FREE ENERGY PREDICTED BY IDOCK:   60.47 KCAL/MOL
REMARK 923 INTER-LIGAND FREE ENERGY PREDICTED BY IDOCK:   52.53 KCAL/MOL
REMARK 924 INTRA-LIGAND FREE ENERGY PREDICTED BY IDOCK:    7.94 KCAL/MOL
REMARK 927      BINDING AFFINITY PREDICTED BY RF-SCORE:    0.00 PKD
ROOT
HETATM    1  C   UNL     1      -6.684  14.281  67.822  1.00  0.00    -0.176 C  
HETATM    2  C   UNL     1      -6.343  14.895  66.432  1.00  0.00     3.443 C  
HETATM    3  O   UNL     1      -7.101  14.355  65.341  1.00  0.00     7.189 OA 
HETATM    4  C   UNL     1      -8.494  14.416  65.639  1.00  0.00     2.239 C  
HETATM    5  C   UNL     1      -8.828  13.445  66.763  1.00  0.00    -0.132 C  
HETATM    6  N   UNL     1      -7.871  13.452  67.870  1.00  0.00    -0.136 N  
HETATM    7  C   UNL     1      -8.102  12.649  68.985  1.00  0.00     0.349 C  
HETATM    8  O   UNL     1      -8.900  11.715  68.942  1.00  0.00    -0.061 OA 
HETATM    9  C   UNL     1      -7.514  13.212  70.288  1.00  0.00     2.165 C  
HETATM   10  C   UNL     1      -7.947  12.719  71.477  1.00  0.00    11.351 C  
HETATM   11  N   UNL     1      -6.670  15.156  69.003  1.00  0.00    -0.113 NA 
HETATM   12  C   UNL     1      -7.442  13.400  72.726  1.00  0.00     8.797 C  
HETATM   13  O   UNL     1      -7.838  13.113  73.852  1.00  0.00     7.210 OA 
HETATM   14  N   UNL     1      -6.718  14.380  70.210  1.00  0.00    -0.080 NA 
HETATM   15  C   UNL     1      -6.421  14.455  72.587  1.00  0.00     1.430 C  
HETATM   16  C   UNL     1      -6.127  14.871  71.354  1.00  0.00     0.330 C  
ENDROOT
BRANCH  10  17
HETATM   17  O   UNL     1      -8.944  11.766  71.553  1.00  0.00    10.538 OA 
BRANCH  17  18
HETATM   18  C   UNL     1      -8.823  10.630  70.703  1.00  0.00     2.358 C  
BRANCH  18  19
HETATM   19  O   UNL     1      -9.715   9.604  71.138  1.00  0.00    -0.163 OA 
BRANCH  19  20
HETATM   20  C   UNL     1     -10.964   9.757  70.645  1.00  0.00    -0.331 C  
HETATM   21  O   UNL     1     -11.993   9.296  71.119  1.00  0.00    -0.293 OA 
BRANCH  20  22
HETATM   22  O   UNL     1     -10.889  10.555  69.549  1.00  0.00    -0.223 OA 
HETATM   23  C   UNL     1     -10.993   9.843  68.322  1.00  0.00    -0.196 C  
ENDBRANCH  20  22
ENDBRANCH  19  20
ENDBRANCH  18  19
ENDBRANCH  17  18
ENDBRANCH  10  17
BRANCH  11  24
HETATM   24  C   UNL     1      -7.373  16.519  69.018  1.00  0.00    -0.228 C  
HETATM   25  C   UNL     1      -6.947  17.569  67.929  1.00  0.00    -0.185 A  
HETATM   26  C   UNL     1      -5.890  17.353  67.029  1.00  0.00    -0.186 A  
HETATM   27  C   UNL     1      -5.471  18.209  66.005  1.00  0.00    -0.219 A  
HETATM   28  C   UNL     1      -6.109  19.404  65.863  1.00  0.00    -0.185 A  
HETATM   29  C   UNL     1      -7.111  19.731  66.756  1.00  0.00    -0.219 A  
HETATM   30  F   UNL     1      -5.770  20.225  64.861  1.00  0.00    -0.183 F  
HETATM   31  F   UNL     1      -7.733  20.912  66.615  1.00  0.00    -0.260 F  
HETATM   32  C   UNL     1      -7.516  18.850  67.801  1.00  0.00    -0.260 A  
HETATM   33  C   UNL     1      -8.683  19.277  68.626  1.00  0.00    -0.365 C  
HETATM   34  S   UNL     1     -10.118  18.485  67.880  1.00  0.00    -0.388 SA 
HETATM   35  C   UNL     1     -10.030  16.898  68.690  1.00  0.00    -0.279 A  
HETATM   36  C   UNL     1     -11.324  16.338  68.821  1.00  0.00    -0.329 A  
HETATM   37  C   UNL     1     -11.573  15.246  69.635  1.00  0.00    -0.340 A  
HETATM   38  C   UNL     1     -10.534  14.736  70.390  1.00  0.00     0.210 A  
HETATM   39  C   UNL     1      -9.231  15.243  70.226  1.00  0.00     0.623 A  
HETATM   40  C   UNL     1      -8.918  16.268  69.291  1.00  0.00    -0.170 A  
ENDBRANCH  11  24
TORSDOF 6
ENDMDL
MODEL      171
REMARK 921   NORMALIZED FREE ENERGY PREDICTED BY IDOCK:   46.43 KCAL/MOL
REMARK 922        TOTAL FREE ENERGY PREDICTED BY IDOCK:   61.98 KCAL/MOL
REMARK 923 INTER-LIGAND FREE ENERGY PREDICTED BY IDOCK:   49.99 KCAL/MOL
REMARK 924 INTRA-LIGAND FREE ENERGY PREDICTED BY IDOCK:   11.98 KCAL/MOL
REMARK 927      BINDING AFFINITY PREDICTED BY RF-SCORE:    0.00 PKD
ROOT
HETATM    1  C   UNL     1      -7.712  10.819  69.080  1.00  0.00    -0.133 C  
HETATM    2  C   UNL     1      -8.402  10.352  70.395  1.00  0.00     0.891 C  
HETATM    3  O   UNL     1      -8.109  11.163  71.541  1.00  0.00     5.672 OA 
HETATM    4  C   UNL     1      -8.366  12.534  71.246  1.00  0.00    12.112 C  
HETATM    5  C   UNL     1      -7.352  13.046  70.232  1.00  0.00     1.970 C  
HETATM    6  N   UNL     1      -7.088  12.125  69.126  1.00  0.00    -0.061 N  
HETATM    7  C   UNL     1      -6.222  12.509  68.103  1.00  0.00    -0.072 C  
HETATM    8  O   UNL     1      -5.442  13.447  68.248  1.00  0.00    -0.082 OA 
HETATM    9  C   UNL     1      -6.544  11.867  66.744  1.00  0.00    -0.019 C  
HETATM   10  C   UNL     1      -6.009  12.401  65.617  1.00  0.00     3.829 C  
HETATM   11  N   UNL     1      -8.446  10.690  67.813  1.00  0.00    -0.115 NA 
HETATM   12  C   UNL     1      -6.465  11.819  64.300  1.00  0.00     3.773 C  
HETATM   13  O   UNL     1      -6.132  12.282  63.213  1.00  0.00     3.529 OA 
HETATM   14  N   UNL     1      -7.568  10.890  66.695  1.00  0.00    -0.133 NA 
HETATM   15  C   UNL     1      -7.348  10.638  64.322  1.00  0.00     0.224 C  
HETATM   16  C   UNL     1      -7.835  10.253  65.503  1.00  0.00    -0.152 C  
ENDROOT
BRANCH  10  17
HETATM   17  O   UNL     1      -5.229  13.540  65.647  1.00  0.00     5.424 OA 
BRANCH  17  18
HETATM   18  C   UNL     1      -5.871  14.775  65.347  1.00  0.00    12.125 C  
BRANCH  18  19
HETATM   19  O   UNL     1      -5.772  15.655  66.466  1.00  0.00     0.517 OA 
BRANCH  19  20
HETATM   20  C   UNL     1      -6.981  16.049  66.926  1.00  0.00    -0.104 C  
HETATM   21  O   UNL     1      -8.070  15.655  66.533  1.00  0.00    -0.249 OA 
BRANCH  20  22
HETATM   22  O   UNL     1      -6.778  16.930  67.939  1.00  0.00    -0.137 OA 
HETATM   23  C   UNL     1      -6.549  18.262  67.494  1.00  0.00    -0.195 C  
ENDBRANCH  20  22
ENDBRANCH  19  20
ENDBRANCH  18  19
ENDBRANCH  17  18
ENDBRANCH  10  17
BRANCH  11  24
HETATM   24  C   UNL     1      -9.896  11.162  67.658  1.00  0.00    -0.174 C  
HETATM   25  C   UNL     1     -10.299  12.517  68.348  1.00  0.00    -0.237 A  
HETATM   26  C   UNL     1      -9.428  13.241  69.178  1.00  0.00     0.540 A  
HETATM   27  C   UNL     1      -9.684  14.469  69.796  1.00  0.00     0.426 A  
HETATM   28  C   UNL     1     -10.914  15.031  69.627  1.00  0.00    -0.279 A  
HETATM   29  C   UNL     1     -11.859  14.346  68.888  1.00  0.00    -0.320 A  
HETATM   30  F   UNL     1     -11.177  16.231  70.160  1.00  0.00    -0.314 F  
HETATM   31  F   UNL     1     -13.071  14.901  68.730  1.00  0.00     0.475 F  
HETATM   32  C   UNL     1     -11.582  13.089  68.276  1.00  0.00    -0.375 A  
HETATM   33  C   UNL     1     -12.654  12.510  67.414  1.00  0.00     1.378 C  
HETATM   34  S   UNL     1     -12.252  13.020  65.735  1.00  0.00    -0.416 SA 
HETATM   35  C   UNL     1     -11.102  11.726  65.304  1.00  0.00    -0.276 A  
HETATM   36  C   UNL     1     -11.135  11.480  63.910  1.00  0.00    -0.458 A  
HETATM   37  C   UNL     1     -10.542  10.362  63.347  1.00  0.00     0.747 A  
HETATM   38  C   UNL     1      -9.960   9.431  64.186  1.00  0.00     1.320 A  
HETATM   39  C   UNL     1      -9.866   9.691  65.567  1.00  0.00    -0.352 A  
HETATM   40  C   UNL     1     -10.338  10.897  66.155  1.00  0.00    -0.305 A  
ENDBRANCH  11  24
TORSDOF 6
ENDMDL
MODEL      172
REMARK 921   NORMALIZED FREE ENERGY PREDICTED BY IDOCK:   61.97 KCAL/MOL
REMARK 922        TOTAL FREE ENERGY PREDICTED BY IDOCK:   82.97 KCAL/MOL
REMARK 923 INTER-LIGAND FREE ENERGY PREDICTED BY IDOCK:   70.28 KCAL/MOL
REMARK 924 INTRA-LIGAND FREE ENERGY PREDICTED BY IDOCK:   12.69 KCAL/MOL
REMARK 927      BINDING AFFINITY PREDICTED BY RF-SCORE:    0.00 PKD
ROOT
HETATM    1  C   UNL     1     -12.776   8.610  67.705  1.00  0.00    10.229 C  
HETATM    2  C   UNL     1     -12.630   8.551  66.156  1.00  0.00    13.971 C  
HETATM    3  O   UNL     1     -13.156   9.693  65.465  1.00  0.00    13.170 OA 
HETATM    4  C   UNL     1     -12.614  10.889  66.019  1.00  0.00     5.165 C  
HETATM    5  C   UNL     1     -13.153  11.100  67.428  1.00  0.00     7.090 C  
HETATM    6  N   UNL     1     -13.177   9.890  68.251  1.00  0.00     6.921 N  
HETATM    7  C   UNL     1     -13.594   9.970  69.579  1.00  0.00     2.662 C  
HETATM    8  O   UNL     1     -14.229  10.938  69.989  1.00  0.00     2.441 OA 
HETATM    9  C   UNL     1     -12.947   8.920  70.496  1.00  0.00     0.638 C  
HETATM   10  C   UNL     1     -12.999   9.095  71.841  1.00  0.00    -0.404 C  
HETATM   11  N   UNL     1     -11.697   8.058  68.537  1.00  0.00     1.503 NA 
HETATM   12  C   UNL     1     -12.231   8.110  72.690  1.00  0.00    -0.212 C  
HETATM   13  O   UNL     1     -12.119   8.221  73.908  1.00  0.00     2.118 OA 
HETATM   14  N   UNL     1     -12.123   7.934  69.903  1.00  0.00     0.647 NA 
HETATM   15  C   UNL     1     -11.592   6.959  72.026  1.00  0.00    -0.322 C  
HETATM   16  C   UNL     1     -11.581   6.944  70.692  1.00  0.00    -0.353 C  
ENDROOT
BRANCH  10  17
HETATM   17  O   UNL     1     -13.565  10.218  72.411  1.00  0.00    -0.275 OA 
BRANCH  17  18
HETATM   18  C   UNL     1     -12.690  11.291  72.742  1.00  0.00     2.700 C  
BRANCH  18  19
HETATM   19  O   UNL     1     -12.884  12.372  71.831  1.00  0.00    -0.301 OA 
BRANCH  19  20
HETATM   20  C   UNL     1     -11.733  12.774  71.247  1.00  0.00     1.356 C  
HETATM   21  O   UNL     1     -10.674  12.163  71.236  1.00  0.00     4.109 OA 
BRANCH  20  22
HETATM   22  O   UNL     1     -11.967  13.960  70.629  1.00  0.00    -0.323 OA 
HETATM   23  C   UNL     1     -13.284  14.077  70.105  1.00  0.00     0.494 C  
ENDBRANCH  20  22
ENDBRANCH  19  20
ENDBRANCH  18  19
ENDBRANCH  17  18
ENDBRANCH  10  17
BRANCH  11  24
HETATM   24  C   UNL     1     -10.222   8.395  68.290  1.00  0.00    -0.205 C  
HETATM   25  C   UNL     1      -9.308   7.266  67.688  1.00  0.00    -0.139 A  
HETATM   26  C   UNL     1      -9.755   5.952  67.474  1.00  0.00    -0.123 A  
HETATM   27  C   UNL     1      -9.029   4.900  66.907  1.00  0.00    -0.109 A  
HETATM   28  C   UNL     1      -7.735   5.130  66.547  1.00  0.00    -0.092 A  
HETATM   29  C   UNL     1      -7.191   6.375  66.794  1.00  0.00    -0.077 A  
HETATM   30  F   UNL     1      -7.028   4.162  65.953  1.00  0.00    -0.058 F  
HETATM   31  F   UNL     1      -5.914   6.596  66.444  1.00  0.00    -0.024 F  
HETATM   32  C   UNL     1      -7.944   7.432  67.384  1.00  0.00    -0.112 A  
HETATM   33  C   UNL     1      -7.270   8.758  67.494  1.00  0.00    -0.080 C  
HETATM   34  S   UNL     1      -7.781   9.682  66.035  1.00  0.00    -0.104 SA 
HETATM   35  C   UNL     1      -9.331  10.336  66.631  1.00  0.00    -0.161 A  
HETATM   36  C   UNL     1      -9.618  11.572  66.006  1.00  0.00    -0.251 A  
HETATM   37  C   UNL     1     -10.615  12.416  66.467  1.00  0.00    -0.261 A  
HETATM   38  C   UNL     1     -11.300  12.060  67.613  1.00  0.00    -0.375 A  
HETATM   39  C   UNL     1     -11.068  10.807  68.211  1.00  0.00    -0.327 A  
HETATM   40  C   UNL     1     -10.152   9.859  67.676  1.00  0.00    -0.241 A  
ENDBRANCH  11  24
TORSDOF 6
ENDMDL
MODEL      173
REMARK 921   NORMALIZED FREE ENERGY PREDICTED BY IDOCK:   69.87 KCAL/MOL
REMARK 922        TOTAL FREE ENERGY PREDICTED BY IDOCK:   93.64 KCAL/MOL
REMARK 923 INTER-LIGAND FREE ENERGY PREDICTED BY IDOCK:   87.17 KCAL/MOL
REMARK 924 INTRA-LIGAND FREE ENERGY PREDICTED BY IDOCK:    6.47 KCAL/MOL
REMARK 927      BINDING AFFINITY PREDICTED BY RF-SCORE:    0.00 PKD
ROOT
HETATM    1  C   UNL     1      -8.018  16.952  67.591  1.00  0.00    -0.174 C  
HETATM    2  C   UNL     1      -6.521  17.092  67.996  1.00  0.00    -0.145 C  
HETATM    3  O   UNL     1      -6.181  18.352  68.591  1.00  0.00    -0.197 OA 
HETATM    4  C   UNL     1      -7.068  18.636  69.669  1.00  0.00     0.137 C  
HETATM    5  C   UNL     1      -8.468  18.910  69.134  1.00  0.00    -0.020 C  
HETATM    6  N   UNL     1      -8.904  17.983  68.088  1.00  0.00    -0.266 N  
HETATM    7  C   UNL     1     -10.190  18.096  67.562  1.00  0.00    -0.371 C  
HETATM    8  O   UNL     1     -10.852  19.120  67.714  1.00  0.00    -0.407 OA 
HETATM    9  C   UNL     1     -10.776  16.765  67.064  1.00  0.00    -0.161 C  
HETATM   10  C   UNL     1     -12.112  16.670  66.849  1.00  0.00     2.163 C  
HETATM   11  N   UNL     1      -8.674  15.646  67.753  1.00  0.00    -0.168 NA 
HETATM   12  C   UNL     1     -12.654  15.306  66.494  1.00  0.00     1.262 C  
HETATM   13  O   UNL     1     -13.853  15.072  66.375  1.00  0.00     2.966 OA 
HETATM   14  N   UNL     1      -9.937  15.625  67.070  1.00  0.00    -0.237 NA 
HETATM   15  C   UNL     1     -11.696  14.206  66.274  1.00  0.00    -0.402 C  
HETATM   16  C   UNL     1     -10.416  14.433  66.571  1.00  0.00    -0.289 C  
ENDROOT
BRANCH  10  17
HETATM   17  O   UNL     1     -12.973  17.716  67.120  1.00  0.00     5.647 OA 
BRANCH  17  18
HETATM   18  C   UNL     1     -12.476  18.771  67.937  1.00  0.00     5.195 C  
BRANCH  18  19
HETATM   19  O   UNL     1     -13.357  18.983  69.040  1.00  0.00    12.674 OA 
BRANCH  19  20
HETATM   20  C   UNL     1     -13.352  20.265  69.470  1.00  0.00    12.811 C  
HETATM   21  O   UNL     1     -14.193  20.794  70.184  1.00  0.00     7.204 OA 
BRANCH  20  22
HETATM   22  O   UNL     1     -12.222  20.860  69.007  1.00  0.00     3.728 OA 
HETATM   23  C   UNL     1     -11.331  21.264  70.039  1.00  0.00     3.733 C  
ENDBRANCH  20  22
ENDBRANCH  19  20
ENDBRANCH  18  19
ENDBRANCH  17  18
ENDBRANCH  10  17
BRANCH  11  24
HETATM   24  C   UNL     1      -8.563  14.831  69.047  1.00  0.00    -0.137 C  
HETATM   25  C   UNL     1      -9.886  14.550  69.846  1.00  0.00     0.492 A  
HETATM   26  C   UNL     1     -11.129  15.099  69.488  1.00  0.00    -0.287 A  
HETATM   27  C   UNL     1     -12.359  14.870  70.112  1.00  0.00    -0.376 A  
HETATM   28  C   UNL     1     -12.384  14.065  71.211  1.00  0.00    -0.355 A  
HETATM   29  C   UNL     1     -11.193  13.545  71.679  1.00  0.00     3.111 A  
HETATM   30  F   UNL     1     -13.551  13.782  71.802  1.00  0.00    -0.393 F  
HETATM   31  F   UNL     1     -11.222  12.757  72.765  1.00  0.00     4.686 F  
HETATM   32  C   UNL     1      -9.947  13.799  71.035  1.00  0.00     5.020 A  
HETATM   33  C   UNL     1      -8.753  13.088  71.577  1.00  0.00    15.074 C  
HETATM   34  S   UNL     1      -8.572  11.608  70.567  1.00  0.00     5.763 SA 
HETATM   35  C   UNL     1      -7.641  12.294  69.208  1.00  0.00     0.327 A  
HETATM   36  C   UNL     1      -6.813  11.304  68.627  1.00  0.00    -0.076 A  
HETATM   37  C   UNL     1      -5.803  11.621  67.734  1.00  0.00    -0.052 A  
HETATM   38  C   UNL     1      -5.561  12.953  67.460  1.00  0.00    -0.084 A  
HETATM   39  C   UNL     1      -6.412  13.945  67.982  1.00  0.00    -0.147 A  
HETATM   40  C   UNL     1      -7.546  13.639  68.786  1.00  0.00    -0.079 A  
ENDBRANCH  11  24
TORSDOF 6
ENDMDL
MODEL      174
REMARK 921   NORMALIZED FREE ENERGY PREDICTED BY IDOCK:   70.94 KCAL/MOL
REMARK 922        TOTAL FREE ENERGY PREDICTED BY IDOCK:   95.09 KCAL/MOL
REMARK 923 INTER-LIGAND FREE ENERGY PREDICTED BY IDOCK:   82.23 KCAL/MOL
REMARK 924 INTRA-LIGAND FREE ENERGY PREDICTED BY IDOCK:   12.85 KCAL/MOL
REMARK 927      BINDING AFFINITY PREDICTED BY RF-SCORE:    0.00 PKD
ROOT
HETATM    1  C   UNL     1     -10.829  10.762  68.767  1.00  0.00    -0.221 C  
HETATM    2  C   UNL     1     -11.693   9.468  68.701  1.00  0.00     0.840 C  
HETATM    3  O   UNL     1     -12.538   9.257  69.841  1.00  0.00     0.718 OA 
HETATM    4  C   UNL     1     -13.318  10.423  70.091  1.00  0.00     0.441 C  
HETATM    5  C   UNL     1     -12.421  11.557  70.571  1.00  0.00    -0.280 C  
HETATM    6  N   UNL     1     -11.171  11.693  69.822  1.00  0.00    -0.184 N  
HETATM    7  C   UNL     1     -10.296  12.733  70.130  1.00  0.00     2.287 C  
HETATM    8  O   UNL     1     -10.380  13.342  71.194  1.00  0.00     4.270 OA 
HETATM    9  C   UNL     1      -9.456  13.212  68.935  1.00  0.00     0.244 C  
HETATM   10  C   UNL     1      -8.827  14.412  69.007  1.00  0.00     0.009 C  
HETATM   11  N   UNL     1     -10.592  11.517  67.528  1.00  0.00    -0.198 NA 
HETATM   12  C   UNL     1      -8.130  14.897  67.758  1.00  0.00    -0.152 C  
HETATM   13  O   UNL     1      -7.614  16.007  67.667  1.00  0.00    -0.129 OA 
HETATM   14  N   UNL     1      -9.557  12.494  67.720  1.00  0.00    -0.197 NA 
HETATM   15  C   UNL     1      -8.062  13.991  66.596  1.00  0.00     0.465 C  
HETATM   16  C   UNL     1      -8.769  12.862  66.651  1.00  0.00    -0.037 C  
ENDROOT
BRANCH  10  17
HETATM   17  O   UNL     1      -8.965  15.246  70.100  1.00  0.00     0.090 OA 
BRANCH  17  18
HETATM   18  C   UNL     1      -9.938  16.281  70.009  1.00  0.00     0.223 C  
BRANCH  18  19
HETATM   19  O   UNL     1     -10.181  16.597  68.638  1.00  0.00    -0.251 OA 
BRANCH  19  20
HETATM   20  C   UNL     1     -10.412  17.914  68.441  1.00  0.00    -0.330 C  
HETATM   21  O   UNL     1     -10.956  18.418  67.469  1.00  0.00    -0.354 OA 
BRANCH  20  22
HETATM   22  O   UNL     1      -9.973  18.586  69.537  1.00  0.00    -0.067 OA 
HETATM   23  C   UNL     1      -8.947  17.903  70.248  1.00  0.00     2.980 C  
ENDBRANCH  20  22
ENDBRANCH  19  20
ENDBRANCH  18  19
ENDBRANCH  17  18
ENDBRANCH  10  17
BRANCH  11  24
HETATM   24  C   UNL     1     -11.727  11.878  66.562  1.00  0.00    -0.170 C  
HETATM   25  C   UNL     1     -11.581  13.203  65.730  1.00  0.00    -0.383 A  
HETATM   26  C   UNL     1     -10.524  14.110  65.914  1.00  0.00    -0.313 A  
HETATM   27  C   UNL     1     -10.291  15.286  65.193  1.00  0.00    -0.413 A  
HETATM   28  C   UNL     1     -11.188  15.639  64.230  1.00  0.00    -0.104 A  
HETATM   29  C   UNL     1     -12.299  14.843  64.036  1.00  0.00    -0.059 A  
HETATM   30  F   UNL     1     -10.969  16.729  63.485  1.00  0.00     1.063 F  
HETATM   31  F   UNL     1     -13.183  15.198  63.089  1.00  0.00     1.289 F  
HETATM   32  C   UNL     1     -12.525  13.654  64.789  1.00  0.00    -0.391 A  
HETATM   33  C   UNL     1     -13.706  12.827  64.404  1.00  0.00     1.914 C  
HETATM   34  S   UNL     1     -13.073  11.574  63.277  1.00  0.00     1.182 SA 
HETATM   35  C   UNL     1     -12.520  10.365  64.466  1.00  0.00     6.174 A  
HETATM   36  C   UNL     1     -12.597   9.062  63.918  1.00  0.00    18.589 A  
HETATM   37  C   UNL     1     -12.479   7.926  64.702  1.00  0.00    20.632 A  
HETATM   38  C   UNL     1     -12.348   8.080  66.069  1.00  0.00    11.181 A  
HETATM   39  C   UNL     1     -12.209   9.367  66.622  1.00  0.00     7.478 A  
HETATM   40  C   UNL     1     -12.182  10.546  65.826  1.00  0.00     4.396 A  
ENDBRANCH  11  24
TORSDOF 6
ENDMDL
MODEL      175
REMARK 921   NORMALIZED FREE ENERGY PREDICTED BY IDOCK:   71.99 KCAL/MOL
REMARK 922        TOTAL FREE ENERGY PREDICTED BY IDOCK:   96.50 KCAL/MOL
REMARK 923 INTER-LIGAND FREE ENERGY PREDICTED BY IDOCK:   86.80 KCAL/MOL
REMARK 924 INTRA-LIGAND FREE ENERGY PREDICTED BY IDOCK:    9.70 KCAL/MOL
REMARK 927      BINDING AFFINITY PREDICTED BY RF-SCORE:    0.00 PKD
ROOT
HETATM    1  C   UNL     1      -8.841  11.322  66.782  1.00  0.00    -0.170 C  
HETATM    2  C   UNL     1      -7.471  11.766  67.373  1.00  0.00    -0.143 C  
HETATM    3  O   UNL     1      -7.556  12.810  68.352  1.00  0.00    -0.122 OA 
HETATM    4  C   UNL     1      -8.497  12.454  69.362  1.00  0.00     1.135 C  
HETATM    5  C   UNL     1      -9.905  12.452  68.783  1.00  0.00     0.008 C  
HETATM    6  N   UNL     1     -10.014  11.824  67.467  1.00  0.00    -0.191 N  
HETATM    7  C   UNL     1     -11.264  11.708  66.861  1.00  0.00    -0.313 C  
HETATM    8  O   UNL     1     -12.220  12.381  67.240  1.00  0.00    -0.478 OA 
HETATM    9  C   UNL     1     -11.391  10.497  65.924  1.00  0.00     0.815 C  
HETATM   10  C   UNL     1     -12.625  10.079  65.545  1.00  0.00    10.012 C  
HETATM   11  N   UNL     1      -9.048   9.900  66.470  1.00  0.00    -0.149 NA 
HETATM   12  C   UNL     1     -12.700   8.805  64.738  1.00  0.00    20.148 C  
HETATM   13  O   UNL     1     -13.761   8.273  64.423  1.00  0.00    17.898 OA 
HETATM   14  N   UNL     1     -10.232   9.721  65.679  1.00  0.00    -0.211 NA 
HETATM   15  C   UNL     1     -11.440   8.174  64.304  1.00  0.00    16.309 C  
HETATM   16  C   UNL     1     -10.302   8.667  64.794  1.00  0.00     3.850 C  
ENDROOT
BRANCH  10  17
HETATM   17  O   UNL     1     -13.776  10.675  66.022  1.00  0.00    11.732 OA 
BRANCH  17  18
HETATM   18  C   UNL     1     -14.032  12.014  65.613  1.00  0.00     7.952 C  
BRANCH  18  19
HETATM   19  O   UNL     1     -12.838  12.788  65.718  1.00  0.00    -0.381 OA 
BRANCH  19  20
HETATM   20  C   UNL     1     -13.086  14.112  65.839  1.00  0.00     0.103 C  
HETATM   21  O   UNL     1     -13.230  14.731  66.884  1.00  0.00     1.493 OA 
BRANCH  20  22
HETATM   22  O   UNL     1     -13.103  14.652  64.593  1.00  0.00    -0.392 OA 
HETATM   23  C   UNL     1     -12.858  13.704  63.561  1.00  0.00     0.637 C  
ENDBRANCH  20  22
ENDBRANCH  19  20
ENDBRANCH  18  19
ENDBRANCH  17  18
ENDBRANCH  10  17
BRANCH  11  24
HETATM   24  C   UNL     1      -8.693   8.787  67.463  1.00  0.00    -0.134 C  
HETATM   25  C   UNL     1      -9.587   8.645  68.748  1.00  0.00    -0.157 A  
HETATM   26  C   UNL     1     -10.611   9.551  69.072  1.00  0.00    -0.238 A  
HETATM   27  C   UNL     1     -11.479   9.480  70.166  1.00  0.00    -0.205 A  
HETATM   28  C   UNL     1     -11.317   8.458  71.052  1.00  0.00    -0.266 A  
HETATM   29  C   UNL     1     -10.284   7.565  70.851  1.00  0.00    -0.192 A  
HETATM   30  F   UNL     1     -12.164   8.329  72.081  1.00  0.00    -0.320 F  
HETATM   31  F   UNL     1     -10.124   6.562  71.730  1.00  0.00    -0.187 F  
HETATM   32  C   UNL     1      -9.401   7.660  69.736  1.00  0.00    -0.150 A  
HETATM   33  C   UNL     1      -8.397   6.568  69.577  1.00  0.00    -0.130 C  
HETATM   34  S   UNL     1      -9.142   5.389  68.438  1.00  0.00    -0.111 SA 
HETATM   35  C   UNL     1      -8.677   6.144  66.890  1.00  0.00    -0.109 A  
HETATM   36  C   UNL     1      -8.535   5.159  65.883  1.00  0.00    -0.121 A  
HETATM   37  C   UNL     1      -7.934   5.433  64.666  1.00  0.00    -0.112 A  
HETATM   38  C   UNL     1      -7.401   6.692  64.463  1.00  0.00    -0.086 A  
HETATM   39  C   UNL     1      -7.587   7.699  65.429  1.00  0.00    -0.094 A  
HETATM   40  C   UNL     1      -8.326   7.487  66.627  1.00  0.00    -0.127 A  
ENDBRANCH  11  24
TORSDOF 6
ENDMDL
MODEL      176
REMARK 921   NORMALIZED FREE ENERGY PREDICTED BY IDOCK:   85.13 KCAL/MOL
REMARK 922        TOTAL FREE ENERGY PREDICTED BY IDOCK:  114.25 KCAL/MOL
REMARK 923 INTER-LIGAND FREE ENERGY PREDICTED BY IDOCK:   83.33 KCAL/MOL
REMARK 924 INTRA-LIGAND FREE ENERGY PREDICTED BY IDOCK:   30.92 KCAL/MOL
REMARK 927      BINDING AFFINITY PREDICTED BY RF-SCORE:    0.00 PKD
ROOT
HETATM    1  C   UNL     1     -11.451  14.689  69.925  1.00  0.00    -0.274 C  
HETATM    2  C   UNL     1     -12.816  14.814  69.185  1.00  0.00     0.624 C  
HETATM    3  O   UNL     1     -13.230  16.162  68.925  1.00  0.00     1.483 OA 
HETATM    4  C   UNL     1     -12.185  16.875  68.268  1.00  0.00     1.704 C  
HETATM    5  C   UNL     1     -11.018  17.084  69.223  1.00  0.00    -0.008 C  
HETATM    6  N   UNL     1     -10.674  15.907  70.021  1.00  0.00    -0.322 N  
HETATM    7  C   UNL     1      -9.584  15.959  70.888  1.00  0.00     2.018 C  
HETATM    8  O   UNL     1      -9.099  17.032  71.237  1.00  0.00     5.809 OA 
HETATM    9  C   UNL     1      -8.899  14.600  71.107  1.00  0.00     3.723 C  
HETATM   10  C   UNL     1      -7.652  14.566  71.641  1.00  0.00     3.685 C  
HETATM   11  N   UNL     1     -10.552  13.582  69.566  1.00  0.00     0.175 NA 
HETATM   12  C   UNL     1      -6.971  13.219  71.707  1.00  0.00     4.640 C  
HETATM   13  O   UNL     1      -5.809  13.074  72.075  1.00  0.00    -0.206 OA 
HETATM   14  N   UNL     1      -9.496  13.454  70.530  1.00  0.00     4.483 NA 
HETATM   15  C   UNL     1      -7.741  12.024  71.316  1.00  0.00     8.142 C  
HETATM   16  C   UNL     1      -8.939  12.215  70.762  1.00  0.00     8.445 C  
ENDROOT
BRANCH  10  17
HETATM   17  O   UNL     1      -6.954  15.719  71.943  1.00  0.00     3.143 OA 
BRANCH  17  18
HETATM   18  C   UNL     1      -7.710  16.835  72.400  1.00  0.00    13.271 C  
BRANCH  18  19
HETATM   19  O   UNL     1      -7.420  17.978  71.596  1.00  0.00     6.185 OA 
BRANCH  19  20
HETATM   20  C   UNL     1      -6.097  18.128  71.363  1.00  0.00     1.363 C  
HETATM   21  O   UNL     1      -5.532  19.156  71.017  1.00  0.00    -0.235 OA 
BRANCH  20  22
HETATM   22  O   UNL     1      -5.487  16.942  71.623  1.00  0.00     0.099 OA 
HETATM   23  C   UNL     1      -5.754  16.443  72.928  1.00  0.00     2.276 C  
ENDBRANCH  20  22
ENDBRANCH  19  20
ENDBRANCH  18  19
ENDBRANCH  17  18
ENDBRANCH  10  17
BRANCH  11  24
HETATM   24  C   UNL     1     -10.218  13.241  68.109  1.00  0.00    -0.243 C  
HETATM   25  C   UNL     1      -9.303  11.990  67.846  1.00  0.00    -0.190 A  
HETATM   26  C   UNL     1      -8.702  11.250  68.877  1.00  0.00    -0.053 A  
HETATM   27  C   UNL     1      -7.913  10.104  68.739  1.00  0.00    -0.104 A  
HETATM   28  C   UNL     1      -7.648   9.652  67.481  1.00  0.00    -0.095 A  
HETATM   29  C   UNL     1      -8.137  10.366  66.405  1.00  0.00    -0.129 A  
HETATM   30  F   UNL     1      -6.941   8.528  67.312  1.00  0.00    -0.069 F  
HETATM   31  F   UNL     1      -7.869   9.921  65.167  1.00  0.00    -0.112 F  
HETATM   32  C   UNL     1      -8.930  11.539  66.566  1.00  0.00    -0.190 A  
HETATM   33  C   UNL     1      -9.487  12.151  65.325  1.00  0.00     0.027 C  
HETATM   34  S   UNL     1     -11.148  11.477  65.156  1.00  0.00    -0.138 SA 
HETATM   35  C   UNL     1     -12.033  12.617  66.205  1.00  0.00    -0.374 A  
HETATM   36  C   UNL     1     -13.371  12.757  65.764  1.00  0.00     1.923 A  
HETATM   37  C   UNL     1     -14.198  13.765  66.231  1.00  0.00     6.999 A  
HETATM   38  C   UNL     1     -13.671  14.697  67.105  1.00  0.00     6.218 A  
HETATM   39  C   UNL     1     -12.363  14.537  67.599  1.00  0.00     0.033 A  
HETATM   40  C   UNL     1     -11.539  13.431  67.248  1.00  0.00    -0.400 A  
ENDBRANCH  11  24
TORSDOF 6
ENDMDL
MODEL      177
REMARK 921   NORMALIZED FREE ENERGY PREDICTED BY IDOCK:   88.68 KCAL/MOL
REMARK 922        TOTAL FREE ENERGY PREDICTED BY IDOCK:  119.05 KCAL/MOL
REMARK 923 INTER-LIGAND FREE ENERGY PREDICTED BY IDOCK:   71.08 KCAL/MOL
REMARK 924 INTRA-LIGAND FREE ENERGY PREDICTED BY IDOCK:   47.98 KCAL/MOL
REMARK 927      BINDING AFFINITY PREDICTED BY RF-SCORE:    0.00 PKD
ROOT
HETATM    1  C   UNL     1     -10.619  12.634  67.093  1.00  0.00    -0.236 C  
HETATM    2  C   UNL     1     -10.154  14.055  66.658  1.00  0.00    -0.276 C  
HETATM    3  O   UNL     1     -11.188  14.873  66.094  1.00  0.00    -0.335 OA 
HETATM    4  C   UNL     1     -12.312  14.911  66.970  1.00  0.00     0.341 C  
HETATM    5  C   UNL     1     -12.982  13.544  67.015  1.00  0.00     1.443 C  
HETATM    6  N   UNL     1     -12.051  12.419  67.111  1.00  0.00    -0.154 N  
HETATM    7  C   UNL     1     -12.549  11.122  67.219  1.00  0.00     3.472 C  
HETATM    8  O   UNL     1     -13.713  10.861  66.927  1.00  0.00    11.432 OA 
HETATM    9  C   UNL     1     -11.626  10.165  67.991  1.00  0.00     0.314 C  
HETATM   10  C   UNL     1     -12.127   8.993  68.455  1.00  0.00     2.935 C  
HETATM   11  N   UNL     1     -10.036  12.041  68.305  1.00  0.00    -0.198 NA 
HETATM   12  C   UNL     1     -11.219   8.155  69.324  1.00  0.00     0.292 C  
HETATM   13  O   UNL     1     -11.590   7.127  69.884  1.00  0.00    -0.171 OA 
HETATM   14  N   UNL     1     -10.355  10.643  68.389  1.00  0.00    -0.167 NA 
HETATM   15  C   UNL     1      -9.821   8.589  69.501  1.00  0.00    -0.187 C  
HETATM   16  C   UNL     1      -9.482   9.788  69.027  1.00  0.00    -0.173 C  
ENDROOT
BRANCH  10  17
HETATM   17  O   UNL     1     -13.459   8.657  68.306  1.00  0.00    11.370 OA 
BRANCH  17  18
HETATM   18  C   UNL     1     -14.249   8.593  69.489  1.00  0.00     6.127 C  
BRANCH  18  19
HETATM   19  O   UNL     1     -13.575   7.817  70.479  1.00  0.00     0.493 OA 
BRANCH  19  20
HETATM   20  C   UNL     1     -12.788   8.569  71.282  1.00  0.00    -0.181 C  
HETATM   21  O   UNL     1     -12.026   9.456  70.925  1.00  0.00    -0.288 OA 
BRANCH  20  22
HETATM   22  O   UNL     1     -13.023   8.199  72.567  1.00  0.00    -0.182 OA 
HETATM   23  C   UNL     1     -11.985   7.404  73.127  1.00  0.00     0.543 C  
ENDBRANCH  20  22
ENDBRANCH  19  20
ENDBRANCH  18  19
ENDBRANCH  17  18
ENDBRANCH  10  17
BRANCH  11  24
HETATM   24  C   UNL     1      -9.930  12.816  69.624  1.00  0.00     1.403 C  
HETATM   25  C   UNL     1     -10.500  14.281  69.655  1.00  0.00     0.111 A  
HETATM   26  C   UNL     1     -10.992  14.935  68.513  1.00  0.00    -0.260 A  
HETATM   27  C   UNL     1     -11.554  16.215  68.456  1.00  0.00    -0.265 A  
HETATM   28  C   UNL     1     -11.609  16.946  69.604  1.00  0.00     0.820 A  
HETATM   29  C   UNL     1     -11.075  16.408  70.758  1.00  0.00    -0.103 A  
HETATM   30  F   UNL     1     -12.188  18.153  69.597  1.00  0.00     4.863 F  
HETATM   31  F   UNL     1     -11.125  17.135  71.886  1.00  0.00     0.101 F  
HETATM   32  C   UNL     1     -10.496  15.106  70.794  1.00  0.00     0.112 A  
HETATM   33  C   UNL     1     -10.056  14.602  72.128  1.00  0.00     3.986 C  
HETATM   34  S   UNL     1     -11.433  13.624  72.753  1.00  0.00     4.146 SA 
HETATM   35  C   UNL     1     -11.068  12.067  71.960  1.00  0.00     6.990 A  
HETATM   36  C   UNL     1     -11.546  10.990  72.744  1.00  0.00     6.284 A  
HETATM   37  C   UNL     1     -11.172   9.679  72.498  1.00  0.00     1.649 A  
HETATM   38  C   UNL     1     -10.253   9.433  71.496  1.00  0.00    -0.223 A  
HETATM   39  C   UNL     1      -9.814  10.485  70.670  1.00  0.00     1.181 A  
HETATM   40  C   UNL     1     -10.291  11.819  70.806  1.00  0.00     4.064 A  
ENDBRANCH  11  24
TORSDOF 6
ENDMDL
MODEL      178
REMARK 921   NORMALIZED FREE ENERGY PREDICTED BY IDOCK:   91.10 KCAL/MOL
REMARK 922        TOTAL FREE ENERGY PREDICTED BY IDOCK:  122.32 KCAL/MOL
REMARK 923 INTER-LIGAND FREE ENERGY PREDICTED BY IDOCK:  105.94 KCAL/MOL
REMARK 924 INTRA-LIGAND FREE ENERGY PREDICTED BY IDOCK:   16.38 KCAL/MOL
REMARK 927      BINDING AFFINITY PREDICTED BY RF-SCORE:    0.00 PKD
ROOT
HETATM    1  C   UNL     1      -8.618  15.344  63.938  1.00  0.00    13.212 C  
HETATM    2  C   UNL     1      -7.878  16.610  63.414  1.00  0.00    20.535 C  
HETATM    3  O   UNL     1      -8.726  17.571  62.769  1.00  0.00    19.932 OA 
HETATM    4  C   UNL     1      -9.827  17.893  63.615  1.00  0.00    12.898 C  
HETATM    5  C   UNL     1     -10.754  16.691  63.741  1.00  0.00     3.641 C  
HETATM    6  N   UNL     1     -10.065  15.416  63.939  1.00  0.00     3.224 N  
HETATM    7  C   UNL     1     -10.810  14.253  64.128  1.00  0.00     0.266 C  
HETATM    8  O   UNL     1     -12.000  14.204  63.828  1.00  0.00    -0.318 OA 
HETATM    9  C   UNL     1     -10.100  13.194  64.986  1.00  0.00    -0.222 C  
HETATM   10  C   UNL     1     -10.827  12.181  65.521  1.00  0.00    -0.283 C  
HETATM   11  N   UNL     1      -8.174  14.739  65.203  1.00  0.00     4.311 NA 
HETATM   12  C   UNL     1     -10.109  11.247  66.467  1.00  0.00    -0.217 C  
HETATM   13  O   UNL     1     -10.680  10.357  67.091  1.00  0.00    -0.259 OA 
HETATM   14  N   UNL     1      -8.763  13.442  65.378  1.00  0.00     1.573 NA 
HETATM   15  C   UNL     1      -8.655  11.410  66.645  1.00  0.00    -0.170 C  
HETATM   16  C   UNL     1      -8.082  12.482  66.095  1.00  0.00     0.836 C  
ENDROOT
BRANCH  10  17
HETATM   17  O   UNL     1     -12.197  12.103  65.366  1.00  0.00    -0.515 OA 
BRANCH  17  18
HETATM   18  C   UNL     1     -12.817  10.860  65.678  1.00  0.00     6.378 C  
BRANCH  18  19
HETATM   19  O   UNL     1     -12.025  10.150  66.630  1.00  0.00     1.548 OA 
BRANCH  19  20
HETATM   20  C   UNL     1     -11.630   8.939  66.177  1.00  0.00     4.775 C  
HETATM   21  O   UNL     1     -11.987   8.399  65.139  1.00  0.00    10.631 OA 
BRANCH  20  22
HETATM   22  O   UNL     1     -10.725   8.436  67.057  1.00  0.00    -0.289 OA 
HETATM   23  C   UNL     1     -11.262   7.432  67.910  1.00  0.00     0.301 C  
ENDBRANCH  20  22
ENDBRANCH  19  20
ENDBRANCH  18  19
ENDBRANCH  17  18
ENDBRANCH  10  17
BRANCH  11  24
HETATM   24  C   UNL     1      -7.928  15.574  66.464  1.00  0.00     0.026 C  
HETATM   25  C   UNL     1      -9.102  16.489  66.973  1.00  0.00    -0.228 A  
HETATM   26  C   UNL     1     -10.305  16.653  66.267  1.00  0.00    -0.323 A  
HETATM   27  C   UNL     1     -11.414  17.408  66.663  1.00  0.00     1.270 A  
HETATM   28  C   UNL     1     -11.337  18.102  67.833  1.00  0.00     0.643 A  
HETATM   29  C   UNL     1     -10.159  18.059  68.552  1.00  0.00    -0.393 A  
HETATM   30  F   UNL     1     -12.398  18.792  68.268  1.00  0.00     2.404 F  
HETATM   31  F   UNL     1     -10.085  18.749  69.701  1.00  0.00    -0.241 F  
HETATM   32  C   UNL     1      -9.035  17.292  68.126  1.00  0.00    -0.254 A  
HETATM   33  C   UNL     1      -7.864  17.244  69.051  1.00  0.00    -0.144 C  
HETATM   34  S   UNL     1      -8.077  15.742  70.021  1.00  0.00     0.817 SA 
HETATM   35  C   UNL     1      -7.338  14.565  68.903  1.00  0.00    -0.128 A  
HETATM   36  C   UNL     1      -6.774  13.485  69.624  1.00  0.00     0.039 A  
HETATM   37  C   UNL     1      -5.919  12.571  69.031  1.00  0.00    -0.076 A  
HETATM   38  C   UNL     1      -5.559  12.766  67.711  1.00  0.00    -0.128 A  
HETATM   39  C   UNL     1      -6.156  13.799  66.965  1.00  0.00     1.076 A  
HETATM   40  C   UNL     1      -7.147  14.665  67.507  1.00  0.00    -0.203 A  
ENDBRANCH  11  24
TORSDOF 6
ENDMDL
MODEL      179
REMARK 921   NORMALIZED FREE ENERGY PREDICTED BY IDOCK:   99.45 KCAL/MOL
REMARK 922        TOTAL FREE ENERGY PREDICTED BY IDOCK:  133.59 KCAL/MOL
REMARK 923 INTER-LIGAND FREE ENERGY PREDICTED BY IDOCK:  110.57 KCAL/MOL
REMARK 924 INTRA-LIGAND FREE ENERGY PREDICTED BY IDOCK:   23.03 KCAL/MOL
REMARK 927      BINDING AFFINITY PREDICTED BY RF-SCORE:    0.00 PKD
ROOT
HETATM    1  C   UNL     1      -8.151   7.453  67.279  1.00  0.00    -0.112 C  
HETATM    2  C   UNL     1      -6.726   8.068  67.405  1.00  0.00    -0.069 C  
HETATM    3  O   UNL     1      -5.984   8.105  66.178  1.00  0.00    -0.040 OA 
HETATM    4  C   UNL     1      -6.760   8.727  65.157  1.00  0.00    -0.064 C  
HETATM    5  C   UNL     1      -7.938   7.838  64.784  1.00  0.00    -0.142 C  
HETATM    6  N   UNL     1      -8.628   7.241  65.928  1.00  0.00    -0.150 N  
HETATM    7  C   UNL     1      -9.760   6.455  65.715  1.00  0.00     0.386 C  
HETATM    8  O   UNL     1     -10.014   5.993  64.606  1.00  0.00     1.555 OA 
HETATM    9  C   UNL     1     -10.761   6.481  66.881  1.00  0.00    -0.333 C  
HETATM   10  C   UNL     1     -12.030   6.047  66.673  1.00  0.00     2.463 C  
HETATM   11  N   UNL     1      -9.241   8.028  68.081  1.00  0.00    -0.134 NA 
HETATM   12  C   UNL     1     -13.009   6.221  67.809  1.00  0.00    11.125 C  
HETATM   13  O   UNL     1     -14.205   5.961  67.708  1.00  0.00    19.879 OA 
HETATM   14  N   UNL     1     -10.392   7.170  68.061  1.00  0.00    -0.185 NA 
HETATM   15  C   UNL     1     -12.504   6.720  69.101  1.00  0.00     2.547 C  
HETATM   16  C   UNL     1     -11.244   7.156  69.144  1.00  0.00     0.039 C  
ENDROOT
BRANCH  10  17
HETATM   17  O   UNL     1     -12.467   5.636  65.428  1.00  0.00     3.117 OA 
BRANCH  17  18
HETATM   18  C   UNL     1     -11.900   4.441  64.902  1.00  0.00     2.012 C  
BRANCH  18  19
HETATM   19  O   UNL     1     -11.165   3.764  65.922  1.00  0.00     1.665 OA 
BRANCH  19  20
HETATM   20  C   UNL     1     -11.486   2.454  66.012  1.00  0.00     8.402 C  
HETATM   21  O   UNL     1     -11.253   1.591  65.178  1.00  0.00     2.550 OA 
BRANCH  20  22
HETATM   22  O   UNL     1     -12.077   2.248  67.217  1.00  0.00    14.043 OA 
HETATM   23  C   UNL     1     -13.275   1.484  67.137  1.00  0.00    22.576 C  
ENDBRANCH  20  22
ENDBRANCH  19  20
ENDBRANCH  18  19
ENDBRANCH  17  18
ENDBRANCH  10  17
BRANCH  11  24
HETATM   24  C   UNL     1      -9.494   9.538  68.152  1.00  0.00    -0.133 C  
HETATM   25  C   UNL     1      -8.940  10.425  66.978  1.00  0.00    -0.150 A  
HETATM   26  C   UNL     1      -8.141   9.912  65.942  1.00  0.00    -0.121 A  
HETATM   27  C   UNL     1      -7.642  10.614  64.841  1.00  0.00     0.087 A  
HETATM   28  C   UNL     1      -7.908  11.948  64.752  1.00  0.00     2.407 A  
HETATM   29  C   UNL     1      -8.622  12.549  65.769  1.00  0.00     0.825 A  
HETATM   30  F   UNL     1      -7.491  12.640  63.685  1.00  0.00     4.717 F  
HETATM   31  F   UNL     1      -8.876  13.865  65.681  1.00  0.00     0.262 F  
HETATM   32  C   UNL     1      -9.113  11.819  66.891  1.00  0.00    -0.192 A  
HETATM   33  C   UNL     1      -9.963  12.567  67.861  1.00  0.00    -0.212 C  
HETATM   34  S   UNL     1     -11.663  12.252  67.358  1.00  0.00    -0.276 SA 
HETATM   35  C   UNL     1     -11.934  10.702  68.199  1.00  0.00     0.399 A  
HETATM   36  C   UNL     1     -13.302  10.556  68.535  1.00  0.00     5.827 A  
HETATM   37  C   UNL     1     -13.743   9.579  69.412  1.00  0.00     4.273 A  
HETATM   38  C   UNL     1     -12.804   8.772  70.026  1.00  0.00     1.659 A  
HETATM   39  C   UNL     1     -11.448   8.866  69.658  1.00  0.00     0.256 A  
HETATM   40  C   UNL     1     -10.985   9.760  68.653  1.00  0.00    -0.189 A  
ENDBRANCH  11  24
TORSDOF 6
ENDMDL
MODEL      180
REMARK 921   NORMALIZED FREE ENERGY PREDICTED BY IDOCK:  111.97 KCAL/MOL
REMARK 922        TOTAL FREE ENERGY PREDICTED BY IDOCK:  150.50 KCAL/MOL
REMARK 923 INTER-LIGAND FREE ENERGY PREDICTED BY IDOCK:   65.81 KCAL/MOL
REMARK 924 INTRA-LIGAND FREE ENERGY PREDICTED BY IDOCK:   84.69 KCAL/MOL
REMARK 927      BINDING AFFINITY PREDICTED BY RF-SCORE:    0.00 PKD
ROOT
HETATM    1  C   UNL     1     -11.218   8.515  65.238  1.00  0.00     7.129 C  
HETATM    2  C   UNL     1     -11.250   9.576  64.099  1.00  0.00     6.912 C  
HETATM    3  O   UNL     1     -12.321  10.526  64.201  1.00  0.00     3.032 OA 
HETATM    4  C   UNL     1     -12.326  11.115  65.499  1.00  0.00     2.633 C  
HETATM    5  C   UNL     1     -12.726  10.078  66.540  1.00  0.00    10.218 C  
HETATM    6  N   UNL     1     -12.092   8.772  66.363  1.00  0.00     6.816 N  
HETATM    7  C   UNL     1     -12.334   7.759  67.289  1.00  0.00     6.748 C  
HETATM    8  O   UNL     1     -13.288   7.818  68.062  1.00  0.00    11.496 OA 
HETATM    9  C   UNL     1     -11.172   6.765  67.440  1.00  0.00    -0.188 C  
HETATM   10  C   UNL     1     -11.134   5.950  68.525  1.00  0.00    -0.087 C  
HETATM   11  N   UNL     1      -9.914   8.064  65.745  1.00  0.00     0.445 NA 
HETATM   12  C   UNL     1      -9.903   5.092  68.696  1.00  0.00    -0.160 C  
HETATM   13  O   UNL     1      -9.707   4.392  69.685  1.00  0.00    -0.194 OA 
HETATM   14  N   UNL     1     -10.065   6.896  66.567  1.00  0.00    -0.125 NA 
HETATM   15  C   UNL     1      -8.893   5.092  67.622  1.00  0.00    -0.105 C  
HETATM   16  C   UNL     1      -9.038   5.981  66.638  1.00  0.00    -0.137 C  
ENDROOT
BRANCH  10  17
HETATM   17  O   UNL     1     -12.079   6.026  69.529  1.00  0.00     0.630 OA 
BRANCH  17  18
HETATM   18  C   UNL     1     -12.688   7.294  69.755  1.00  0.00     1.758 C  
BRANCH  18  19
HETATM   19  O   UNL     1     -12.919   7.948  68.507  1.00  0.00     6.594 OA 
BRANCH  19  20
HETATM   20  C   UNL     1     -11.773   8.247  67.857  1.00  0.00     2.367 C  
HETATM   21  O   UNL     1     -11.373   7.737  66.819  1.00  0.00     0.533 OA 
BRANCH  20  22
HETATM   22  O   UNL     1     -11.156   9.251  68.532  1.00  0.00    -0.047 OA 
HETATM   23  C   UNL     1     -11.348  10.532  67.944  1.00  0.00    -0.222 C  
ENDBRANCH  20  22
ENDBRANCH  19  20
ENDBRANCH  18  19
ENDBRANCH  17  18
ENDBRANCH  10  17
BRANCH  11  24
HETATM   24  C   UNL     1      -8.800   9.047  66.123  1.00  0.00    -0.164 C  
HETATM   25  C   UNL     1      -8.604   9.374  67.648  1.00  0.00    -0.116 A  
HETATM   26  C   UNL     1      -9.464   8.895  68.650  1.00  0.00    -0.153 A  
HETATM   27  C   UNL     1      -9.342   9.099  70.029  1.00  0.00    -0.218 A  
HETATM   28  C   UNL     1      -8.314   9.872  70.477  1.00  0.00     0.200 A  
HETATM   29  C   UNL     1      -7.465  10.447  69.552  1.00  0.00    -0.148 A  
HETATM   30  F   UNL     1      -8.136  10.044  71.793  1.00  0.00     1.098 F  
HETATM   31  F   UNL     1      -6.457  11.212  69.999  1.00  0.00    -0.106 F  
HETATM   32  C   UNL     1      -7.612  10.237  68.150  1.00  0.00    -0.087 A  
HETATM   33  C   UNL     1      -6.563  10.825  67.268  1.00  0.00    -0.075 C  
HETATM   34  S   UNL     1      -5.373   9.504  66.985  1.00  0.00    -0.039 SA 
HETATM   35  C   UNL     1      -6.169   8.683  65.616  1.00  0.00    -0.052 A  
HETATM   36  C   UNL     1      -5.206   8.062  64.785  1.00  0.00    -0.032 A  
HETATM   37  C   UNL     1      -5.522   7.581  63.525  1.00  0.00    -0.037 A  
HETATM   38  C   UNL     1      -6.804   7.779  63.047  1.00  0.00    -0.076 A  
HETATM   39  C   UNL     1      -7.788   8.340  63.884  1.00  0.00    -0.147 A  
HETATM   40  C   UNL     1      -7.529   8.710  65.233  1.00  0.00    -0.086 A  
ENDBRANCH  11  24
TORSDOF 6
ENDMDL
