MODEL        1
REMARK 921   NORMALIZED FREE ENERGY PREDICTED BY IDOCK:   -8.11 KCAL/MOL
REMARK 922        TOTAL FREE ENERGY PREDICTED BY IDOCK:  -11.94 KCAL/MOL
REMARK 923 INTER-LIGAND FREE ENERGY PREDICTED BY IDOCK:  -10.95 KCAL/MOL
REMARK 924 INTRA-LIGAND FREE ENERGY PREDICTED BY IDOCK:   -0.99 KCAL/MOL
REMARK 927      BINDING AFFINITY PREDICTED BY RF-SCORE:    0.00 PKD
ROOT
HETATM    1  O   UNL     1     -10.345   7.806  73.372  1.00  0.00    -0.332 OA 
HETATM    2  C   UNL     1     -10.348   6.927  72.347  1.00  0.00    -0.202 C  
HETATM    3  O   UNL     1      -9.415   6.829  71.562  1.00  0.00    -0.157 OA 
HETATM    4  C   UNL     1     -11.591   6.086  72.263  1.00  0.00    -0.359 C  
ENDROOT
BRANCH   4   5
HETATM    5  C   UNL     1     -12.670   6.778  71.448  1.00  0.00    -0.263 C  
BRANCH   5   6
HETATM    6  N   UNL     1     -12.308   8.128  71.068  1.00  0.00    -0.482 N  
HETATM    7  C   UNL     1     -12.902   9.230  71.654  1.00  0.00    -0.372 C  
HETATM    8  H   UNL     1     -11.596   8.269  70.351  1.00  0.00     0.000 HD 
HETATM    9  O   UNL     1     -13.749   9.145  72.536  1.00  0.00    -0.474 OA 
BRANCH   7  10
HETATM   10  C   UNL     1     -12.504  10.563  71.113  1.00  0.00    -0.517 A  
HETATM   11  C   UNL     1     -12.961  11.713  71.766  1.00  0.00    -0.483 A  
HETATM   12  C   UNL     1     -12.671  12.983  71.249  1.00  0.00    -0.385 A  
HETATM   13  C   UNL     1     -11.911  13.137  70.082  1.00  0.00    -0.310 A  
HETATM   14  C   UNL     1     -11.705  10.700  69.972  1.00  0.00    -0.405 A  
HETATM   15  C   UNL     1     -11.424  11.976  69.458  1.00  0.00    -0.351 A  
BRANCH  13  16
HETATM   16  N   UNL     1     -11.746  14.442  69.565  1.00  0.00    -0.293 NA 
HETATM   17  H   UNL     1     -12.462  15.166  69.622  1.00  0.00     0.000 HD 
BRANCH  16  18
HETATM   18  N   UNL     1     -10.630  14.614  69.030  1.00  0.00    -0.243 NA 
HETATM   19  H   UNL     1      -9.744  14.451  69.508  1.00  0.00     0.000 HD 
BRANCH  18  20
HETATM   20  C   UNL     1     -10.726  15.061  67.693  1.00  0.00    -0.274 A  
HETATM   21  C   UNL     1     -10.236  16.299  67.251  1.00  0.00    -0.279 A  
HETATM   22  C   UNL     1     -10.433  16.729  65.934  1.00  0.00    -0.311 A  
HETATM   23  C   UNL     1     -11.139  15.921  65.042  1.00  0.00    -0.360 A  
HETATM   24  O   UNL     1     -11.349  16.362  63.761  1.00  0.00    -1.487 OA 
HETATM   25  C   UNL     1     -11.638  14.678  65.451  1.00  0.00    -0.345 A  
HETATM   26  C   UNL     1     -12.410  13.757  64.567  1.00  0.00    -0.358 C  
HETATM   27  C   UNL     1     -11.425  14.263  66.779  1.00  0.00    -0.380 A  
HETATM   28  H   UNL     1     -11.830  15.813  63.154  1.00  0.00     0.000 HD 
HETATM   29  O   UNL     1     -12.826  12.674  64.953  1.00  0.00    -0.763 OA 
HETATM   30  O   UNL     1     -12.626  14.201  63.310  1.00  0.00    -0.766 OA 
ENDBRANCH  18  20
ENDBRANCH  16  18
ENDBRANCH  13  16
ENDBRANCH   7  10
ENDBRANCH   5   6
ENDBRANCH   4   5
TORSDOF 6
ENDMDL
MODEL        2
REMARK 921   NORMALIZED FREE ENERGY PREDICTED BY IDOCK:   -7.70 KCAL/MOL
REMARK 922        TOTAL FREE ENERGY PREDICTED BY IDOCK:  -11.39 KCAL/MOL
REMARK 923 INTER-LIGAND FREE ENERGY PREDICTED BY IDOCK:  -10.30 KCAL/MOL
REMARK 924 INTRA-LIGAND FREE ENERGY PREDICTED BY IDOCK:   -1.09 KCAL/MOL
REMARK 927      BINDING AFFINITY PREDICTED BY RF-SCORE:    0.00 PKD
ROOT
HETATM    1  O   UNL     1      -8.150  18.837  68.034  1.00  0.00    -0.268 OA 
HETATM    2  C   UNL     1      -9.436  19.242  68.105  1.00  0.00    -0.346 C  
HETATM    3  O   UNL     1     -10.144  19.018  69.077  1.00  0.00    -0.403 OA 
HETATM    4  C   UNL     1      -9.913  19.988  66.890  1.00  0.00    -0.584 C  
ENDROOT
BRANCH   4   5
HETATM    5  C   UNL     1     -10.448  19.037  65.834  1.00  0.00    -0.399 C  
BRANCH   5   6
HETATM    6  N   UNL     1     -10.473  17.659  66.280  1.00  0.00    -0.330 N  
HETATM    7  C   UNL     1     -10.881  16.635  65.447  1.00  0.00    -0.173 C  
HETATM    8  H   UNL     1     -10.182  17.439  67.233  1.00  0.00     0.000 HD 
HETATM    9  O   UNL     1     -11.226  16.814  64.284  1.00  0.00    -1.163 OA 
BRANCH   7  10
HETATM   10  C   UNL     1     -10.945  15.272  66.054  1.00  0.00    -0.317 A  
HETATM   11  C   UNL     1     -11.439  15.142  67.357  1.00  0.00    -0.284 A  
HETATM   12  C   UNL     1     -11.448  13.892  67.990  1.00  0.00    -0.339 A  
HETATM   13  C   UNL     1     -10.979  12.744  67.337  1.00  0.00    -0.253 A  
HETATM   14  C   UNL     1     -10.516  14.128  65.372  1.00  0.00    -0.372 A  
HETATM   15  C   UNL     1     -10.523  12.880  66.015  1.00  0.00    -0.290 A  
BRANCH  13  16
HETATM   16  N   UNL     1     -10.923  11.538  68.072  1.00  0.00    -0.215 NA 
HETATM   17  H   UNL     1     -11.085  10.619  67.660  1.00  0.00     0.000 HD 
BRANCH  16  18
HETATM   18  N   UNL     1     -10.655  11.716  69.279  1.00  0.00    -0.423 NA 
HETATM   19  H   UNL     1      -9.873  12.284  69.605  1.00  0.00     0.000 HD 
BRANCH  18  20
HETATM   20  C   UNL     1     -11.550  11.048  70.144  1.00  0.00    -0.334 A  
HETATM   21  C   UNL     1     -12.453  11.710  70.989  1.00  0.00    -0.436 A  
HETATM   22  C   UNL     1     -13.258  11.002  71.888  1.00  0.00    -0.503 A  
HETATM   23  C   UNL     1     -13.158   9.613  71.958  1.00  0.00    -0.445 A  
HETATM   24  O   UNL     1     -13.933   8.929  72.860  1.00  0.00    -0.931 OA 
HETATM   25  C   UNL     1     -12.270   8.920  71.125  1.00  0.00    -0.303 A  
HETATM   26  C   UNL     1     -12.093   7.440  71.140  1.00  0.00    -0.325 C  
HETATM   27  C   UNL     1     -11.472   9.653  70.224  1.00  0.00    -0.288 A  
HETATM   28  H   UNL     1     -13.864   7.983  72.908  1.00  0.00     0.000 HD 
HETATM   29  O   UNL     1     -11.314   6.865  70.393  1.00  0.00    -0.290 OA 
HETATM   30  O   UNL     1     -12.848   6.772  72.039  1.00  0.00    -0.285 OA 
ENDBRANCH  18  20
ENDBRANCH  16  18
ENDBRANCH  13  16
ENDBRANCH   7  10
ENDBRANCH   5   6
ENDBRANCH   4   5
TORSDOF 6
ENDMDL
MODEL        3
REMARK 921   NORMALIZED FREE ENERGY PREDICTED BY IDOCK:   -7.68 KCAL/MOL
REMARK 922        TOTAL FREE ENERGY PREDICTED BY IDOCK:  -11.36 KCAL/MOL
REMARK 923 INTER-LIGAND FREE ENERGY PREDICTED BY IDOCK:  -10.23 KCAL/MOL
REMARK 924 INTRA-LIGAND FREE ENERGY PREDICTED BY IDOCK:   -1.13 KCAL/MOL
REMARK 927      BINDING AFFINITY PREDICTED BY RF-SCORE:    0.00 PKD
ROOT
HETATM    1  O   UNL     1     -11.504   7.091  72.632  1.00  0.00    -0.267 OA 
HETATM    2  C   UNL     1     -12.343   6.786  71.619  1.00  0.00    -0.362 C  
HETATM    3  O   UNL     1     -11.948   6.351  70.546  1.00  0.00    -0.341 OA 
HETATM    4  C   UNL     1     -13.794   7.027  71.929  1.00  0.00    -0.262 C  
ENDROOT
BRANCH   4   5
HETATM    5  C   UNL     1     -14.196   8.456  71.606  1.00  0.00    -0.440 C  
BRANCH   5   6
HETATM    6  N   UNL     1     -13.195   9.160  70.831  1.00  0.00    -0.539 N  
HETATM    7  C   UNL     1     -12.833  10.460  71.125  1.00  0.00    -0.414 C  
HETATM    8  H   UNL     1     -12.746   8.683  70.048  1.00  0.00     0.000 HD 
HETATM    9  O   UNL     1     -13.311  11.093  72.060  1.00  0.00    -0.454 OA 
BRANCH   7  10
HETATM   10  C   UNL     1     -11.855  11.102  70.198  1.00  0.00    -0.449 A  
HETATM   11  C   UNL     1     -10.841  10.312  69.644  1.00  0.00    -0.311 A  
HETATM   12  C   UNL     1      -9.859  10.890  68.828  1.00  0.00    -0.203 A  
HETATM   13  C   UNL     1      -9.873  12.260  68.534  1.00  0.00    -0.153 A  
HETATM   14  C   UNL     1     -11.909  12.463  69.877  1.00  0.00    -0.376 A  
HETATM   15  C   UNL     1     -10.919  13.035  69.063  1.00  0.00    -0.242 A  
BRANCH  13  16
HETATM   16  N   UNL     1      -8.795  12.790  67.789  1.00  0.00    -0.177 NA 
HETATM   17  H   UNL     1      -8.164  13.508  68.143  1.00  0.00     0.000 HD 
BRANCH  16  18
HETATM   18  N   UNL     1      -8.697  12.286  66.651  1.00  0.00    -0.322 NA 
HETATM   19  H   UNL     1      -7.939  11.662  66.373  1.00  0.00     0.000 HD 
BRANCH  18  20
HETATM   20  C   UNL     1      -9.747  12.671  65.788  1.00  0.00    -0.175 A  
HETATM   21  C   UNL     1     -10.462  11.771  64.984  1.00  0.00    -0.332 A  
HETATM   22  C   UNL     1     -11.436  12.217  64.084  1.00  0.00    -0.453 A  
HETATM   23  C   UNL     1     -11.697  13.582  63.970  1.00  0.00    -0.395 A  
HETATM   24  O   UNL     1     -12.635  14.012  63.066  1.00  0.00    -1.027 OA 
HETATM   25  C   UNL     1     -11.003  14.508  64.760  1.00  0.00    -0.404 A  
HETATM   26  C   UNL     1     -11.213  15.983  64.696  1.00  0.00    -0.330 C  
HETATM   27  C   UNL     1     -10.031  14.036  65.663  1.00  0.00    -0.309 A  
HETATM   28  H   UNL     1     -12.813  14.942  62.988  1.00  0.00     0.000 HD 
HETATM   29  O   UNL     1     -10.596  16.764  65.406  1.00  0.00    -0.563 OA 
HETATM   30  O   UNL     1     -12.128  16.403  63.796  1.00  0.00    -0.927 OA 
ENDBRANCH  18  20
ENDBRANCH  16  18
ENDBRANCH  13  16
ENDBRANCH   7  10
ENDBRANCH   5   6
ENDBRANCH   4   5
TORSDOF 6
ENDMDL
MODEL        4
REMARK 921   NORMALIZED FREE ENERGY PREDICTED BY IDOCK:   -7.59 KCAL/MOL
REMARK 922        TOTAL FREE ENERGY PREDICTED BY IDOCK:  -11.23 KCAL/MOL
REMARK 923 INTER-LIGAND FREE ENERGY PREDICTED BY IDOCK:  -10.27 KCAL/MOL
REMARK 924 INTRA-LIGAND FREE ENERGY PREDICTED BY IDOCK:   -0.96 KCAL/MOL
REMARK 927      BINDING AFFINITY PREDICTED BY RF-SCORE:    0.00 PKD
ROOT
HETATM    1  O   UNL     1     -10.684   5.131  71.485  1.00  0.00    -0.189 OA 
HETATM    2  C   UNL     1     -10.714   4.878  72.811  1.00  0.00    -0.228 C  
HETATM    3  O   UNL     1     -11.517   4.107  73.316  1.00  0.00    -0.224 OA 
HETATM    4  C   UNL     1      -9.676   5.625  73.602  1.00  0.00    -0.153 C  
ENDROOT
BRANCH   4   5
HETATM    5  C   UNL     1     -10.183   6.992  74.024  1.00  0.00    -0.308 C  
BRANCH   5   6
HETATM    6  N   UNL     1     -10.718   7.759  72.917  1.00  0.00    -0.358 N  
HETATM    7  C   UNL     1      -9.928   8.630  72.191  1.00  0.00    -0.316 C  
HETATM    8  H   UNL     1     -11.701   7.654  72.667  1.00  0.00     0.000 HD 
HETATM    9  O   UNL     1      -8.734   8.797  72.414  1.00  0.00    -0.392 OA 
BRANCH   7  10
HETATM   10  C   UNL     1     -10.618   9.425  71.133  1.00  0.00    -0.403 A  
HETATM   11  C   UNL     1      -9.936   9.683  69.938  1.00  0.00    -0.273 A  
HETATM   12  C   UNL     1     -10.520  10.486  68.949  1.00  0.00    -0.226 A  
HETATM   13  C   UNL     1     -11.796  11.038  69.120  1.00  0.00    -0.337 A  
HETATM   14  C   UNL     1     -11.913   9.930  71.300  1.00  0.00    -0.489 A  
HETATM   15  C   UNL     1     -12.487  10.738  70.306  1.00  0.00    -0.395 A  
BRANCH  13  16
HETATM   16  N   UNL     1     -12.277  11.920  68.126  1.00  0.00    -0.381 NA 
HETATM   17  H   UNL     1     -12.991  12.628  68.298  1.00  0.00     0.000 HD 
BRANCH  16  18
HETATM   18  N   UNL     1     -11.737  11.741  67.015  1.00  0.00    -0.594 NA 
HETATM   19  H   UNL     1     -11.304  10.861  66.733  1.00  0.00     0.000 HD 
BRANCH  18  20
HETATM   20  C   UNL     1     -11.789  12.886  66.189  1.00  0.00    -0.429 A  
HETATM   21  C   UNL     1     -12.348  12.891  64.902  1.00  0.00    -0.532 A  
HETATM   22  C   UNL     1     -12.297  14.032  64.094  1.00  0.00    -0.374 A  
HETATM   23  C   UNL     1     -11.669  15.185  64.564  1.00  0.00    -0.328 A  
HETATM   24  O   UNL     1     -11.602  16.289  63.755  1.00  0.00    -1.539 OA 
HETATM   25  C   UNL     1     -11.104  15.214  65.846  1.00  0.00    -0.319 A  
HETATM   26  C   UNL     1     -10.407  16.399  66.424  1.00  0.00    -0.313 C  
HETATM   27  C   UNL     1     -11.171  14.057  66.645  1.00  0.00    -0.330 A  
HETATM   28  H   UNL     1     -11.173  17.074  64.075  1.00  0.00     0.000 HD 
HETATM   29  O   UNL     1      -9.930  16.394  67.549  1.00  0.00    -0.241 OA 
HETATM   30  O   UNL     1     -10.331  17.480  65.618  1.00  0.00    -0.601 OA 
ENDBRANCH  18  20
ENDBRANCH  16  18
ENDBRANCH  13  16
ENDBRANCH   7  10
ENDBRANCH   5   6
ENDBRANCH   4   5
TORSDOF 6
ENDMDL
MODEL        5
REMARK 921   NORMALIZED FREE ENERGY PREDICTED BY IDOCK:   -7.50 KCAL/MOL
REMARK 922        TOTAL FREE ENERGY PREDICTED BY IDOCK:  -11.11 KCAL/MOL
REMARK 923 INTER-LIGAND FREE ENERGY PREDICTED BY IDOCK:  -10.20 KCAL/MOL
REMARK 924 INTRA-LIGAND FREE ENERGY PREDICTED BY IDOCK:   -0.91 KCAL/MOL
REMARK 927      BINDING AFFINITY PREDICTED BY RF-SCORE:    0.00 PKD
ROOT
HETATM    1  O   UNL     1      -8.083   8.728  73.047  1.00  0.00    -0.409 OA 
HETATM    2  C   UNL     1      -8.370   7.426  72.834  1.00  0.00    -0.113 C  
HETATM    3  O   UNL     1      -7.828   6.768  71.957  1.00  0.00    -0.095 OA 
HETATM    4  C   UNL     1      -9.407   6.865  73.766  1.00  0.00    -0.224 C  
ENDROOT
BRANCH   4   5
HETATM    5  C   UNL     1     -10.810   7.085  73.228  1.00  0.00    -0.311 C  
BRANCH   5   6
HETATM    6  N   UNL     1     -10.983   8.395  72.633  1.00  0.00    -0.322 N  
HETATM    7  C   UNL     1     -12.141   8.737  71.960  1.00  0.00    -0.377 C  
HETATM    8  H   UNL     1     -10.233   9.082  72.714  1.00  0.00     0.000 HD 
HETATM    9  O   UNL     1     -13.095   7.977  71.838  1.00  0.00    -0.324 OA 
BRANCH   7  10
HETATM   10  C   UNL     1     -12.160  10.085  71.319  1.00  0.00    -0.487 A  
HETATM   11  C   UNL     1     -11.318  10.318  70.225  1.00  0.00    -0.398 A  
HETATM   12  C   UNL     1     -11.252  11.590  69.641  1.00  0.00    -0.276 A  
HETATM   13  C   UNL     1     -12.031  12.651  70.120  1.00  0.00    -0.299 A  
HETATM   14  C   UNL     1     -12.979  11.122  71.780  1.00  0.00    -0.526 A  
HETATM   15  C   UNL     1     -12.903  12.394  71.192  1.00  0.00    -0.299 A  
BRANCH  13  16
HETATM   16  N   UNL     1     -11.837  13.929  69.547  1.00  0.00    -0.309 NA 
HETATM   17  H   UNL     1     -12.550  14.658  69.543  1.00  0.00     0.000 HD 
BRANCH  16  18
HETATM   18  N   UNL     1     -10.702  14.070  69.047  1.00  0.00    -0.305 NA 
HETATM   19  H   UNL     1      -9.840  13.795  69.518  1.00  0.00     0.000 HD 
BRANCH  18  20
HETATM   20  C   UNL     1     -10.738  14.652  67.761  1.00  0.00    -0.265 A  
HETATM   21  C   UNL     1     -10.183  15.905  67.459  1.00  0.00    -0.269 A  
HETATM   22  C   UNL     1     -10.321  16.473  66.187  1.00  0.00    -0.344 A  
HETATM   23  C   UNL     1     -11.032  15.791  65.200  1.00  0.00    -0.382 A  
HETATM   24  O   UNL     1     -11.184  16.367  63.966  1.00  0.00    -1.333 OA 
HETATM   25  C   UNL     1     -11.596  14.536  65.468  1.00  0.00    -0.350 A  
HETATM   26  C   UNL     1     -12.379  13.745  64.475  1.00  0.00    -0.358 C  
HETATM   27  C   UNL     1     -11.441  13.982  66.752  1.00  0.00    -0.379 A  
HETATM   28  H   UNL     1     -11.670  15.903  63.293  1.00  0.00     0.000 HD 
HETATM   29  O   UNL     1     -12.851  12.649  64.738  1.00  0.00    -0.730 OA 
HETATM   30  O   UNL     1     -12.537  14.322  63.265  1.00  0.00    -0.716 OA 
ENDBRANCH  18  20
ENDBRANCH  16  18
ENDBRANCH  13  16
ENDBRANCH   7  10
ENDBRANCH   5   6
ENDBRANCH   4   5
TORSDOF 6
ENDMDL
MODEL        6
REMARK 921   NORMALIZED FREE ENERGY PREDICTED BY IDOCK:   -7.49 KCAL/MOL
REMARK 922        TOTAL FREE ENERGY PREDICTED BY IDOCK:  -11.11 KCAL/MOL
REMARK 923 INTER-LIGAND FREE ENERGY PREDICTED BY IDOCK:  -10.03 KCAL/MOL
REMARK 924 INTRA-LIGAND FREE ENERGY PREDICTED BY IDOCK:   -1.08 KCAL/MOL
REMARK 927      BINDING AFFINITY PREDICTED BY RF-SCORE:    0.00 PKD
ROOT
HETATM    1  O   UNL     1      -9.623   7.370  74.077  1.00  0.00    -0.274 OA 
HETATM    2  C   UNL     1      -9.570   6.282  73.279  1.00  0.00    -0.147 C  
HETATM    3  O   UNL     1      -8.608   6.036  72.565  1.00  0.00    -0.120 OA 
HETATM    4  C   UNL     1     -10.792   5.409  73.348  1.00  0.00    -0.347 C  
ENDROOT
BRANCH   4   5
HETATM    5  C   UNL     1     -11.854   5.869  72.365  1.00  0.00    -0.207 C  
BRANCH   5   6
HETATM    6  N   UNL     1     -11.595   7.193  71.837  1.00  0.00    -0.268 N  
HETATM    7  C   UNL     1     -12.600   8.134  71.715  1.00  0.00    -0.330 C  
HETATM    8  H   UNL     1     -10.648   7.437  71.548  1.00  0.00     0.000 HD 
HETATM    9  O   UNL     1     -13.758   7.926  72.058  1.00  0.00    -0.302 OA 
BRANCH   7  10
HETATM   10  C   UNL     1     -12.221   9.428  71.075  1.00  0.00    -0.354 A  
HETATM   11  C   UNL     1     -11.146   9.443  70.180  1.00  0.00    -0.277 A  
HETATM   12  C   UNL     1     -10.712  10.650  69.614  1.00  0.00    -0.290 A  
HETATM   13  C   UNL     1     -11.345  11.863  69.915  1.00  0.00    -0.096 A  
HETATM   14  C   UNL     1     -12.894  10.625  71.350  1.00  0.00    -0.556 A  
HETATM   15  C   UNL     1     -12.449  11.829  70.783  1.00  0.00    -0.405 A  
BRANCH  13  16
HETATM   16  N   UNL     1     -10.790  13.050  69.388  1.00  0.00    -0.444 NA 
HETATM   17  H   UNL     1     -10.908  13.968  69.819  1.00  0.00     0.000 HD 
BRANCH  16  18
HETATM   18  N   UNL     1     -10.139  12.859  68.339  1.00  0.00    -0.246 NA 
HETATM   19  H   UNL     1      -9.196  12.472  68.323  1.00  0.00     0.000 HD 
BRANCH  18  20
HETATM   20  C   UNL     1     -10.849  13.237  67.177  1.00  0.00    -0.258 A  
HETATM   21  C   UNL     1     -11.679  12.365  66.456  1.00  0.00    -0.443 A  
HETATM   22  C   UNL     1     -12.292  12.767  65.264  1.00  0.00    -0.546 A  
HETATM   23  C   UNL     1     -12.068  14.052  64.771  1.00  0.00    -0.437 A  
HETATM   24  O   UNL     1     -12.651  14.428  63.589  1.00  0.00    -1.007 OA 
HETATM   25  C   UNL     1     -11.247  14.949  65.469  1.00  0.00    -0.348 A  
HETATM   26  C   UNL     1     -10.948  16.336  65.010  1.00  0.00    -0.298 C  
HETATM   27  C   UNL     1     -10.645  14.525  66.669  1.00  0.00    -0.283 A  
HETATM   28  H   UNL     1     -12.499  15.303  63.253  1.00  0.00     0.000 HD 
HETATM   29  O   UNL     1     -10.233  17.096  65.646  1.00  0.00    -0.564 OA 
HETATM   30  O   UNL     1     -11.514  16.697  63.839  1.00  0.00    -1.186 OA 
ENDBRANCH  18  20
ENDBRANCH  16  18
ENDBRANCH  13  16
ENDBRANCH   7  10
ENDBRANCH   5   6
ENDBRANCH   4   5
TORSDOF 6
ENDMDL
MODEL        7
REMARK 921   NORMALIZED FREE ENERGY PREDICTED BY IDOCK:   -7.37 KCAL/MOL
REMARK 922        TOTAL FREE ENERGY PREDICTED BY IDOCK:  -10.94 KCAL/MOL
REMARK 923 INTER-LIGAND FREE ENERGY PREDICTED BY IDOCK:  -10.12 KCAL/MOL
REMARK 924 INTRA-LIGAND FREE ENERGY PREDICTED BY IDOCK:   -0.83 KCAL/MOL
REMARK 927      BINDING AFFINITY PREDICTED BY RF-SCORE:    0.00 PKD
ROOT
HETATM    1  O   UNL     1      -8.576  19.951  67.977  1.00  0.00    -0.307 OA 
HETATM    2  C   UNL     1      -9.784  19.347  67.994  1.00  0.00    -0.356 C  
HETATM    3  O   UNL     1     -10.120  18.572  68.879  1.00  0.00    -0.386 OA 
HETATM    4  C   UNL     1     -10.671  19.714  66.836  1.00  0.00    -0.570 C  
ENDROOT
BRANCH   4   5
HETATM    5  C   UNL     1     -10.424  18.806  65.644  1.00  0.00    -0.132 C  
BRANCH   5   6
HETATM    6  N   UNL     1     -10.437  17.400  65.997  1.00  0.00    -0.334 N  
HETATM    7  C   UNL     1     -11.072  16.462  65.206  1.00  0.00    -0.113 C  
HETATM    8  H   UNL     1      -9.966  17.096  66.849  1.00  0.00     0.000 HD 
HETATM    9  O   UNL     1     -11.642  16.743  64.158  1.00  0.00    -1.106 OA 
BRANCH   7  10
HETATM   10  C   UNL     1     -11.089  15.062  65.724  1.00  0.00    -0.346 A  
HETATM   11  C   UNL     1     -12.321  14.409  65.847  1.00  0.00    -0.342 A  
HETATM   12  C   UNL     1     -12.388  13.121  66.397  1.00  0.00    -0.300 A  
HETATM   13  C   UNL     1     -11.233  12.452  66.822  1.00  0.00    -0.310 A  
HETATM   14  C   UNL     1      -9.921  14.388  66.101  1.00  0.00    -0.328 A  
HETATM   15  C   UNL     1      -9.998  13.101  66.655  1.00  0.00    -0.270 A  
BRANCH  13  16
HETATM   16  N   UNL     1     -11.388  11.200  67.459  1.00  0.00    -0.439 NA 
HETATM   17  H   UNL     1     -11.959  10.443  67.083  1.00  0.00     0.000 HD 
BRANCH  16  18
HETATM   18  N   UNL     1     -10.751  11.117  68.530  1.00  0.00    -0.188 NA 
HETATM   19  H   UNL     1      -9.791  10.776  68.591  1.00  0.00     0.000 HD 
BRANCH  18  20
HETATM   20  C   UNL     1     -11.501  11.545  69.648  1.00  0.00    -0.301 A  
HETATM   21  C   UNL     1     -12.135  10.666  70.540  1.00  0.00    -0.448 A  
HETATM   22  C   UNL     1     -12.937  11.145  71.583  1.00  0.00    -0.548 A  
HETATM   23  C   UNL     1     -13.122  12.518  71.738  1.00  0.00    -0.347 A  
HETATM   24  O   UNL     1     -13.929  12.976  72.746  1.00  0.00    -0.745 OA 
HETATM   25  C   UNL     1     -12.499  13.423  70.867  1.00  0.00    -0.439 A  
HETATM   26  C   UNL     1     -12.650  14.904  70.954  1.00  0.00    -0.341 C  
HETATM   27  C   UNL     1     -11.694  12.920  69.827  1.00  0.00    -0.351 A  
HETATM   28  H   UNL     1     -14.056  13.912  72.852  1.00  0.00     0.000 HD 
HETATM   29  O   UNL     1     -12.087  15.666  70.182  1.00  0.00    -0.366 OA 
HETATM   30  O   UNL     1     -13.457  15.350  71.941  1.00  0.00    -0.405 OA 
ENDBRANCH  18  20
ENDBRANCH  16  18
ENDBRANCH  13  16
ENDBRANCH   7  10
ENDBRANCH   5   6
ENDBRANCH   4   5
TORSDOF 6
ENDMDL
MODEL        8
REMARK 921   NORMALIZED FREE ENERGY PREDICTED BY IDOCK:   -7.32 KCAL/MOL
REMARK 922        TOTAL FREE ENERGY PREDICTED BY IDOCK:  -10.88 KCAL/MOL
REMARK 923 INTER-LIGAND FREE ENERGY PREDICTED BY IDOCK:   -9.80 KCAL/MOL
REMARK 924 INTRA-LIGAND FREE ENERGY PREDICTED BY IDOCK:   -1.07 KCAL/MOL
REMARK 927      BINDING AFFINITY PREDICTED BY RF-SCORE:    0.00 PKD
ROOT
HETATM    1  O   UNL     1      -8.285   5.571  70.770  1.00  0.00    -0.112 OA 
HETATM    2  C   UNL     1      -9.399   4.828  70.598  1.00  0.00    -0.154 C  
HETATM    3  O   UNL     1      -9.830   4.533  69.492  1.00  0.00    -0.204 OA 
HETATM    4  C   UNL     1     -10.056   4.401  71.882  1.00  0.00    -0.245 C  
ENDROOT
BRANCH   4   5
HETATM    5  C   UNL     1     -11.037   5.451  72.375  1.00  0.00    -0.229 C  
BRANCH   5   6
HETATM    6  N   UNL     1     -11.132   6.592  71.487  1.00  0.00    -0.254 N  
HETATM    7  C   UNL     1     -10.788   7.864  71.904  1.00  0.00    -0.243 C  
HETATM    8  H   UNL     1     -11.460   6.453  70.531  1.00  0.00     0.000 HD 
HETATM    9  O   UNL     1     -10.366   8.110  73.028  1.00  0.00    -0.321 OA 
BRANCH   7  10
HETATM   10  C   UNL     1     -11.013   8.966  70.922  1.00  0.00    -0.325 A  
HETATM   11  C   UNL     1     -11.869  10.014  71.278  1.00  0.00    -0.471 A  
HETATM   12  C   UNL     1     -12.165  11.030  70.359  1.00  0.00    -0.461 A  
HETATM   13  C   UNL     1     -11.605  11.033  69.075  1.00  0.00    -0.323 A  
HETATM   14  C   UNL     1     -10.410   8.979  69.659  1.00  0.00    -0.217 A  
HETATM   15  C   UNL     1     -10.715   9.998  68.743  1.00  0.00    -0.250 A  
BRANCH  13  16
HETATM   16  N   UNL     1     -12.028  12.032  68.169  1.00  0.00    -0.496 NA 
HETATM   17  H   UNL     1     -12.585  12.842  68.442  1.00  0.00     0.000 HD 
BRANCH  16  18
HETATM   18  N   UNL     1     -11.647  11.821  66.999  1.00  0.00    -0.542 NA 
HETATM   19  H   UNL     1     -11.335  10.909  66.663  1.00  0.00     0.000 HD 
BRANCH  18  20
HETATM   20  C   UNL     1     -11.692  12.978  66.189  1.00  0.00    -0.394 A  
HETATM   21  C   UNL     1     -12.389  13.048  64.974  1.00  0.00    -0.526 A  
HETATM   22  C   UNL     1     -12.331  14.192  64.169  1.00  0.00    -0.372 A  
HETATM   23  C   UNL     1     -11.559  15.281  64.572  1.00  0.00    -0.312 A  
HETATM   24  O   UNL     1     -11.488  16.387  63.765  1.00  0.00    -1.590 OA 
HETATM   25  C   UNL     1     -10.853  15.244  65.782  1.00  0.00    -0.363 A  
HETATM   26  C   UNL     1      -9.998  16.358  66.283  1.00  0.00    -0.323 C  
HETATM   27  C   UNL     1     -10.929  14.085  66.578  1.00  0.00    -0.306 A  
HETATM   28  H   UNL     1     -10.961  17.129  64.039  1.00  0.00     0.000 HD 
HETATM   29  O   UNL     1      -9.401  16.297  67.348  1.00  0.00    -0.218 OA 
HETATM   30  O   UNL     1      -9.920  17.440  65.479  1.00  0.00    -0.555 OA 
ENDBRANCH  18  20
ENDBRANCH  16  18
ENDBRANCH  13  16
ENDBRANCH   7  10
ENDBRANCH   5   6
ENDBRANCH   4   5
TORSDOF 6
ENDMDL
MODEL        9
REMARK 921   NORMALIZED FREE ENERGY PREDICTED BY IDOCK:   -7.22 KCAL/MOL
REMARK 922        TOTAL FREE ENERGY PREDICTED BY IDOCK:  -10.74 KCAL/MOL
REMARK 923 INTER-LIGAND FREE ENERGY PREDICTED BY IDOCK:   -9.67 KCAL/MOL
REMARK 924 INTRA-LIGAND FREE ENERGY PREDICTED BY IDOCK:   -1.07 KCAL/MOL
REMARK 927      BINDING AFFINITY PREDICTED BY RF-SCORE:    0.00 PKD
ROOT
HETATM    1  O   UNL     1      -7.547  17.584  65.753  1.00  0.00    -0.514 OA 
HETATM    2  C   UNL     1      -8.126  18.380  66.676  1.00  0.00    -0.264 C  
HETATM    3  O   UNL     1      -7.866  18.302  67.869  1.00  0.00    -0.239 OA 
HETATM    4  C   UNL     1      -9.112  19.363  66.107  1.00  0.00    -0.314 C  
ENDROOT
BRANCH   4   5
HETATM    5  C   UNL     1     -10.500  18.756  66.007  1.00  0.00    -0.432 C  
BRANCH   5   6
HETATM    6  N   UNL     1     -10.506  17.326  66.236  1.00  0.00    -0.307 N  
HETATM    7  C   UNL     1     -10.926  16.438  65.265  1.00  0.00    -0.195 C  
HETATM    8  H   UNL     1     -10.191  16.965  67.137  1.00  0.00     0.000 HD 
HETATM    9  O   UNL     1     -11.299  16.790  64.151  1.00  0.00    -1.194 OA 
BRANCH   7  10
HETATM   10  C   UNL     1     -10.966  14.998  65.656  1.00  0.00    -0.357 A  
HETATM   11  C   UNL     1     -12.133  14.267  65.401  1.00  0.00    -0.396 A  
HETATM   12  C   UNL     1     -12.238  12.934  65.818  1.00  0.00    -0.498 A  
HETATM   13  C   UNL     1     -11.184  12.294  66.483  1.00  0.00    -0.324 A  
HETATM   14  C   UNL     1      -9.887  14.360  66.277  1.00  0.00    -0.321 A  
HETATM   15  C   UNL     1     -10.003  13.025  66.696  1.00  0.00    -0.250 A  
BRANCH  13  16
HETATM   16  N   UNL     1     -11.399  10.983  66.963  1.00  0.00    -0.396 NA 
HETATM   17  H   UNL     1     -11.135  10.143  66.447  1.00  0.00     0.000 HD 
BRANCH  16  18
HETATM   18  N   UNL     1     -11.946  10.959  68.085  1.00  0.00    -0.796 NA 
HETATM   19  H   UNL     1     -12.879  11.332  68.266  1.00  0.00     0.000 HD 
BRANCH  18  20
HETATM   20  C   UNL     1     -11.137  10.363  69.077  1.00  0.00    -0.248 A  
HETATM   21  C   UNL     1      -9.739  10.279  68.992  1.00  0.00    -0.213 A  
HETATM   22  C   UNL     1      -8.992   9.602  69.963  1.00  0.00    -0.266 A  
HETATM   23  C   UNL     1      -9.644   8.987  71.031  1.00  0.00    -0.279 A  
HETATM   24  O   UNL     1      -8.906   8.304  71.963  1.00  0.00    -0.155 OA 
HETATM   25  C   UNL     1     -11.039   9.055  71.148  1.00  0.00    -0.371 A  
HETATM   26  C   UNL     1     -11.816   8.420  72.251  1.00  0.00    -0.389 C  
HETATM   27  C   UNL     1     -11.770   9.746  70.163  1.00  0.00    -0.190 A  
HETATM   28  H   UNL     1      -9.351   7.885  72.691  1.00  0.00     0.000 HD 
HETATM   29  O   UNL     1     -13.033   8.505  72.328  1.00  0.00    -0.350 OA 
HETATM   30  O   UNL     1     -11.087   7.737  73.159  1.00  0.00    -0.409 OA 
ENDBRANCH  18  20
ENDBRANCH  16  18
ENDBRANCH  13  16
ENDBRANCH   7  10
ENDBRANCH   5   6
ENDBRANCH   4   5
TORSDOF 6
ENDMDL
MODEL       10
REMARK 921   NORMALIZED FREE ENERGY PREDICTED BY IDOCK:   -7.21 KCAL/MOL
REMARK 922        TOTAL FREE ENERGY PREDICTED BY IDOCK:  -10.72 KCAL/MOL
REMARK 923 INTER-LIGAND FREE ENERGY PREDICTED BY IDOCK:   -9.64 KCAL/MOL
REMARK 924 INTRA-LIGAND FREE ENERGY PREDICTED BY IDOCK:   -1.09 KCAL/MOL
REMARK 927      BINDING AFFINITY PREDICTED BY RF-SCORE:    0.00 PKD
ROOT
HETATM    1  O   UNL     1      -8.148  19.195  67.828  1.00  0.00    -0.268 OA 
HETATM    2  C   UNL     1      -9.419  19.650  67.860  1.00  0.00    -0.349 C  
HETATM    3  O   UNL     1     -10.084  19.673  68.887  1.00  0.00    -0.447 OA 
HETATM    4  C   UNL     1      -9.936  20.122  66.530  1.00  0.00    -0.586 C  
ENDROOT
BRANCH   4   5
HETATM    5  C   UNL     1     -10.546  18.978  65.738  1.00  0.00    -0.318 C  
BRANCH   5   6
HETATM    6  N   UNL     1     -10.530  17.723  66.462  1.00  0.00    -0.330 N  
HETATM    7  C   UNL     1     -10.612  16.508  65.808  1.00  0.00    -0.296 C  
HETATM    8  H   UNL     1     -10.455  17.736  67.479  1.00  0.00     0.000 HD 
HETATM    9  O   UNL     1     -10.683  16.407  64.588  1.00  0.00    -0.693 OA 
BRANCH   7  10
HETATM   10  C   UNL     1     -10.674  15.293  66.673  1.00  0.00    -0.309 A  
HETATM   11  C   UNL     1     -11.395  15.360  67.870  1.00  0.00    -0.328 A  
HETATM   12  C   UNL     1     -11.417  14.265  68.745  1.00  0.00    -0.327 A  
HETATM   13  C   UNL     1     -10.736  13.079  68.442  1.00  0.00    -0.256 A  
HETATM   14  C   UNL     1     -10.026  14.099  66.334  1.00  0.00    -0.302 A  
HETATM   15  C   UNL     1     -10.049  13.010  67.219  1.00  0.00    -0.235 A  
BRANCH  13  16
HETATM   16  N   UNL     1     -10.719  12.056  69.417  1.00  0.00    -0.450 NA 
HETATM   17  H   UNL     1     -10.004  11.329  69.460  1.00  0.00     0.000 HD 
BRANCH  16  18
HETATM   18  N   UNL     1     -11.672  12.134  70.221  1.00  0.00    -0.534 NA 
HETATM   19  H   UNL     1     -12.106  13.015  70.497  1.00  0.00     0.000 HD 
BRANCH  18  20
HETATM   20  C   UNL     1     -12.083  10.873  70.708  1.00  0.00    -0.368 A  
HETATM   21  C   UNL     1     -13.117  10.701  71.641  1.00  0.00    -0.555 A  
HETATM   22  C   UNL     1     -13.428   9.437  72.154  1.00  0.00    -0.543 A  
HETATM   23  C   UNL     1     -12.693   8.325  71.743  1.00  0.00    -0.336 A  
HETATM   24  O   UNL     1     -12.988   7.095  72.271  1.00  0.00    -0.516 OA 
HETATM   25  C   UNL     1     -11.657   8.462  70.810  1.00  0.00    -0.252 A  
HETATM   26  C   UNL     1     -10.818   7.330  70.323  1.00  0.00    -0.245 C  
HETATM   27  C   UNL     1     -11.365   9.742  70.303  1.00  0.00    -0.333 A  
HETATM   28  H   UNL     1     -12.488   6.337  71.992  1.00  0.00     0.000 HD 
HETATM   29  O   UNL     1      -9.926   7.482  69.501  1.00  0.00    -0.175 OA 
HETATM   30  O   UNL     1     -11.103   6.122  70.855  1.00  0.00    -0.286 OA 
ENDBRANCH  18  20
ENDBRANCH  16  18
ENDBRANCH  13  16
ENDBRANCH   7  10
ENDBRANCH   5   6
ENDBRANCH   4   5
TORSDOF 6
ENDMDL
MODEL       11
REMARK 921   NORMALIZED FREE ENERGY PREDICTED BY IDOCK:   -7.14 KCAL/MOL
REMARK 922        TOTAL FREE ENERGY PREDICTED BY IDOCK:  -10.64 KCAL/MOL
REMARK 923 INTER-LIGAND FREE ENERGY PREDICTED BY IDOCK:   -9.50 KCAL/MOL
REMARK 924 INTRA-LIGAND FREE ENERGY PREDICTED BY IDOCK:   -1.13 KCAL/MOL
REMARK 927      BINDING AFFINITY PREDICTED BY RF-SCORE:    0.00 PKD
ROOT
HETATM    1  O   UNL     1     -10.007   7.472  72.718  1.00  0.00    -0.189 OA 
HETATM    2  C   UNL     1     -10.407   6.981  71.526  1.00  0.00    -0.203 C  
HETATM    3  O   UNL     1      -9.781   7.173  70.492  1.00  0.00    -0.176 OA 
HETATM    4  C   UNL     1     -11.680   6.183  71.585  1.00  0.00    -0.290 C  
ENDROOT
BRANCH   4   5
HETATM    5  C   UNL     1     -12.898   7.078  71.433  1.00  0.00    -0.356 C  
BRANCH   5   6
HETATM    6  N   UNL     1     -12.552   8.448  71.111  1.00  0.00    -0.478 N  
HETATM    7  C   UNL     1     -13.180   9.516  71.722  1.00  0.00    -0.422 C  
HETATM    8  H   UNL     1     -11.827   8.627  70.416  1.00  0.00     0.000 HD 
HETATM    9  O   UNL     1     -14.045   9.384  72.580  1.00  0.00    -0.418 OA 
BRANCH   7  10
HETATM   10  C   UNL     1     -12.795  10.875  71.239  1.00  0.00    -0.536 A  
HETATM   11  C   UNL     1     -13.195  11.989  71.987  1.00  0.00    -0.481 A  
HETATM   12  C   UNL     1     -12.918  13.284  71.530  1.00  0.00    -0.426 A  
HETATM   13  C   UNL     1     -12.226  13.500  70.331  1.00  0.00    -0.356 A  
HETATM   14  C   UNL     1     -12.062  11.073  70.063  1.00  0.00    -0.441 A  
HETATM   15  C   UNL     1     -11.794  12.374  69.611  1.00  0.00    -0.380 A  
BRANCH  13  16
HETATM   16  N   UNL     1     -12.071  14.832  69.884  1.00  0.00    -0.319 NA 
HETATM   17  H   UNL     1     -11.720  15.587  70.472  1.00  0.00     0.000 HD 
BRANCH  16  18
HETATM   18  N   UNL     1     -12.410  14.987  68.692  1.00  0.00    -0.589 NA 
HETATM   19  H   UNL     1     -13.328  14.729  68.327  1.00  0.00     0.000 HD 
BRANCH  18  20
HETATM   20  C   UNL     1     -11.387  15.555  67.901  1.00  0.00    -0.308 A  
HETATM   21  C   UNL     1     -10.804  14.907  66.801  1.00  0.00    -0.320 A  
HETATM   22  C   UNL     1      -9.735  15.481  66.104  1.00  0.00    -0.348 A  
HETATM   23  C   UNL     1      -9.228  16.714  66.510  1.00  0.00    -0.270 A  
HETATM   24  O   UNL     1      -8.164  17.256  65.837  1.00  0.00    -0.534 OA 
HETATM   25  C   UNL     1      -9.790  17.390  67.602  1.00  0.00    -0.282 A  
HETATM   26  C   UNL     1      -9.304  18.706  68.108  1.00  0.00    -0.318 C  
HETATM   27  C   UNL     1     -10.867  16.797  68.286  1.00  0.00    -0.366 A  
HETATM   28  H   UNL     1      -7.817  18.097  66.114  1.00  0.00     0.000 HD 
HETATM   29  O   UNL     1      -9.822  19.273  69.059  1.00  0.00    -0.422 OA 
HETATM   30  O   UNL     1      -8.248  19.230  67.450  1.00  0.00    -0.274 OA 
ENDBRANCH  18  20
ENDBRANCH  16  18
ENDBRANCH  13  16
ENDBRANCH   7  10
ENDBRANCH   5   6
ENDBRANCH   4   5
TORSDOF 6
ENDMDL
MODEL       12
REMARK 921   NORMALIZED FREE ENERGY PREDICTED BY IDOCK:   -7.08 KCAL/MOL
REMARK 922        TOTAL FREE ENERGY PREDICTED BY IDOCK:  -10.56 KCAL/MOL
REMARK 923 INTER-LIGAND FREE ENERGY PREDICTED BY IDOCK:   -9.54 KCAL/MOL
REMARK 924 INTRA-LIGAND FREE ENERGY PREDICTED BY IDOCK:   -1.02 KCAL/MOL
REMARK 927      BINDING AFFINITY PREDICTED BY RF-SCORE:    0.00 PKD
ROOT
HETATM    1  O   UNL     1      -7.486   8.606  73.777  1.00  0.00    -0.365 OA 
HETATM    2  C   UNL     1      -7.838   7.330  73.513  1.00  0.00    -0.102 C  
HETATM    3  O   UNL     1      -7.341   6.685  72.600  1.00  0.00    -0.087 OA 
HETATM    4  C   UNL     1      -8.890   6.779  74.436  1.00  0.00    -0.204 C  
ENDROOT
BRANCH   4   5
HETATM    5  C   UNL     1     -10.287   7.090  73.929  1.00  0.00    -0.348 C  
BRANCH   5   6
HETATM    6  N   UNL     1     -10.280   7.856  72.699  1.00  0.00    -0.270 N  
HETATM    7  C   UNL     1     -11.403   8.531  72.260  1.00  0.00    -0.371 C  
HETATM    8  H   UNL     1      -9.425   7.898  72.144  1.00  0.00     0.000 HD 
HETATM    9  O   UNL     1     -12.460   8.548  72.880  1.00  0.00    -0.276 OA 
BRANCH   7  10
HETATM   10  C   UNL     1     -11.292   9.210  70.935  1.00  0.00    -0.359 A  
HETATM   11  C   UNL     1     -11.977  10.415  70.741  1.00  0.00    -0.462 A  
HETATM   12  C   UNL     1     -11.959  11.046  69.490  1.00  0.00    -0.413 A  
HETATM   13  C   UNL     1     -11.249  10.501  68.412  1.00  0.00    -0.279 A  
HETATM   14  C   UNL     1     -10.540   8.678  69.882  1.00  0.00    -0.227 A  
HETATM   15  C   UNL     1     -10.531   9.314  68.630  1.00  0.00    -0.236 A  
BRANCH  13  16
HETATM   16  N   UNL     1     -11.359  11.139  67.155  1.00  0.00    -0.438 NA 
HETATM   17  H   UNL     1     -12.108  10.947  66.489  1.00  0.00     0.000 HD 
BRANCH  16  18
HETATM   18  N   UNL     1     -10.443  11.961  66.945  1.00  0.00    -0.217 NA 
HETATM   19  H   UNL     1      -9.493  11.850  67.299  1.00  0.00     0.000 HD 
BRANCH  18  20
HETATM   20  C   UNL     1     -10.863  13.063  66.166  1.00  0.00    -0.279 A  
HETATM   21  C   UNL     1     -11.614  12.939  64.988  1.00  0.00    -0.367 A  
HETATM   22  C   UNL     1     -11.932  14.058  64.209  1.00  0.00    -0.463 A  
HETATM   23  C   UNL     1     -11.486  15.320  64.599  1.00  0.00    -0.354 A  
HETATM   24  O   UNL     1     -11.780  16.406  63.816  1.00  0.00    -1.553 OA 
HETATM   25  C   UNL     1     -10.737  15.479  65.773  1.00  0.00    -0.362 A  
HETATM   26  C   UNL     1     -10.215  16.788  66.259  1.00  0.00    -0.332 C  
HETATM   27  C   UNL     1     -10.434  14.340  66.544  1.00  0.00    -0.287 A  
HETATM   28  H   UNL     1     -11.476  17.266  64.082  1.00  0.00     0.000 HD 
HETATM   29  O   UNL     1      -9.570  16.893  67.292  1.00  0.00    -0.239 OA 
HETATM   30  O   UNL     1     -10.495  17.853  65.478  1.00  0.00    -0.650 OA 
ENDBRANCH  18  20
ENDBRANCH  16  18
ENDBRANCH  13  16
ENDBRANCH   7  10
ENDBRANCH   5   6
ENDBRANCH   4   5
TORSDOF 6
ENDMDL
MODEL       13
REMARK 921   NORMALIZED FREE ENERGY PREDICTED BY IDOCK:   -7.06 KCAL/MOL
REMARK 922        TOTAL FREE ENERGY PREDICTED BY IDOCK:  -10.53 KCAL/MOL
REMARK 923 INTER-LIGAND FREE ENERGY PREDICTED BY IDOCK:   -9.39 KCAL/MOL
REMARK 924 INTRA-LIGAND FREE ENERGY PREDICTED BY IDOCK:   -1.14 KCAL/MOL
REMARK 927      BINDING AFFINITY PREDICTED BY RF-SCORE:    0.00 PKD
ROOT
HETATM    1  O   UNL     1     -13.454  11.873  63.836  1.00  0.00    -0.559 OA 
HETATM    2  C   UNL     1     -12.160  12.260  63.817  1.00  0.00    -0.532 C  
HETATM    3  O   UNL     1     -11.241  11.494  64.070  1.00  0.00    -0.369 OA 
HETATM    4  C   UNL     1     -11.957  13.705  63.457  1.00  0.00    -0.301 C  
ENDROOT
BRANCH   4   5
HETATM    5  C   UNL     1     -12.027  14.594  64.686  1.00  0.00    -0.462 C  
BRANCH   5   6
HETATM    6  N   UNL     1     -12.157  13.841  65.917  1.00  0.00    -0.405 N  
HETATM    7  C   UNL     1     -11.706  14.342  67.124  1.00  0.00    -0.404 C  
HETATM    8  H   UNL     1     -12.592  12.919  65.893  1.00  0.00     0.000 HD 
HETATM    9  O   UNL     1     -11.192  15.449  67.240  1.00  0.00    -0.327 OA 
BRANCH   7  10
HETATM   10  C   UNL     1     -11.820  13.433  68.302  1.00  0.00    -0.393 A  
HETATM   11  C   UNL     1     -11.616  12.061  68.111  1.00  0.00    -0.403 A  
HETATM   12  C   UNL     1     -11.785  11.165  69.176  1.00  0.00    -0.408 A  
HETATM   13  C   UNL     1     -12.146  11.614  70.453  1.00  0.00    -0.373 A  
HETATM   14  C   UNL     1     -12.134  13.902  69.583  1.00  0.00    -0.404 A  
HETATM   15  C   UNL     1     -12.307  12.997  70.642  1.00  0.00    -0.391 A  
BRANCH  13  16
HETATM   16  N   UNL     1     -12.397  10.646  71.451  1.00  0.00    -0.364 NA 
HETATM   17  H   UNL     1     -12.232  10.804  72.445  1.00  0.00     0.000 HD 
BRANCH  16  18
HETATM   18  N   UNL     1     -12.843   9.575  70.988  1.00  0.00    -0.499 NA 
HETATM   19  H   UNL     1     -13.595   9.527  70.300  1.00  0.00     0.000 HD 
BRANCH  18  20
HETATM   20  C   UNL     1     -12.196   8.437  71.519  1.00  0.00    -0.302 A  
HETATM   21  C   UNL     1     -12.798   7.172  71.607  1.00  0.00    -0.420 A  
HETATM   22  C   UNL     1     -12.142   6.098  72.219  1.00  0.00    -0.237 A  
HETATM   23  C   UNL     1     -10.872   6.284  72.764  1.00  0.00    -0.252 A  
HETATM   24  O   UNL     1     -10.249   5.232  73.385  1.00  0.00    -0.170 OA 
HETATM   25  C   UNL     1     -10.242   7.533  72.690  1.00  0.00    -0.297 A  
HETATM   26  C   UNL     1      -8.891   7.821  73.254  1.00  0.00    -0.221 C  
HETATM   27  C   UNL     1     -10.917   8.599  72.065  1.00  0.00    -0.432 A  
HETATM   28  H   UNL     1      -9.384   5.359  73.757  1.00  0.00     0.000 HD 
HETATM   29  O   UNL     1      -8.366   8.921  73.165  1.00  0.00    -0.338 OA 
HETATM   30  O   UNL     1      -8.287   6.786  73.876  1.00  0.00    -0.122 OA 
ENDBRANCH  18  20
ENDBRANCH  16  18
ENDBRANCH  13  16
ENDBRANCH   7  10
ENDBRANCH   5   6
ENDBRANCH   4   5
TORSDOF 6
ENDMDL
MODEL       14
REMARK 921   NORMALIZED FREE ENERGY PREDICTED BY IDOCK:   -7.02 KCAL/MOL
REMARK 922        TOTAL FREE ENERGY PREDICTED BY IDOCK:  -10.47 KCAL/MOL
REMARK 923 INTER-LIGAND FREE ENERGY PREDICTED BY IDOCK:   -9.41 KCAL/MOL
REMARK 924 INTRA-LIGAND FREE ENERGY PREDICTED BY IDOCK:   -1.06 KCAL/MOL
REMARK 927      BINDING AFFINITY PREDICTED BY RF-SCORE:    0.00 PKD
ROOT
HETATM    1  O   UNL     1      -7.454  18.362  65.629  1.00  0.00    -0.521 OA 
HETATM    2  C   UNL     1      -8.256  18.798  66.624  1.00  0.00    -0.289 C  
HETATM    3  O   UNL     1      -8.092  18.475  67.792  1.00  0.00    -0.245 OA 
HETATM    4  C   UNL     1      -9.360  19.711  66.166  1.00  0.00    -0.416 C  
ENDROOT
BRANCH   4   5
HETATM    5  C   UNL     1     -10.590  18.924  65.750  1.00  0.00    -0.296 C  
BRANCH   5   6
HETATM    6  N   UNL     1     -10.584  17.565  66.253  1.00  0.00    -0.258 N  
HETATM    7  C   UNL     1     -10.902  16.491  65.444  1.00  0.00    -0.206 C  
HETATM    8  H   UNL     1     -10.338  17.397  67.229  1.00  0.00     0.000 HD 
HETATM    9  O   UNL     1     -11.187  16.607  64.257  1.00  0.00    -1.098 OA 
BRANCH   7  10
HETATM   10  C   UNL     1     -10.944  15.153  66.105  1.00  0.00    -0.331 A  
HETATM   11  C   UNL     1     -11.946  14.252  65.728  1.00  0.00    -0.399 A  
HETATM   12  C   UNL     1     -12.065  13.015  66.375  1.00  0.00    -0.428 A  
HETATM   13  C   UNL     1     -11.184  12.642  67.398  1.00  0.00    -0.290 A  
HETATM   14  C   UNL     1     -10.027  14.777  67.093  1.00  0.00    -0.236 A  
HETATM   15  C   UNL     1     -10.157  13.538  67.739  1.00  0.00    -0.236 A  
BRANCH  13  16
HETATM   16  N   UNL     1     -11.427  11.424  68.073  1.00  0.00    -0.381 NA 
HETATM   17  H   UNL     1     -10.924  10.559  67.874  1.00  0.00     0.000 HD 
BRANCH  16  18
HETATM   18  N   UNL     1     -12.322  11.518  68.938  1.00  0.00    -0.350 NA 
HETATM   19  H   UNL     1     -13.069  12.213  68.905  1.00  0.00     0.000 HD 
BRANCH  18  20
HETATM   20  C   UNL     1     -12.190  10.561  69.969  1.00  0.00    -0.250 A  
HETATM   21  C   UNL     1     -13.274  10.059  70.706  1.00  0.00    -0.270 A  
HETATM   22  C   UNL     1     -13.078   9.176  71.774  1.00  0.00    -0.456 A  
HETATM   23  C   UNL     1     -11.785   8.793  72.125  1.00  0.00    -0.363 A  
HETATM   24  O   UNL     1     -11.602   7.948  73.189  1.00  0.00    -0.587 OA 
HETATM   25  C   UNL     1     -10.681   9.273  71.408  1.00  0.00    -0.432 A  
HETATM   26  C   UNL     1      -9.265   8.922  71.720  1.00  0.00    -0.208 C  
HETATM   27  C   UNL     1     -10.901  10.157  70.334  1.00  0.00    -0.365 A  
HETATM   28  H   UNL     1     -10.720   7.687  73.429  1.00  0.00     0.000 HD 
HETATM   29  O   UNL     1      -8.325   9.352  71.069  1.00  0.00    -0.294 OA 
HETATM   30  O   UNL     1      -9.089   8.100  72.777  1.00  0.00    -0.208 OA 
ENDBRANCH  18  20
ENDBRANCH  16  18
ENDBRANCH  13  16
ENDBRANCH   7  10
ENDBRANCH   5   6
ENDBRANCH   4   5
TORSDOF 6
ENDMDL
MODEL       15
REMARK 921   NORMALIZED FREE ENERGY PREDICTED BY IDOCK:   -7.01 KCAL/MOL
REMARK 922        TOTAL FREE ENERGY PREDICTED BY IDOCK:  -10.45 KCAL/MOL
REMARK 923 INTER-LIGAND FREE ENERGY PREDICTED BY IDOCK:   -9.23 KCAL/MOL
REMARK 924 INTRA-LIGAND FREE ENERGY PREDICTED BY IDOCK:   -1.22 KCAL/MOL
REMARK 927      BINDING AFFINITY PREDICTED BY RF-SCORE:    0.00 PKD
ROOT
HETATM    1  O   UNL     1     -14.389  14.383  71.462  1.00  0.00    -0.409 OA 
HETATM    2  C   UNL     1     -13.485  13.774  72.259  1.00  0.00    -0.541 C  
HETATM    3  O   UNL     1     -12.829  14.380  73.094  1.00  0.00    -0.484 OA 
HETATM    4  C   UNL     1     -13.361  12.293  72.026  1.00  0.00    -0.491 C  
ENDROOT
BRANCH   4   5
HETATM    5  C   UNL     1     -12.350  11.990  70.934  1.00  0.00    -0.285 C  
BRANCH   5   6
HETATM    6  N   UNL     1     -12.031  13.150  70.126  1.00  0.00    -0.444 N  
HETATM    7  C   UNL     1     -11.890  13.061  68.755  1.00  0.00    -0.317 C  
HETATM    8  H   UNL     1     -11.907  14.054  70.582  1.00  0.00     0.000 HD 
HETATM    9  O   UNL     1     -12.044  12.017  68.131  1.00  0.00    -0.480 OA 
BRANCH   7  10
HETATM   10  C   UNL     1     -11.475  14.309  68.049  1.00  0.00    -0.342 A  
HETATM   11  C   UNL     1     -11.160  14.234  66.687  1.00  0.00    -0.321 A  
HETATM   12  C   UNL     1     -10.695  15.367  66.005  1.00  0.00    -0.326 A  
HETATM   13  C   UNL     1     -10.548  16.599  66.657  1.00  0.00    -0.203 A  
HETATM   14  C   UNL     1     -11.378  15.543  68.703  1.00  0.00    -0.348 A  
HETATM   15  C   UNL     1     -10.907  16.671  68.013  1.00  0.00    -0.337 A  
BRANCH  13  16
HETATM   16  N   UNL     1      -9.979  17.670  65.932  1.00  0.00    -0.553 NA 
HETATM   17  H   UNL     1     -10.525  18.432  65.530  1.00  0.00     0.000 HD 
BRANCH  16  18
HETATM   18  N   UNL     1      -8.737  17.586  65.835  1.00  0.00    -0.529 NA 
HETATM   19  H   UNL     1      -8.262  16.927  65.217  1.00  0.00     0.000 HD 
BRANCH  18  20
HETATM   20  C   UNL     1      -8.059  18.500  66.672  1.00  0.00    -0.264 A  
HETATM   21  C   UNL     1      -7.949  19.872  66.396  1.00  0.00    -0.345 A  
HETATM   22  C   UNL     1      -7.193  20.718  67.215  1.00  0.00    -0.415 A  
HETATM   23  C   UNL     1      -6.525  20.194  68.321  1.00  0.00    -0.291 A  
HETATM   24  O   UNL     1      -5.766  21.026  69.102  1.00  0.00    -0.363 OA 
HETATM   25  C   UNL     1      -6.617  18.829  68.627  1.00  0.00    -0.273 A  
HETATM   26  C   UNL     1      -5.929  18.185  69.782  1.00  0.00    -0.231 C  
HETATM   27  C   UNL     1      -7.386  17.996  67.792  1.00  0.00    -0.213 A  
HETATM   28  H   UNL     1      -5.311  20.669  69.856  1.00  0.00     0.000 HD 
HETATM   29  O   UNL     1      -6.036  16.992  70.025  1.00  0.00    -0.232 OA 
HETATM   30  O   UNL     1      -5.172  19.006  70.541  1.00  0.00    -0.196 OA 
ENDBRANCH  18  20
ENDBRANCH  16  18
ENDBRANCH  13  16
ENDBRANCH   7  10
ENDBRANCH   5   6
ENDBRANCH   4   5
TORSDOF 6
ENDMDL
MODEL       16
REMARK 921   NORMALIZED FREE ENERGY PREDICTED BY IDOCK:   -6.96 KCAL/MOL
REMARK 922        TOTAL FREE ENERGY PREDICTED BY IDOCK:  -10.39 KCAL/MOL
REMARK 923 INTER-LIGAND FREE ENERGY PREDICTED BY IDOCK:   -9.22 KCAL/MOL
REMARK 924 INTRA-LIGAND FREE ENERGY PREDICTED BY IDOCK:   -1.17 KCAL/MOL
REMARK 927      BINDING AFFINITY PREDICTED BY RF-SCORE:    0.00 PKD
ROOT
HETATM    1  O   UNL     1     -12.932  13.862  65.006  1.00  0.00    -0.731 OA 
HETATM    2  C   UNL     1     -11.627  14.032  64.707  1.00  0.00    -0.381 C  
HETATM    3  O   UNL     1     -10.910  13.112  64.340  1.00  0.00    -0.356 OA 
HETATM    4  C   UNL     1     -11.140  15.446  64.866  1.00  0.00    -0.435 C  
ENDROOT
BRANCH   4   5
HETATM    5  C   UNL     1     -10.674  15.712  66.287  1.00  0.00    -0.295 C  
BRANCH   5   6
HETATM    6  N   UNL     1     -11.033  14.650  67.204  1.00  0.00    -0.307 N  
HETATM    7  C   UNL     1     -11.638  14.914  68.418  1.00  0.00    -0.325 C  
HETATM    8  H   UNL     1     -10.835  13.682  66.947  1.00  0.00     0.000 HD 
HETATM    9  O   UNL     1     -11.927  16.046  68.790  1.00  0.00    -0.340 OA 
BRANCH   7  10
HETATM   10  C   UNL     1     -11.877  13.740  69.308  1.00  0.00    -0.392 A  
HETATM   11  C   UNL     1     -11.480  12.473  68.867  1.00  0.00    -0.355 A  
HETATM   12  C   UNL     1     -11.752  11.336  69.640  1.00  0.00    -0.420 A  
HETATM   13  C   UNL     1     -12.411  11.437  70.872  1.00  0.00    -0.381 A  
HETATM   14  C   UNL     1     -12.494  13.863  70.559  1.00  0.00    -0.422 A  
HETATM   15  C   UNL     1     -12.768  12.718  71.324  1.00  0.00    -0.364 A  
BRANCH  13  16
HETATM   16  N   UNL     1     -12.741  10.240  71.548  1.00  0.00    -0.414 NA 
HETATM   17  H   UNL     1     -13.043  10.207  72.522  1.00  0.00     0.000 HD 
BRANCH  16  18
HETATM   18  N   UNL     1     -12.624   9.227  70.827  1.00  0.00    -0.507 NA 
HETATM   19  H   UNL     1     -12.926   9.189  69.853  1.00  0.00     0.000 HD 
BRANCH  18  20
HETATM   20  C   UNL     1     -12.030   8.138  71.504  1.00  0.00    -0.298 A  
HETATM   21  C   UNL     1     -12.600   6.857  71.563  1.00  0.00    -0.412 A  
HETATM   22  C   UNL     1     -12.011   5.836  72.319  1.00  0.00    -0.147 A  
HETATM   23  C   UNL     1     -10.845   6.093  73.038  1.00  0.00    -0.257 A  
HETATM   24  O   UNL     1     -10.290   5.094  73.795  1.00  0.00    -0.194 OA 
HETATM   25  C   UNL     1     -10.249   7.361  72.997  1.00  0.00    -0.335 A  
HETATM   26  C   UNL     1      -9.008   7.724  73.741  1.00  0.00    -0.277 C  
HETATM   27  C   UNL     1     -10.854   8.372  72.227  1.00  0.00    -0.422 A  
HETATM   28  H   UNL     1      -9.495   5.270  74.286  1.00  0.00     0.000 HD 
HETATM   29  O   UNL     1      -8.509   8.838  73.677  1.00  0.00    -0.307 OA 
HETATM   30  O   UNL     1      -8.473   6.741  74.496  1.00  0.00    -0.144 OA 
ENDBRANCH  18  20
ENDBRANCH  16  18
ENDBRANCH  13  16
ENDBRANCH   7  10
ENDBRANCH   5   6
ENDBRANCH   4   5
TORSDOF 6
ENDMDL
MODEL       17
REMARK 921   NORMALIZED FREE ENERGY PREDICTED BY IDOCK:   -6.95 KCAL/MOL
REMARK 922        TOTAL FREE ENERGY PREDICTED BY IDOCK:  -10.37 KCAL/MOL
REMARK 923 INTER-LIGAND FREE ENERGY PREDICTED BY IDOCK:   -9.26 KCAL/MOL
REMARK 924 INTRA-LIGAND FREE ENERGY PREDICTED BY IDOCK:   -1.11 KCAL/MOL
REMARK 927      BINDING AFFINITY PREDICTED BY RF-SCORE:    0.00 PKD
ROOT
HETATM    1  O   UNL     1      -9.798   7.501  72.702  1.00  0.00    -0.165 OA 
HETATM    2  C   UNL     1     -10.027   6.785  71.580  1.00  0.00    -0.177 C  
HETATM    3  O   UNL     1      -9.284   6.827  70.609  1.00  0.00    -0.155 OA 
HETATM    4  C   UNL     1     -11.269   5.939  71.633  1.00  0.00    -0.300 C  
ENDROOT
BRANCH   4   5
HETATM    5  C   UNL     1     -12.489   6.721  71.179  1.00  0.00    -0.298 C  
BRANCH   5   6
HETATM    6  N   UNL     1     -12.199   8.119  70.931  1.00  0.00    -0.489 N  
HETATM    7  C   UNL     1     -13.028   9.123  71.393  1.00  0.00    -0.307 C  
HETATM    8  H   UNL     1     -11.363   8.368  70.402  1.00  0.00     0.000 HD 
HETATM    9  O   UNL     1     -14.039   8.908  72.053  1.00  0.00    -0.421 OA 
BRANCH   7  10
HETATM   10  C   UNL     1     -12.666  10.516  70.997  1.00  0.00    -0.504 A  
HETATM   11  C   UNL     1     -13.091  11.575  71.808  1.00  0.00    -0.503 A  
HETATM   12  C   UNL     1     -12.836  12.901  71.433  1.00  0.00    -0.377 A  
HETATM   13  C   UNL     1     -12.141  13.201  70.253  1.00  0.00    -0.328 A  
HETATM   14  C   UNL     1     -11.931  10.798  69.840  1.00  0.00    -0.418 A  
HETATM   15  C   UNL     1     -11.684  12.129  69.469  1.00  0.00    -0.402 A  
BRANCH  13  16
HETATM   16  N   UNL     1     -12.010  14.560  69.889  1.00  0.00    -0.308 NA 
HETATM   17  H   UNL     1     -12.803  15.188  69.757  1.00  0.00     0.000 HD 
BRANCH  16  18
HETATM   18  N   UNL     1     -10.820  14.912  69.745  1.00  0.00    -0.340 NA 
HETATM   19  H   UNL     1     -10.054  14.558  70.319  1.00  0.00     0.000 HD 
BRANCH  18  20
HETATM   20  C   UNL     1     -10.648  15.853  68.705  1.00  0.00    -0.245 A  
HETATM   21  C   UNL     1     -10.242  17.179  68.917  1.00  0.00    -0.332 A  
HETATM   22  C   UNL     1     -10.169  18.093  67.860  1.00  0.00    -0.391 A  
HETATM   23  C   UNL     1     -10.516  17.688  66.572  1.00  0.00    -0.283 A  
HETATM   24  O   UNL     1     -10.466  18.598  65.547  1.00  0.00    -0.585 OA 
HETATM   25  C   UNL     1     -10.921  16.370  66.325  1.00  0.00     0.052 A  
HETATM   26  C   UNL     1     -11.317  15.856  64.982  1.00  0.00    -0.193 C  
HETATM   27  C   UNL     1     -10.983  15.465  67.403  1.00  0.00    -0.312 A  
HETATM   28  H   UNL     1     -10.703  18.322  64.669  1.00  0.00     0.000 HD 
HETATM   29  O   UNL     1     -11.659  14.696  64.800  1.00  0.00    -0.386 OA 
HETATM   30  O   UNL     1     -11.280  16.758  63.979  1.00  0.00    -1.089 OA 
ENDBRANCH  18  20
ENDBRANCH  16  18
ENDBRANCH  13  16
ENDBRANCH   7  10
ENDBRANCH   5   6
ENDBRANCH   4   5
TORSDOF 6
ENDMDL
MODEL       18
REMARK 921   NORMALIZED FREE ENERGY PREDICTED BY IDOCK:   -6.94 KCAL/MOL
REMARK 922        TOTAL FREE ENERGY PREDICTED BY IDOCK:  -10.36 KCAL/MOL
REMARK 923 INTER-LIGAND FREE ENERGY PREDICTED BY IDOCK:   -9.51 KCAL/MOL
REMARK 924 INTRA-LIGAND FREE ENERGY PREDICTED BY IDOCK:   -0.85 KCAL/MOL
REMARK 927      BINDING AFFINITY PREDICTED BY RF-SCORE:    0.00 PKD
ROOT
HETATM    1  O   UNL     1     -13.901   7.531  71.414  1.00  0.00    -0.383 OA 
HETATM    2  C   UNL     1     -13.315   8.613  71.969  1.00  0.00    -0.392 C  
HETATM    3  O   UNL     1     -13.957   9.565  72.391  1.00  0.00    -0.381 OA 
HETATM    4  C   UNL     1     -11.814   8.540  72.021  1.00  0.00    -0.429 C  
ENDROOT
BRANCH   4   5
HETATM    5  C   UNL     1     -11.192   9.072  70.742  1.00  0.00    -0.275 C  
BRANCH   5   6
HETATM    6  N   UNL     1     -11.199  10.519  70.673  1.00  0.00    -0.411 N  
HETATM    7  C   UNL     1     -11.816  11.192  69.635  1.00  0.00    -0.348 C  
HETATM    8  H   UNL     1     -10.737  11.054  71.408  1.00  0.00     0.000 HD 
HETATM    9  O   UNL     1     -12.409  10.622  68.726  1.00  0.00    -0.349 OA 
BRANCH   7  10
HETATM   10  C   UNL     1     -11.676  12.678  69.634  1.00  0.00    -0.373 A  
HETATM   11  C   UNL     1     -11.079  13.293  68.527  1.00  0.00    -0.294 A  
HETATM   12  C   UNL     1     -10.863  14.677  68.518  1.00  0.00    -0.256 A  
HETATM   13  C   UNL     1     -11.248  15.480  69.600  1.00  0.00    -0.300 A  
HETATM   14  C   UNL     1     -12.109  13.472  70.702  1.00  0.00    -0.386 A  
HETATM   15  C   UNL     1     -11.884  14.857  70.687  1.00  0.00    -0.357 A  
BRANCH  13  16
HETATM   16  N   UNL     1     -10.907  16.851  69.563  1.00  0.00    -0.370 NA 
HETATM   17  H   UNL     1     -10.527  17.359  70.363  1.00  0.00     0.000 HD 
BRANCH  16  18
HETATM   18  N   UNL     1     -11.119  17.376  68.450  1.00  0.00    -0.162 NA 
HETATM   19  H   UNL     1     -11.857  17.072  67.814  1.00  0.00     0.000 HD 
BRANCH  18  20
HETATM   20  C   UNL     1     -10.229  18.435  68.164  1.00  0.00    -0.384 A  
HETATM   21  C   UNL     1     -10.540  19.501  67.307  1.00  0.00    -0.610 A  
HETATM   22  C   UNL     1      -9.591  20.480  66.991  1.00  0.00    -0.540 A  
HETATM   23  C   UNL     1      -8.306  20.393  67.527  1.00  0.00    -0.282 A  
HETATM   24  O   UNL     1      -7.375  21.342  67.192  1.00  0.00    -0.800 OA 
HETATM   25  C   UNL     1      -7.964  19.344  68.390  1.00  0.00    -0.376 A  
HETATM   26  C   UNL     1      -6.613  19.171  68.998  1.00  0.00    -0.297 C  
HETATM   27  C   UNL     1      -8.936  18.373  68.697  1.00  0.00    -0.308 A  
HETATM   28  H   UNL     1      -6.500  21.283  67.556  1.00  0.00     0.000 HD 
HETATM   29  O   UNL     1      -6.349  18.247  69.754  1.00  0.00    -0.222 OA 
HETATM   30  O   UNL     1      -5.696  20.100  68.655  1.00  0.00    -0.226 OA 
ENDBRANCH  18  20
ENDBRANCH  16  18
ENDBRANCH  13  16
ENDBRANCH   7  10
ENDBRANCH   5   6
ENDBRANCH   4   5
TORSDOF 6
ENDMDL
MODEL       19
REMARK 921   NORMALIZED FREE ENERGY PREDICTED BY IDOCK:   -6.94 KCAL/MOL
REMARK 922        TOTAL FREE ENERGY PREDICTED BY IDOCK:  -10.35 KCAL/MOL
REMARK 923 INTER-LIGAND FREE ENERGY PREDICTED BY IDOCK:   -9.73 KCAL/MOL
REMARK 924 INTRA-LIGAND FREE ENERGY PREDICTED BY IDOCK:   -0.63 KCAL/MOL
REMARK 927      BINDING AFFINITY PREDICTED BY RF-SCORE:    0.00 PKD
ROOT
HETATM    1  O   UNL     1     -11.609  16.651  63.842  1.00  0.00    -1.204 OA 
HETATM    2  C   UNL     1     -11.709  15.426  64.401  1.00  0.00    -0.258 C  
HETATM    3  O   UNL     1     -12.724  14.747  64.321  1.00  0.00    -0.691 OA 
HETATM    4  C   UNL     1     -10.470  14.978  65.125  1.00  0.00    -0.438 C  
ENDROOT
BRANCH   4   5
HETATM    5  C   UNL     1     -10.473  15.450  66.568  1.00  0.00    -0.294 C  
BRANCH   5   6
HETATM    6  N   UNL     1     -10.948  14.438  67.489  1.00  0.00    -0.286 N  
HETATM    7  C   UNL     1     -11.554  14.774  68.685  1.00  0.00    -0.319 C  
HETATM    8  H   UNL     1     -10.833  13.453  67.249  1.00  0.00     0.000 HD 
HETATM    9  O   UNL     1     -11.748  15.932  69.036  1.00  0.00    -0.385 OA 
BRANCH   7  10
HETATM   10  C   UNL     1     -11.919  13.640  69.584  1.00  0.00    -0.402 A  
HETATM   11  C   UNL     1     -11.581  12.339  69.192  1.00  0.00    -0.373 A  
HETATM   12  C   UNL     1     -11.970  11.241  69.971  1.00  0.00    -0.447 A  
HETATM   13  C   UNL     1     -12.690  11.413  71.161  1.00  0.00    -0.377 A  
HETATM   14  C   UNL     1     -12.598  13.831  70.793  1.00  0.00    -0.410 A  
HETATM   15  C   UNL     1     -12.988  12.725  71.565  1.00  0.00    -0.388 A  
BRANCH  13  16
HETATM   16  N   UNL     1     -13.135  10.256  71.841  1.00  0.00    -0.461 NA 
HETATM   17  H   UNL     1     -13.418  10.252  72.821  1.00  0.00     0.000 HD 
BRANCH  16  18
HETATM   18  N   UNL     1     -13.145   9.240  71.115  1.00  0.00    -0.513 NA 
HETATM   19  H   UNL     1     -13.755   9.132  70.304  1.00  0.00     0.000 HD 
BRANCH  18  20
HETATM   20  C   UNL     1     -12.223   8.256  71.536  1.00  0.00    -0.301 A  
HETATM   21  C   UNL     1     -11.620   8.249  72.803  1.00  0.00    -0.326 A  
HETATM   22  C   UNL     1     -10.649   7.299  73.138  1.00  0.00    -0.400 A  
HETATM   23  C   UNL     1     -10.261   6.346  72.197  1.00  0.00    -0.186 A  
HETATM   24  O   UNL     1      -9.290   5.435  72.527  1.00  0.00    -0.142 OA 
HETATM   25  C   UNL     1     -10.847   6.323  70.924  1.00  0.00    -0.329 A  
HETATM   26  C   UNL     1     -10.485   5.346  69.857  1.00  0.00    -0.308 C  
HETATM   27  C   UNL     1     -11.825   7.285  70.610  1.00  0.00    -0.290 A  
HETATM   28  H   UNL     1      -9.025   4.786  71.885  1.00  0.00     0.000 HD 
HETATM   29  O   UNL     1     -11.021   5.349  68.758  1.00  0.00    -0.062 OA 
HETATM   30  O   UNL     1      -9.520   4.460  70.181  1.00  0.00    -0.138 OA 
ENDBRANCH  18  20
ENDBRANCH  16  18
ENDBRANCH  13  16
ENDBRANCH   7  10
ENDBRANCH   5   6
ENDBRANCH   4   5
TORSDOF 6
ENDMDL
MODEL       20
REMARK 921   NORMALIZED FREE ENERGY PREDICTED BY IDOCK:   -6.92 KCAL/MOL
REMARK 922        TOTAL FREE ENERGY PREDICTED BY IDOCK:  -10.34 KCAL/MOL
REMARK 923 INTER-LIGAND FREE ENERGY PREDICTED BY IDOCK:   -9.54 KCAL/MOL
REMARK 924 INTRA-LIGAND FREE ENERGY PREDICTED BY IDOCK:   -0.80 KCAL/MOL
REMARK 927      BINDING AFFINITY PREDICTED BY RF-SCORE:    0.00 PKD
ROOT
HETATM    1  O   UNL     1     -11.533  16.763  64.299  1.00  0.00    -1.125 OA 
HETATM    2  C   UNL     1     -10.881  15.855  65.057  1.00  0.00    -0.426 C  
HETATM    3  O   UNL     1     -11.059  14.651  64.940  1.00  0.00    -0.366 OA 
HETATM    4  C   UNL     1      -9.924  16.457  66.048  1.00  0.00    -0.369 C  
ENDROOT
BRANCH   4   5
HETATM    5  C   UNL     1     -10.623  16.794  67.354  1.00  0.00    -0.291 C  
BRANCH   5   6
HETATM    6  N   UNL     1     -11.181  15.628  68.009  1.00  0.00    -0.341 N  
HETATM    7  C   UNL     1     -11.367  15.586  69.378  1.00  0.00    -0.316 C  
HETATM    8  H   UNL     1     -11.444  14.819  67.446  1.00  0.00     0.000 HD 
HETATM    9  O   UNL     1     -11.096  16.523  70.120  1.00  0.00    -0.348 OA 
BRANCH   7  10
HETATM   10  C   UNL     1     -11.868  14.296  69.939  1.00  0.00    -0.382 A  
HETATM   11  C   UNL     1     -12.623  14.328  71.117  1.00  0.00    -0.432 A  
HETATM   12  C   UNL     1     -13.050  13.135  71.716  1.00  0.00    -0.478 A  
HETATM   13  C   UNL     1     -12.749  11.889  71.150  1.00  0.00    -0.284 A  
HETATM   14  C   UNL     1     -11.599  13.062  69.336  1.00  0.00    -0.360 A  
HETATM   15  C   UNL     1     -12.027  11.872  69.946  1.00  0.00    -0.398 A  
BRANCH  13  16
HETATM   16  N   UNL     1     -13.125  10.728  71.863  1.00  0.00    -0.494 NA 
HETATM   17  H   UNL     1     -13.207  10.692  72.879  1.00  0.00     0.000 HD 
BRANCH  16  18
HETATM   18  N   UNL     1     -13.349   9.751  71.118  1.00  0.00    -0.494 NA 
HETATM   19  H   UNL     1     -14.017   9.770  70.347  1.00  0.00     0.000 HD 
BRANCH  18  20
HETATM   20  C   UNL     1     -12.577   8.617  71.455  1.00  0.00    -0.322 A  
HETATM   21  C   UNL     1     -13.109   7.324  71.578  1.00  0.00    -0.434 A  
HETATM   22  C   UNL     1     -12.316   6.250  71.998  1.00  0.00    -0.202 A  
HETATM   23  C   UNL     1     -10.975   6.464  72.313  1.00  0.00    -0.254 A  
HETATM   24  O   UNL     1     -10.213   5.410  72.748  1.00  0.00    -0.176 OA 
HETATM   25  C   UNL     1     -10.411   7.742  72.198  1.00  0.00    -0.287 A  
HETATM   26  C   UNL     1      -8.991   8.059  72.522  1.00  0.00    -0.195 C  
HETATM   27  C   UNL     1     -11.226   8.807  71.769  1.00  0.00    -0.410 A  
HETATM   28  H   UNL     1      -9.299   5.556  72.964  1.00  0.00     0.000 HD 
HETATM   29  O   UNL     1      -8.528   9.185  72.404  1.00  0.00    -0.253 OA 
HETATM   30  O   UNL     1      -8.248   7.022  72.963  1.00  0.00    -0.105 OA 
ENDBRANCH  18  20
ENDBRANCH  16  18
ENDBRANCH  13  16
ENDBRANCH   7  10
ENDBRANCH   5   6
ENDBRANCH   4   5
TORSDOF 6
ENDMDL
MODEL       21
REMARK 921   NORMALIZED FREE ENERGY PREDICTED BY IDOCK:   -6.91 KCAL/MOL
REMARK 922        TOTAL FREE ENERGY PREDICTED BY IDOCK:  -10.33 KCAL/MOL
REMARK 923 INTER-LIGAND FREE ENERGY PREDICTED BY IDOCK:   -9.64 KCAL/MOL
REMARK 924 INTRA-LIGAND FREE ENERGY PREDICTED BY IDOCK:   -0.68 KCAL/MOL
REMARK 927      BINDING AFFINITY PREDICTED BY RF-SCORE:    0.00 PKD
ROOT
HETATM    1  O   UNL     1     -11.182   8.084  73.007  1.00  0.00    -0.388 OA 
HETATM    2  C   UNL     1     -11.287   8.745  71.834  1.00  0.00    -0.361 C  
HETATM    3  O   UNL     1     -10.311   9.099  71.189  1.00  0.00    -0.263 OA 
HETATM    4  C   UNL     1     -12.704   9.003  71.399  1.00  0.00    -0.361 C  
ENDROOT
BRANCH   4   5
HETATM    5  C   UNL     1     -13.232  10.301  71.983  1.00  0.00    -0.411 C  
BRANCH   5   6
HETATM    6  N   UNL     1     -12.692  11.474  71.326  1.00  0.00    -0.398 N  
HETATM    7  C   UNL     1     -13.040  12.751  71.722  1.00  0.00    -0.356 C  
HETATM    8  H   UNL     1     -12.039  11.353  70.551  1.00  0.00     0.000 HD 
HETATM    9  O   UNL     1     -13.801  12.979  72.655  1.00  0.00    -0.653 OA 
BRANCH   7  10
HETATM   10  C   UNL     1     -12.484  13.872  70.908  1.00  0.00    -0.447 A  
HETATM   11  C   UNL     1     -12.192  13.638  69.559  1.00  0.00    -0.316 A  
HETATM   12  C   UNL     1     -11.601  14.641  68.779  1.00  0.00    -0.346 A  
HETATM   13  C   UNL     1     -11.301  15.899  69.318  1.00  0.00    -0.355 A  
HETATM   14  C   UNL     1     -12.234  15.138  71.449  1.00  0.00    -0.401 A  
HETATM   15  C   UNL     1     -11.637  16.135  70.661  1.00  0.00    -0.347 A  
BRANCH  13  16
HETATM   16  N   UNL     1     -10.614  16.825  68.500  1.00  0.00    -0.333 NA 
HETATM   17  H   UNL     1     -10.337  16.631  67.538  1.00  0.00     0.000 HD 
BRANCH  16  18
HETATM   18  N   UNL     1     -10.383  17.907  69.080  1.00  0.00    -0.420 NA 
HETATM   19  H   UNL     1     -10.756  18.147  69.998  1.00  0.00     0.000 HD 
BRANCH  18  20
HETATM   20  C   UNL     1      -9.549  18.764  68.328  1.00  0.00    -0.353 A  
HETATM   21  C   UNL     1      -9.793  19.108  66.989  1.00  0.00    -0.407 A  
HETATM   22  C   UNL     1      -8.889  19.893  66.265  1.00  0.00    -0.402 A  
HETATM   23  C   UNL     1      -7.716  20.336  66.875  1.00  0.00    -0.312 A  
HETATM   24  O   UNL     1      -6.824  21.083  66.150  1.00  0.00    -0.477 OA 
HETATM   25  C   UNL     1      -7.443  20.013  68.211  1.00  0.00    -0.279 A  
HETATM   26  C   UNL     1      -6.211  20.436  68.937  1.00  0.00    -0.325 C  
HETATM   27  C   UNL     1      -8.369  19.226  68.923  1.00  0.00    -0.339 A  
HETATM   28  H   UNL     1      -6.024  21.384  66.565  1.00  0.00     0.000 HD 
HETATM   29  O   UNL     1      -6.007  20.144  70.106  1.00  0.00    -0.306 OA 
HETATM   30  O   UNL     1      -5.329  21.160  68.215  1.00  0.00    -0.290 OA 
ENDBRANCH  18  20
ENDBRANCH  16  18
ENDBRANCH  13  16
ENDBRANCH   7  10
ENDBRANCH   5   6
ENDBRANCH   4   5
TORSDOF 6
ENDMDL
MODEL       22
REMARK 921   NORMALIZED FREE ENERGY PREDICTED BY IDOCK:   -6.90 KCAL/MOL
REMARK 922        TOTAL FREE ENERGY PREDICTED BY IDOCK:  -10.31 KCAL/MOL
REMARK 923 INTER-LIGAND FREE ENERGY PREDICTED BY IDOCK:   -9.19 KCAL/MOL
REMARK 924 INTRA-LIGAND FREE ENERGY PREDICTED BY IDOCK:   -1.13 KCAL/MOL
REMARK 927      BINDING AFFINITY PREDICTED BY RF-SCORE:    0.00 PKD
ROOT
HETATM    1  O   UNL     1     -11.463   5.664  72.518  1.00  0.00    -0.294 OA 
HETATM    2  C   UNL     1     -10.721   6.547  73.220  1.00  0.00    -0.274 C  
HETATM    3  O   UNL     1     -11.136   7.654  73.532  1.00  0.00    -0.315 OA 
HETATM    4  C   UNL     1      -9.349   6.047  73.579  1.00  0.00    -0.134 C  
ENDROOT
BRANCH   4   5
HETATM    5  C   UNL     1      -8.349   6.342  72.474  1.00  0.00    -0.113 C  
BRANCH   5   6
HETATM    6  N   UNL     1      -8.883   7.218  71.452  1.00  0.00    -0.130 N  
HETATM    7  C   UNL     1      -8.538   8.555  71.391  1.00  0.00    -0.175 C  
HETATM    8  H   UNL     1      -9.529   6.839  70.760  1.00  0.00     0.000 HD 
HETATM    9  O   UNL     1      -7.753   9.081  72.172  1.00  0.00    -0.351 OA 
BRANCH   7  10
HETATM   10  C   UNL     1      -9.224   9.369  70.344  1.00  0.00    -0.305 A  
HETATM   11  C   UNL     1     -10.583   9.659  70.507  1.00  0.00    -0.369 A  
HETATM   12  C   UNL     1     -11.282  10.358  69.513  1.00  0.00    -0.325 A  
HETATM   13  C   UNL     1     -10.642  10.794  68.345  1.00  0.00    -0.197 A  
HETATM   14  C   UNL     1      -8.559   9.838  69.205  1.00  0.00    -0.158 A  
HETATM   15  C   UNL     1      -9.268  10.533  68.212  1.00  0.00    -0.152 A  
BRANCH  13  16
HETATM   16  N   UNL     1     -11.431  11.402  67.343  1.00  0.00    -0.499 NA 
HETATM   17  H   UNL     1     -11.561  11.009  66.411  1.00  0.00     0.000 HD 
BRANCH  16  18
HETATM   18  N   UNL     1     -11.955  12.472  67.719  1.00  0.00    -0.429 NA 
HETATM   19  H   UNL     1     -12.385  12.598  68.635  1.00  0.00     0.000 HD 
BRANCH  18  20
HETATM   20  C   UNL     1     -11.888  13.488  66.740  1.00  0.00    -0.406 A  
HETATM   21  C   UNL     1     -12.395  13.348  65.439  1.00  0.00    -0.522 A  
HETATM   22  C   UNL     1     -12.227  14.355  64.482  1.00  0.00    -0.483 A  
HETATM   23  C   UNL     1     -11.535  15.518  64.818  1.00  0.00    -0.313 A  
HETATM   24  O   UNL     1     -11.353  16.488  63.867  1.00  0.00    -1.557 OA 
HETATM   25  C   UNL     1     -11.020  15.692  66.110  1.00  0.00    -0.206 A  
HETATM   26  C   UNL     1     -10.261  16.898  66.550  1.00  0.00    -0.318 C  
HETATM   27  C   UNL     1     -11.204  14.668  67.058  1.00  0.00    -0.348 A  
HETATM   28  H   UNL     1     -10.881  17.281  64.095  1.00  0.00     0.000 HD 
HETATM   29  O   UNL     1      -9.831  17.021  67.688  1.00  0.00    -0.247 OA 
HETATM   30  O   UNL     1     -10.072  17.845  65.607  1.00  0.00    -0.567 OA 
ENDBRANCH  18  20
ENDBRANCH  16  18
ENDBRANCH  13  16
ENDBRANCH   7  10
ENDBRANCH   5   6
ENDBRANCH   4   5
TORSDOF 6
ENDMDL
MODEL       23
REMARK 921   NORMALIZED FREE ENERGY PREDICTED BY IDOCK:   -6.85 KCAL/MOL
REMARK 922        TOTAL FREE ENERGY PREDICTED BY IDOCK:  -10.23 KCAL/MOL
REMARK 923 INTER-LIGAND FREE ENERGY PREDICTED BY IDOCK:   -9.29 KCAL/MOL
REMARK 924 INTRA-LIGAND FREE ENERGY PREDICTED BY IDOCK:   -0.94 KCAL/MOL
REMARK 927      BINDING AFFINITY PREDICTED BY RF-SCORE:    0.00 PKD
ROOT
HETATM    1  O   UNL     1      -8.548  18.425  68.256  1.00  0.00    -0.287 OA 
HETATM    2  C   UNL     1      -9.471  19.383  68.027  1.00  0.00    -0.339 C  
HETATM    3  O   UNL     1     -10.189  19.830  68.910  1.00  0.00    -0.443 OA 
HETATM    4  C   UNL     1      -9.533  19.848  66.598  1.00  0.00    -0.513 C  
ENDROOT
BRANCH   4   5
HETATM    5  C   UNL     1     -10.475  18.984  65.778  1.00  0.00    -0.309 C  
BRANCH   5   6
HETATM    6  N   UNL     1     -10.477  17.598  66.200  1.00  0.00    -0.343 N  
HETATM    7  C   UNL     1     -10.910  16.586  65.364  1.00  0.00    -0.206 C  
HETATM    8  H   UNL     1     -10.149  17.363  67.137  1.00  0.00     0.000 HD 
HETATM    9  O   UNL     1     -11.298  16.784  64.218  1.00  0.00    -1.170 OA 
BRANCH   7  10
HETATM   10  C   UNL     1     -10.944  15.213  65.948  1.00  0.00    -0.339 A  
HETATM   11  C   UNL     1     -11.712  14.233  65.309  1.00  0.00    -0.357 A  
HETATM   12  C   UNL     1     -11.830  12.952  65.864  1.00  0.00    -0.476 A  
HETATM   13  C   UNL     1     -11.176  12.614  67.056  1.00  0.00    -0.300 A  
HETATM   14  C   UNL     1     -10.246  14.877  67.114  1.00  0.00    -0.245 A  
HETATM   15  C   UNL     1     -10.373  13.593  67.666  1.00  0.00    -0.239 A  
BRANCH  13  16
HETATM   16  N   UNL     1     -11.421  11.337  67.609  1.00  0.00    -0.482 NA 
HETATM   17  H   UNL     1     -10.990  10.479  67.263  1.00  0.00     0.000 HD 
BRANCH  16  18
HETATM   18  N   UNL     1     -12.222  11.367  68.567  1.00  0.00    -0.520 NA 
HETATM   19  H   UNL     1     -13.074  11.929  68.572  1.00  0.00     0.000 HD 
BRANCH  18  20
HETATM   20  C   UNL     1     -11.823  10.543  69.642  1.00  0.00    -0.234 A  
HETATM   21  C   UNL     1     -12.620  10.299  70.771  1.00  0.00    -0.442 A  
HETATM   22  C   UNL     1     -12.142   9.542  71.847  1.00  0.00    -0.409 A  
HETATM   23  C   UNL     1     -10.847   9.027  71.808  1.00  0.00    -0.367 A  
HETATM   24  O   UNL     1     -10.379   8.309  72.877  1.00  0.00    -0.302 OA 
HETATM   25  C   UNL     1     -10.026   9.249  70.693  1.00  0.00    -0.336 A  
HETATM   26  C   UNL     1      -8.628   8.744  70.573  1.00  0.00    -0.169 C  
HETATM   27  C   UNL     1     -10.529  10.009  69.620  1.00  0.00    -0.275 A  
HETATM   28  H   UNL     1      -9.495   7.959  72.851  1.00  0.00     0.000 HD 
HETATM   29  O   UNL     1      -7.941   8.949  69.583  1.00  0.00    -0.086 OA 
HETATM   30  O   UNL     1      -8.167   8.049  71.634  1.00  0.00    -0.103 OA 
ENDBRANCH  18  20
ENDBRANCH  16  18
ENDBRANCH  13  16
ENDBRANCH   7  10
ENDBRANCH   5   6
ENDBRANCH   4   5
TORSDOF 6
ENDMDL
MODEL       24
REMARK 921   NORMALIZED FREE ENERGY PREDICTED BY IDOCK:   -6.85 KCAL/MOL
REMARK 922        TOTAL FREE ENERGY PREDICTED BY IDOCK:  -10.23 KCAL/MOL
REMARK 923 INTER-LIGAND FREE ENERGY PREDICTED BY IDOCK:   -9.06 KCAL/MOL
REMARK 924 INTRA-LIGAND FREE ENERGY PREDICTED BY IDOCK:   -1.17 KCAL/MOL
REMARK 927      BINDING AFFINITY PREDICTED BY RF-SCORE:    0.00 PKD
ROOT
HETATM    1  O   UNL     1     -13.371  11.775  63.498  1.00  0.00    -0.518 OA 
HETATM    2  C   UNL     1     -12.106  12.221  63.652  1.00  0.00    -0.554 C  
HETATM    3  O   UNL     1     -11.190  11.493  64.009  1.00  0.00    -0.369 OA 
HETATM    4  C   UNL     1     -11.929  13.683  63.346  1.00  0.00    -0.202 C  
ENDROOT
BRANCH   4   5
HETATM    5  C   UNL     1     -12.199  14.539  64.571  1.00  0.00    -0.465 C  
BRANCH   5   6
HETATM    6  N   UNL     1     -12.272  13.764  65.793  1.00  0.00    -0.431 N  
HETATM    7  C   UNL     1     -11.657  14.185  66.956  1.00  0.00    -0.382 C  
HETATM    8  H   UNL     1     -12.791  12.886  65.794  1.00  0.00     0.000 HD 
HETATM    9  O   UNL     1     -11.034  15.237  67.042  1.00  0.00    -0.322 OA 
BRANCH   7  10
HETATM   10  C   UNL     1     -11.734  13.255  68.121  1.00  0.00    -0.397 A  
HETATM   11  C   UNL     1     -11.587  11.882  67.891  1.00  0.00    -0.393 A  
HETATM   12  C   UNL     1     -11.725  10.969  68.946  1.00  0.00    -0.400 A  
HETATM   13  C   UNL     1     -11.998  11.402  70.250  1.00  0.00    -0.373 A  
HETATM   14  C   UNL     1     -11.960  13.706  69.426  1.00  0.00    -0.394 A  
HETATM   15  C   UNL     1     -12.103  12.784  70.476  1.00  0.00    -0.369 A  
BRANCH  13  16
HETATM   16  N   UNL     1     -12.224  10.420  71.241  1.00  0.00    -0.380 NA 
HETATM   17  H   UNL     1     -12.096  10.586  72.240  1.00  0.00     0.000 HD 
BRANCH  16  18
HETATM   18  N   UNL     1     -12.599   9.327  70.767  1.00  0.00    -0.507 NA 
HETATM   19  H   UNL     1     -13.330   9.239  70.061  1.00  0.00     0.000 HD 
BRANCH  18  20
HETATM   20  C   UNL     1     -11.901   8.225  71.311  1.00  0.00    -0.288 A  
HETATM   21  C   UNL     1     -11.527   8.133  72.660  1.00  0.00    -0.454 A  
HETATM   22  C   UNL     1     -10.763   7.058  73.129  1.00  0.00    -0.359 A  
HETATM   23  C   UNL     1     -10.352   6.064  72.242  1.00  0.00    -0.192 A  
HETATM   24  O   UNL     1      -9.582   5.028  72.705  1.00  0.00    -0.141 OA 
HETATM   25  C   UNL     1     -10.712   6.124  70.889  1.00  0.00    -0.316 A  
HETATM   26  C   UNL     1     -10.309   5.110  69.872  1.00  0.00    -0.277 C  
HETATM   27  C   UNL     1     -11.485   7.212  70.440  1.00  0.00    -0.317 A  
HETATM   28  H   UNL     1      -9.302   4.351  72.101  1.00  0.00     0.000 HD 
HETATM   29  O   UNL     1     -10.647   5.189  68.700  1.00  0.00    -0.098 OA 
HETATM   30  O   UNL     1      -9.540   4.100  70.330  1.00  0.00    -0.164 OA 
ENDBRANCH  18  20
ENDBRANCH  16  18
ENDBRANCH  13  16
ENDBRANCH   7  10
ENDBRANCH   5   6
ENDBRANCH   4   5
TORSDOF 6
ENDMDL
MODEL       25
REMARK 921   NORMALIZED FREE ENERGY PREDICTED BY IDOCK:   -6.83 KCAL/MOL
REMARK 922        TOTAL FREE ENERGY PREDICTED BY IDOCK:  -10.22 KCAL/MOL
REMARK 923 INTER-LIGAND FREE ENERGY PREDICTED BY IDOCK:   -8.98 KCAL/MOL
REMARK 924 INTRA-LIGAND FREE ENERGY PREDICTED BY IDOCK:   -1.24 KCAL/MOL
REMARK 927      BINDING AFFINITY PREDICTED BY RF-SCORE:    0.00 PKD
ROOT
HETATM    1  O   UNL     1     -11.878  16.587  72.719  1.00  0.00    -0.539 OA 
HETATM    2  C   UNL     1     -12.782  15.847  73.396  1.00  0.00    -0.562 C  
HETATM    3  O   UNL     1     -12.503  15.245  74.423  1.00  0.00    -0.589 OA 
HETATM    4  C   UNL     1     -14.151  15.832  72.775  1.00  0.00    -0.425 C  
ENDROOT
BRANCH   4   5
HETATM    5  C   UNL     1     -14.275  14.728  71.740  1.00  0.00    -0.541 C  
BRANCH   5   6
HETATM    6  N   UNL     1     -13.385  14.913  70.612  1.00  0.00    -0.633 N  
HETATM    7  C   UNL     1     -12.494  13.932  70.223  1.00  0.00    -0.314 C  
HETATM    8  H   UNL     1     -13.418  15.790  70.091  1.00  0.00     0.000 HD 
HETATM    9  O   UNL     1     -12.408  12.845  70.783  1.00  0.00    -0.368 OA 
BRANCH   7  10
HETATM   10  C   UNL     1     -11.573  14.280  69.101  1.00  0.00    -0.346 A  
HETATM   11  C   UNL     1     -10.578  13.363  68.743  1.00  0.00    -0.230 A  
HETATM   12  C   UNL     1      -9.647  13.681  67.745  1.00  0.00    -0.224 A  
HETATM   13  C   UNL     1      -9.694  14.910  67.073  1.00  0.00    -0.235 A  
HETATM   14  C   UNL     1     -11.662  15.492  68.407  1.00  0.00    -0.323 A  
HETATM   15  C   UNL     1     -10.723  15.805  67.412  1.00  0.00    -0.317 A  
BRANCH  13  16
HETATM   16  N   UNL     1      -8.664  15.202  66.151  1.00  0.00    -0.441 NA 
HETATM   17  H   UNL     1      -8.831  15.411  65.166  1.00  0.00     0.000 HD 
BRANCH  16  18
HETATM   18  N   UNL     1      -7.528  15.179  66.669  1.00  0.00    -0.234 NA 
HETATM   19  H   UNL     1      -6.898  14.378  66.614  1.00  0.00     0.000 HD 
BRANCH  18  20
HETATM   20  C   UNL     1      -7.206  16.381  67.339  1.00  0.00    -0.160 A  
HETATM   21  C   UNL     1      -6.847  16.442  68.694  1.00  0.00    -0.152 A  
HETATM   22  C   UNL     1      -6.621  17.668  69.330  1.00  0.00    -0.233 A  
HETATM   23  C   UNL     1      -6.765  18.855  68.612  1.00  0.00    -0.270 A  
HETATM   24  O   UNL     1      -6.567  20.052  69.251  1.00  0.00    -0.323 OA 
HETATM   25  C   UNL     1      -7.119  18.829  67.257  1.00  0.00    -0.211 A  
HETATM   26  C   UNL     1      -7.303  20.049  66.419  1.00  0.00    -0.275 C  
HETATM   27  C   UNL     1      -7.337  17.584  66.635  1.00  0.00    -0.273 A  
HETATM   28  H   UNL     1      -6.666  20.861  68.762  1.00  0.00     0.000 HD 
HETATM   29  O   UNL     1      -7.605  19.991  65.235  1.00  0.00    -0.317 OA 
HETATM   30  O   UNL     1      -7.120  21.226  67.054  1.00  0.00    -0.448 OA 
ENDBRANCH  18  20
ENDBRANCH  16  18
ENDBRANCH  13  16
ENDBRANCH   7  10
ENDBRANCH   5   6
ENDBRANCH   4   5
TORSDOF 6
ENDMDL
MODEL       26
REMARK 921   NORMALIZED FREE ENERGY PREDICTED BY IDOCK:   -6.80 KCAL/MOL
REMARK 922        TOTAL FREE ENERGY PREDICTED BY IDOCK:  -10.18 KCAL/MOL
REMARK 923 INTER-LIGAND FREE ENERGY PREDICTED BY IDOCK:   -9.06 KCAL/MOL
REMARK 924 INTRA-LIGAND FREE ENERGY PREDICTED BY IDOCK:   -1.12 KCAL/MOL
REMARK 927      BINDING AFFINITY PREDICTED BY RF-SCORE:    0.00 PKD
ROOT
HETATM    1  O   UNL     1     -14.254   7.898  71.636  1.00  0.00    -0.413 OA 
HETATM    2  C   UNL     1     -13.023   7.967  72.186  1.00  0.00    -0.222 C  
HETATM    3  O   UNL     1     -12.671   8.898  72.897  1.00  0.00    -0.301 OA 
HETATM    4  C   UNL     1     -12.132   6.804  71.848  1.00  0.00    -0.375 C  
ENDROOT
BRANCH   4   5
HETATM    5  C   UNL     1     -11.380   7.045  70.551  1.00  0.00    -0.312 C  
BRANCH   5   6
HETATM    6  N   UNL     1     -11.684   8.331  69.956  1.00  0.00    -0.400 N  
HETATM    7  C   UNL     1     -10.761   9.359  69.943  1.00  0.00    -0.234 C  
HETATM    8  H   UNL     1     -12.601   8.481  69.536  1.00  0.00     0.000 HD 
HETATM    9  O   UNL     1      -9.631   9.252  70.408  1.00  0.00    -0.207 OA 
BRANCH   7  10
HETATM   10  C   UNL     1     -11.226  10.660  69.379  1.00  0.00    -0.329 A  
HETATM   11  C   UNL     1     -11.065  10.891  68.008  1.00  0.00    -0.351 A  
HETATM   12  C   UNL     1     -11.421  12.127  67.452  1.00  0.00    -0.415 A  
HETATM   13  C   UNL     1     -11.958  13.153  68.242  1.00  0.00    -0.291 A  
HETATM   14  C   UNL     1     -11.804  11.657  70.174  1.00  0.00    -0.428 A  
HETATM   15  C   UNL     1     -12.153  12.894  69.609  1.00  0.00    -0.290 A  
BRANCH  13  16
HETATM   16  N   UNL     1     -12.198  14.404  67.632  1.00  0.00    -0.623 NA 
HETATM   17  H   UNL     1     -12.682  14.513  66.740  1.00  0.00     0.000 HD 
BRANCH  16  18
HETATM   18  N   UNL     1     -11.758  15.363  68.300  1.00  0.00    -0.437 NA 
HETATM   19  H   UNL     1     -12.085  15.596  69.238  1.00  0.00     0.000 HD 
BRANCH  18  20
HETATM   20  C   UNL     1     -10.759  16.093  67.618  1.00  0.00    -0.318 A  
HETATM   21  C   UNL     1      -9.885  15.524  66.679  1.00  0.00    -0.268 A  
HETATM   22  C   UNL     1      -8.858  16.274  66.096  1.00  0.00    -0.362 A  
HETATM   23  C   UNL     1      -8.686  17.609  66.458  1.00  0.00    -0.263 A  
HETATM   24  O   UNL     1      -7.661  18.329  65.900  1.00  0.00    -0.475 OA 
HETATM   25  C   UNL     1      -9.544  18.210  67.389  1.00  0.00    -0.275 A  
HETATM   26  C   UNL     1      -9.427  19.627  67.838  1.00  0.00    -0.349 C  
HETATM   27  C   UNL     1     -10.574  17.438  67.960  1.00  0.00    -0.389 A  
HETATM   28  H   UNL     1      -7.544  19.239  66.147  1.00  0.00     0.000 HD 
HETATM   29  O   UNL     1     -10.197  20.123  68.648  1.00  0.00    -0.403 OA 
HETATM   30  O   UNL     1      -8.408  20.328  67.297  1.00  0.00    -0.329 OA 
ENDBRANCH  18  20
ENDBRANCH  16  18
ENDBRANCH  13  16
ENDBRANCH   7  10
ENDBRANCH   5   6
ENDBRANCH   4   5
TORSDOF 6
ENDMDL
MODEL       27
REMARK 921   NORMALIZED FREE ENERGY PREDICTED BY IDOCK:   -6.80 KCAL/MOL
REMARK 922        TOTAL FREE ENERGY PREDICTED BY IDOCK:  -10.17 KCAL/MOL
REMARK 923 INTER-LIGAND FREE ENERGY PREDICTED BY IDOCK:   -9.02 KCAL/MOL
REMARK 924 INTRA-LIGAND FREE ENERGY PREDICTED BY IDOCK:   -1.14 KCAL/MOL
REMARK 927      BINDING AFFINITY PREDICTED BY RF-SCORE:    0.00 PKD
ROOT
HETATM    1  O   UNL     1     -13.159  14.026  64.947  1.00  0.00    -0.693 OA 
HETATM    2  C   UNL     1     -11.896  14.144  64.485  1.00  0.00    -0.436 C  
HETATM    3  O   UNL     1     -11.319  13.233  63.907  1.00  0.00    -0.381 OA 
HETATM    4  C   UNL     1     -11.269  15.486  64.743  1.00  0.00    -0.399 C  
ENDROOT
BRANCH   4   5
HETATM    5  C   UNL     1     -10.595  15.527  66.103  1.00  0.00    -0.315 C  
BRANCH   5   6
HETATM    6  N   UNL     1     -11.005  14.438  66.966  1.00  0.00    -0.298 N  
HETATM    7  C   UNL     1     -11.636  14.670  68.173  1.00  0.00    -0.335 C  
HETATM    8  H   UNL     1     -10.823  13.477  66.676  1.00  0.00     0.000 HD 
HETATM    9  O   UNL     1     -11.908  15.793  68.583  1.00  0.00    -0.385 OA 
BRANCH   7  10
HETATM   10  C   UNL     1     -11.929  13.468  69.009  1.00  0.00    -0.376 A  
HETATM   11  C   UNL     1     -12.377  13.659  70.321  1.00  0.00    -0.392 A  
HETATM   12  C   UNL     1     -12.593  12.559  71.162  1.00  0.00    -0.349 A  
HETATM   13  C   UNL     1     -12.382  11.248  70.714  1.00  0.00    -0.398 A  
HETATM   14  C   UNL     1     -11.758  12.163  68.531  1.00  0.00    -0.382 A  
HETATM   15  C   UNL     1     -11.972  11.068  69.382  1.00  0.00    -0.408 A  
BRANCH  13  16
HETATM   16  N   UNL     1     -12.522  10.196  71.647  1.00  0.00    -0.408 NA 
HETATM   17  H   UNL     1     -12.362  10.306  72.649  1.00  0.00     0.000 HD 
BRANCH  16  18
HETATM   18  N   UNL     1     -12.863   9.118  71.117  1.00  0.00    -0.491 NA 
HETATM   19  H   UNL     1     -13.659   9.027  70.485  1.00  0.00     0.000 HD 
BRANCH  18  20
HETATM   20  C   UNL     1     -12.031   8.038  71.486  1.00  0.00    -0.297 A  
HETATM   21  C   UNL     1     -11.536   7.848  72.785  1.00  0.00    -0.428 A  
HETATM   22  C   UNL     1     -10.646   6.808  73.078  1.00  0.00    -0.295 A  
HETATM   23  C   UNL     1     -10.230   5.949  72.062  1.00  0.00    -0.197 A  
HETATM   24  O   UNL     1      -9.338   4.949  72.353  1.00  0.00    -0.131 OA 
HETATM   25  C   UNL     1     -10.709   6.108  70.754  1.00  0.00    -0.326 A  
HETATM   26  C   UNL     1     -10.310   5.241  69.608  1.00  0.00    -0.278 C  
HETATM   27  C   UNL     1     -11.607   7.158  70.483  1.00  0.00    -0.331 A  
HETATM   28  H   UNL     1      -9.055   4.363  71.660  1.00  0.00     0.000 HD 
HETATM   29  O   UNL     1     -10.753   5.403  68.480  1.00  0.00    -0.143 OA 
HETATM   30  O   UNL     1      -9.422   4.267  69.896  1.00  0.00    -0.151 OA 
ENDBRANCH  18  20
ENDBRANCH  16  18
ENDBRANCH  13  16
ENDBRANCH   7  10
ENDBRANCH   5   6
ENDBRANCH   4   5
TORSDOF 6
ENDMDL
MODEL       28
REMARK 921   NORMALIZED FREE ENERGY PREDICTED BY IDOCK:   -6.79 KCAL/MOL
REMARK 922        TOTAL FREE ENERGY PREDICTED BY IDOCK:  -10.16 KCAL/MOL
REMARK 923 INTER-LIGAND FREE ENERGY PREDICTED BY IDOCK:   -9.37 KCAL/MOL
REMARK 924 INTRA-LIGAND FREE ENERGY PREDICTED BY IDOCK:   -0.79 KCAL/MOL
REMARK 927      BINDING AFFINITY PREDICTED BY RF-SCORE:    0.00 PKD
ROOT
HETATM    1  O   UNL     1     -13.376  13.931  65.183  1.00  0.00    -0.698 OA 
HETATM    2  C   UNL     1     -12.247  13.422  65.720  1.00  0.00    -0.458 C  
HETATM    3  O   UNL     1     -11.959  12.236  65.646  1.00  0.00    -0.487 OA 
HETATM    4  C   UNL     1     -11.382  14.441  66.411  1.00  0.00    -0.351 C  
ENDROOT
BRANCH   4   5
HETATM    5  C   UNL     1     -11.791  14.616  67.863  1.00  0.00    -0.320 C  
BRANCH   5   6
HETATM    6  N   UNL     1     -11.941  13.355  68.561  1.00  0.00    -0.355 N  
HETATM    7  C   UNL     1     -12.151  13.303  69.925  1.00  0.00    -0.308 C  
HETATM    8  H   UNL     1     -11.891  12.485  68.031  1.00  0.00     0.000 HD 
HETATM    9  O   UNL     1     -12.244  14.303  70.628  1.00  0.00    -0.310 OA 
BRANCH   7  10
HETATM   10  C   UNL     1     -12.201  11.942  70.537  1.00  0.00    -0.426 A  
HETATM   11  C   UNL     1     -13.173  11.681  71.509  1.00  0.00    -0.301 A  
HETATM   12  C   UNL     1     -13.208  10.440  72.159  1.00  0.00    -0.418 A  
HETATM   13  C   UNL     1     -12.288   9.430  71.848  1.00  0.00    -0.375 A  
HETATM   14  C   UNL     1     -11.304  10.928  70.181  1.00  0.00    -0.367 A  
HETATM   15  C   UNL     1     -11.343   9.690  70.842  1.00  0.00    -0.431 A  
BRANCH  13  16
HETATM   16  N   UNL     1     -12.320   8.243  72.615  1.00  0.00    -0.592 NA 
HETATM   17  H   UNL     1     -11.958   8.177  73.567  1.00  0.00     0.000 HD 
BRANCH  16  18
HETATM   18  N   UNL     1     -12.838   7.284  72.006  1.00  0.00    -0.508 NA 
HETATM   19  H   UNL     1     -13.845   7.168  71.889  1.00  0.00     0.000 HD 
BRANCH  18  20
HETATM   20  C   UNL     1     -11.883   6.377  71.497  1.00  0.00    -0.298 A  
HETATM   21  C   UNL     1     -11.091   5.548  72.306  1.00  0.00    -0.297 A  
HETATM   22  C   UNL     1     -10.099   4.729  71.754  1.00  0.00    -0.261 A  
HETATM   23  C   UNL     1      -9.880   4.741  70.377  1.00  0.00    -0.239 A  
HETATM   24  O   UNL     1      -8.889   3.955  69.849  1.00  0.00    -0.075 OA 
HETATM   25  C   UNL     1     -10.656   5.555  69.541  1.00  0.00    -0.366 A  
HETATM   26  C   UNL     1     -10.484   5.636  68.062  1.00  0.00    -0.200 C  
HETATM   27  C   UNL     1     -11.652   6.368  70.116  1.00  0.00    -0.449 A  
HETATM   28  H   UNL     1      -8.740   3.964  68.910  1.00  0.00     0.000 HD 
HETATM   29  O   UNL     1     -11.183   6.351  67.359  1.00  0.00    -0.352 OA 
HETATM   30  O   UNL     1      -9.498   4.870  67.547  1.00  0.00    -0.127 OA 
ENDBRANCH  18  20
ENDBRANCH  16  18
ENDBRANCH  13  16
ENDBRANCH   7  10
ENDBRANCH   5   6
ENDBRANCH   4   5
TORSDOF 6
ENDMDL
MODEL       29
REMARK 921   NORMALIZED FREE ENERGY PREDICTED BY IDOCK:   -6.76 KCAL/MOL
REMARK 922        TOTAL FREE ENERGY PREDICTED BY IDOCK:  -10.12 KCAL/MOL
REMARK 923 INTER-LIGAND FREE ENERGY PREDICTED BY IDOCK:   -9.21 KCAL/MOL
REMARK 924 INTRA-LIGAND FREE ENERGY PREDICTED BY IDOCK:   -0.91 KCAL/MOL
REMARK 927      BINDING AFFINITY PREDICTED BY RF-SCORE:    0.00 PKD
ROOT
HETATM    1  O   UNL     1      -9.097   7.916  73.969  1.00  0.00    -0.255 OA 
HETATM    2  C   UNL     1      -9.204   6.593  74.217  1.00  0.00    -0.204 C  
HETATM    3  O   UNL     1      -8.234   5.889  74.462  1.00  0.00    -0.111 OA 
HETATM    4  C   UNL     1     -10.613   6.070  74.164  1.00  0.00    -0.152 C  
ENDROOT
BRANCH   4   5
HETATM    5  C   UNL     1     -10.997   5.664  72.752  1.00  0.00    -0.276 C  
BRANCH   5   6
HETATM    6  N   UNL     1     -11.229   6.800  71.884  1.00  0.00    -0.250 N  
HETATM    7  C   UNL     1     -10.323   7.160  70.905  1.00  0.00    -0.201 C  
HETATM    8  H   UNL     1     -12.081   7.348  71.999  1.00  0.00     0.000 HD 
HETATM    9  O   UNL     1      -9.286   6.542  70.690  1.00  0.00    -0.161 OA 
BRANCH   7  10
HETATM   10  C   UNL     1     -10.636   8.401  70.136  1.00  0.00    -0.235 A  
HETATM   11  C   UNL     1     -11.075   9.530  70.838  1.00  0.00    -0.406 A  
HETATM   12  C   UNL     1     -11.449  10.691  70.148  1.00  0.00    -0.411 A  
HETATM   13  C   UNL     1     -11.381  10.759  68.750  1.00  0.00    -0.288 A  
HETATM   14  C   UNL     1     -10.517   8.469  68.743  1.00  0.00    -0.208 A  
HETATM   15  C   UNL     1     -10.899   9.635  68.060  1.00  0.00    -0.250 A  
BRANCH  13  16
HETATM   16  N   UNL     1     -11.870  11.925  68.118  1.00  0.00    -0.497 NA 
HETATM   17  H   UNL     1     -12.131  12.773  68.622  1.00  0.00     0.000 HD 
BRANCH  16  18
HETATM   18  N   UNL     1     -11.948  11.809  66.877  1.00  0.00    -0.561 NA 
HETATM   19  H   UNL     1     -12.082  10.916  66.401  1.00  0.00     0.000 HD 
BRANCH  18  20
HETATM   20  C   UNL     1     -11.831  13.044  66.202  1.00  0.00    -0.409 A  
HETATM   21  C   UNL     1     -12.610  13.398  65.090  1.00  0.00    -0.495 A  
HETATM   22  C   UNL     1     -12.395  14.601  64.406  1.00  0.00    -0.420 A  
HETATM   23  C   UNL     1     -11.382  15.462  64.826  1.00  0.00    -0.376 A  
HETATM   24  O   UNL     1     -11.162  16.625  64.134  1.00  0.00    -1.410 OA 
HETATM   25  C   UNL     1     -10.588  15.140  65.936  1.00  0.00    -0.347 A  
HETATM   26  C   UNL     1      -9.480  15.998  66.446  1.00  0.00    -0.293 C  
HETATM   27  C   UNL     1     -10.825  13.928  66.611  1.00  0.00    -0.289 A  
HETATM   28  H   UNL     1     -10.471  17.212  64.420  1.00  0.00     0.000 HD 
HETATM   29  O   UNL     1      -8.811  15.691  67.422  1.00  0.00    -0.181 OA 
HETATM   30  O   UNL     1      -9.258  17.135  65.754  1.00  0.00    -0.524 OA 
ENDBRANCH  18  20
ENDBRANCH  16  18
ENDBRANCH  13  16
ENDBRANCH   7  10
ENDBRANCH   5   6
ENDBRANCH   4   5
TORSDOF 6
ENDMDL
MODEL       30
REMARK 921   NORMALIZED FREE ENERGY PREDICTED BY IDOCK:   -6.73 KCAL/MOL
REMARK 922        TOTAL FREE ENERGY PREDICTED BY IDOCK:  -10.08 KCAL/MOL
REMARK 923 INTER-LIGAND FREE ENERGY PREDICTED BY IDOCK:   -8.98 KCAL/MOL
REMARK 924 INTRA-LIGAND FREE ENERGY PREDICTED BY IDOCK:   -1.10 KCAL/MOL
REMARK 927      BINDING AFFINITY PREDICTED BY RF-SCORE:    0.00 PKD
ROOT
HETATM    1  O   UNL     1     -12.369  14.743  74.280  1.00  0.00    -0.535 OA 
HETATM    2  C   UNL     1     -13.029  14.645  73.106  1.00  0.00    -0.500 C  
HETATM    3  O   UNL     1     -13.670  13.651  72.792  1.00  0.00    -0.707 OA 
HETATM    4  C   UNL     1     -12.907  15.860  72.229  1.00  0.00    -0.503 C  
ENDROOT
BRANCH   4   5
HETATM    5  C   UNL     1     -11.673  15.780  71.347  1.00  0.00    -0.445 C  
BRANCH   5   6
HETATM    6  N   UNL     1     -11.491  14.472  70.753  1.00  0.00    -0.491 N  
HETATM    7  C   UNL     1     -11.675  14.258  69.400  1.00  0.00    -0.316 C  
HETATM    8  H   UNL     1     -11.221  13.688  71.348  1.00  0.00     0.000 HD 
HETATM    9  O   UNL     1     -11.979  15.150  68.616  1.00  0.00    -0.315 OA 
BRANCH   7  10
HETATM   10  C   UNL     1     -11.542  12.848  68.928  1.00  0.00    -0.360 A  
HETATM   11  C   UNL     1     -12.077  11.825  69.718  1.00  0.00    -0.338 A  
HETATM   12  C   UNL     1     -11.910  10.483  69.348  1.00  0.00    -0.271 A  
HETATM   13  C   UNL     1     -11.222  10.133  68.179  1.00  0.00    -0.180 A  
HETATM   14  C   UNL     1     -10.892  12.517  67.733  1.00  0.00    -0.254 A  
HETATM   15  C   UNL     1     -10.725  11.170  67.372  1.00  0.00    -0.294 A  
BRANCH  13  16
HETATM   16  N   UNL     1     -11.005   8.760  67.923  1.00  0.00    -0.491 NA 
HETATM   17  H   UNL     1     -11.615   8.193  67.333  1.00  0.00     0.000 HD 
BRANCH  16  18
HETATM   18  N   UNL     1      -9.988   8.313  68.493  1.00  0.00    -0.185 NA 
HETATM   19  H   UNL     1      -9.043   8.414  68.123  1.00  0.00     0.000 HD 
BRANCH  18  20
HETATM   20  C   UNL     1     -10.285   7.653  69.706  1.00  0.00    -0.210 A  
HETATM   21  C   UNL     1     -11.353   6.755  69.861  1.00  0.00    -0.374 A  
HETATM   22  C   UNL     1     -11.654   6.194  71.107  1.00  0.00    -0.269 A  
HETATM   23  C   UNL     1     -10.891   6.538  72.222  1.00  0.00    -0.232 A  
HETATM   24  O   UNL     1     -11.210   6.003  73.443  1.00  0.00    -0.455 OA 
HETATM   25  C   UNL     1      -9.816   7.428  72.101  1.00  0.00    -0.205 A  
HETATM   26  C   UNL     1      -8.955   7.856  73.242  1.00  0.00    -0.264 C  
HETATM   27  C   UNL     1      -9.527   7.978  70.838  1.00  0.00    -0.178 A  
HETATM   28  H   UNL     1     -10.690   6.237  74.203  1.00  0.00     0.000 HD 
HETATM   29  O   UNL     1      -8.019   8.630  73.101  1.00  0.00    -0.392 OA 
HETATM   30  O   UNL     1      -9.281   7.338  74.445  1.00  0.00    -0.217 OA 
ENDBRANCH  18  20
ENDBRANCH  16  18
ENDBRANCH  13  16
ENDBRANCH   7  10
ENDBRANCH   5   6
ENDBRANCH   4   5
TORSDOF 6
ENDMDL
MODEL       31
REMARK 921   NORMALIZED FREE ENERGY PREDICTED BY IDOCK:   -6.73 KCAL/MOL
REMARK 922        TOTAL FREE ENERGY PREDICTED BY IDOCK:  -10.08 KCAL/MOL
REMARK 923 INTER-LIGAND FREE ENERGY PREDICTED BY IDOCK:   -9.46 KCAL/MOL
REMARK 924 INTRA-LIGAND FREE ENERGY PREDICTED BY IDOCK:   -0.62 KCAL/MOL
REMARK 927      BINDING AFFINITY PREDICTED BY RF-SCORE:    0.00 PKD
ROOT
HETATM    1  O   UNL     1     -12.188  15.972  63.877  1.00  0.00    -0.883 OA 
HETATM    2  C   UNL     1     -12.010  14.751  64.426  1.00  0.00    -0.417 C  
HETATM    3  O   UNL     1     -12.772  13.818  64.216  1.00  0.00    -0.659 OA 
HETATM    4  C   UNL     1     -10.798  14.646  65.310  1.00  0.00    -0.387 C  
ENDROOT
BRANCH   4   5
HETATM    5  C   UNL     1     -11.121  15.052  66.737  1.00  0.00    -0.326 C  
BRANCH   5   6
HETATM    6  N   UNL     1     -11.342  13.916  67.608  1.00  0.00    -0.295 N  
HETATM    7  C   UNL     1     -11.819  14.073  68.896  1.00  0.00    -0.355 C  
HETATM    8  H   UNL     1     -11.141  12.978  67.263  1.00  0.00     0.000 HD 
HETATM    9  O   UNL     1     -12.103  15.163  69.377  1.00  0.00    -0.302 OA 
BRANCH   7  10
HETATM   10  C   UNL     1     -11.920  12.832  69.720  1.00  0.00    -0.362 A  
HETATM   11  C   UNL     1     -11.261  11.679  69.278  1.00  0.00    -0.328 A  
HETATM   12  C   UNL     1     -11.390  10.475  69.983  1.00  0.00    -0.392 A  
HETATM   13  C   UNL     1     -12.164  10.395  71.149  1.00  0.00    -0.394 A  
HETATM   14  C   UNL     1     -12.658  12.781  70.908  1.00  0.00    -0.342 A  
HETATM   15  C   UNL     1     -12.787  11.569  71.605  1.00  0.00    -0.475 A  
BRANCH  13  16
HETATM   16  N   UNL     1     -12.331   9.127  71.750  1.00  0.00    -0.347 NA 
HETATM   17  H   UNL     1     -12.172   8.948  72.741  1.00  0.00     0.000 HD 
BRANCH  16  18
HETATM   18  N   UNL     1     -12.693   8.249  70.939  1.00  0.00    -0.500 NA 
HETATM   19  H   UNL     1     -13.547   8.311  70.383  1.00  0.00     0.000 HD 
BRANCH  18  20
HETATM   20  C   UNL     1     -11.796   7.160  70.873  1.00  0.00    -0.339 A  
HETATM   21  C   UNL     1     -11.280   6.651  69.671  1.00  0.00    -0.397 A  
HETATM   22  C   UNL     1     -10.461   5.516  69.657  1.00  0.00    -0.379 A  
HETATM   23  C   UNL     1     -10.157   4.868  70.853  1.00  0.00    -0.222 A  
HETATM   24  O   UNL     1      -9.375   3.742  70.826  1.00  0.00    -0.119 OA 
HETATM   25  C   UNL     1     -10.653   5.353  72.071  1.00  0.00    -0.284 A  
HETATM   26  C   UNL     1     -10.386   4.717  73.393  1.00  0.00    -0.190 C  
HETATM   27  C   UNL     1     -11.471   6.499  72.063  1.00  0.00    -0.342 A  
HETATM   28  H   UNL     1      -9.169   3.300  71.642  1.00  0.00     0.000 HD 
HETATM   29  O   UNL     1     -10.828   5.170  74.439  1.00  0.00    -0.323 OA 
HETATM   30  O   UNL     1      -9.626   3.601  73.360  1.00  0.00    -0.106 OA 
ENDBRANCH  18  20
ENDBRANCH  16  18
ENDBRANCH  13  16
ENDBRANCH   7  10
ENDBRANCH   5   6
ENDBRANCH   4   5
TORSDOF 6
ENDMDL
MODEL       32
REMARK 921   NORMALIZED FREE ENERGY PREDICTED BY IDOCK:   -6.70 KCAL/MOL
REMARK 922        TOTAL FREE ENERGY PREDICTED BY IDOCK:  -10.04 KCAL/MOL
REMARK 923 INTER-LIGAND FREE ENERGY PREDICTED BY IDOCK:   -9.03 KCAL/MOL
REMARK 924 INTRA-LIGAND FREE ENERGY PREDICTED BY IDOCK:   -1.01 KCAL/MOL
REMARK 927      BINDING AFFINITY PREDICTED BY RF-SCORE:    0.00 PKD
ROOT
HETATM    1  O   UNL     1     -12.179   5.694  72.637  1.00  0.00    -0.163 OA 
HETATM    2  C   UNL     1     -10.864   5.632  72.938  1.00  0.00    -0.264 C  
HETATM    3  O   UNL     1     -10.346   6.355  73.777  1.00  0.00    -0.256 OA 
HETATM    4  C   UNL     1     -10.104   4.598  72.154  1.00  0.00    -0.256 C  
ENDROOT
BRANCH   4   5
HETATM    5  C   UNL     1      -9.602   5.165  70.837  1.00  0.00    -0.175 C  
BRANCH   5   6
HETATM    6  N   UNL     1      -9.886   6.578  70.689  1.00  0.00    -0.183 N  
HETATM    7  C   UNL     1     -10.699   7.051  69.677  1.00  0.00    -0.241 C  
HETATM    8  H   UNL     1      -9.477   7.240  71.349  1.00  0.00     0.000 HD 
HETATM    9  O   UNL     1     -11.244   6.319  68.858  1.00  0.00    -0.370 OA 
BRANCH   7  10
HETATM   10  C   UNL     1     -10.843   8.534  69.581  1.00  0.00    -0.157 A  
HETATM   11  C   UNL     1     -10.280   9.190  68.480  1.00  0.00    -0.223 A  
HETATM   12  C   UNL     1     -10.328  10.588  68.389  1.00  0.00    -0.199 A  
HETATM   13  C   UNL     1     -10.949  11.360  69.380  1.00  0.00    -0.205 A  
HETATM   14  C   UNL     1     -11.507   9.287  70.555  1.00  0.00    -0.296 A  
HETATM   15  C   UNL     1     -11.547  10.686  70.458  1.00  0.00    -0.444 A  
BRANCH  13  16
HETATM   16  N   UNL     1     -10.871  12.767  69.272  1.00  0.00    -0.443 NA 
HETATM   17  H   UNL     1     -11.608  13.398  69.587  1.00  0.00     0.000 HD 
BRANCH  16  18
HETATM   18  N   UNL     1      -9.805  13.156  68.751  1.00  0.00    -0.420 NA 
HETATM   19  H   UNL     1      -8.881  12.890  69.091  1.00  0.00     0.000 HD 
BRANCH  18  20
HETATM   20  C   UNL     1     -10.015  14.004  67.640  1.00  0.00    -0.237 A  
HETATM   21  C   UNL     1      -9.345  15.223  67.456  1.00  0.00    -0.204 A  
HETATM   22  C   UNL     1      -9.653  16.065  66.382  1.00  0.00    -0.309 A  
HETATM   23  C   UNL     1     -10.651  15.698  65.480  1.00  0.00    -0.404 A  
HETATM   24  O   UNL     1     -10.963  16.541  64.446  1.00  0.00    -1.082 OA 
HETATM   25  C   UNL     1     -11.337  14.485  65.633  1.00  0.00    -0.336 A  
HETATM   26  C   UNL     1     -12.423  14.020  64.723  1.00  0.00    -0.365 C  
HETATM   27  C   UNL     1     -11.008  13.651  66.719  1.00  0.00    -0.297 A  
HETATM   28  H   UNL     1     -11.644  16.291  63.832  1.00  0.00     0.000 HD 
HETATM   29  O   UNL     1     -12.997  12.952  64.880  1.00  0.00    -0.754 OA 
HETATM   30  O   UNL     1     -12.736  14.860  63.713  1.00  0.00    -0.754 OA 
ENDBRANCH  18  20
ENDBRANCH  16  18
ENDBRANCH  13  16
ENDBRANCH   7  10
ENDBRANCH   5   6
ENDBRANCH   4   5
TORSDOF 6
ENDMDL
MODEL       33
REMARK 921   NORMALIZED FREE ENERGY PREDICTED BY IDOCK:   -6.70 KCAL/MOL
REMARK 922        TOTAL FREE ENERGY PREDICTED BY IDOCK:  -10.04 KCAL/MOL
REMARK 923 INTER-LIGAND FREE ENERGY PREDICTED BY IDOCK:   -9.21 KCAL/MOL
REMARK 924 INTRA-LIGAND FREE ENERGY PREDICTED BY IDOCK:   -0.83 KCAL/MOL
REMARK 927      BINDING AFFINITY PREDICTED BY RF-SCORE:    0.00 PKD
ROOT
HETATM    1  O   UNL     1     -11.401  15.332  72.076  1.00  0.00    -0.433 OA 
HETATM    2  C   UNL     1     -12.362  15.510  71.145  1.00  0.00    -0.411 C  
HETATM    3  O   UNL     1     -13.554  15.451  71.410  1.00  0.00    -0.479 OA 
HETATM    4  C   UNL     1     -11.836  15.787  69.763  1.00  0.00    -0.352 C  
ENDROOT
BRANCH   4   5
HETATM    5  C   UNL     1     -11.577  14.497  69.004  1.00  0.00    -0.298 C  
BRANCH   5   6
HETATM    6  N   UNL     1     -11.534  13.335  69.869  1.00  0.00    -0.502 N  
HETATM    7  C   UNL     1     -11.819  12.069  69.394  1.00  0.00    -0.324 C  
HETATM    8  H   UNL     1     -11.288  13.455  70.851  1.00  0.00     0.000 HD 
HETATM    9  O   UNL     1     -12.102  11.839  68.224  1.00  0.00    -0.525 OA 
BRANCH   7  10
HETATM   10  C   UNL     1     -11.825  10.969  70.404  1.00  0.00    -0.460 A  
HETATM   11  C   UNL     1     -10.674  10.188  70.550  1.00  0.00    -0.295 A  
HETATM   12  C   UNL     1     -10.663   9.100  71.433  1.00  0.00    -0.414 A  
HETATM   13  C   UNL     1     -11.790   8.776  72.200  1.00  0.00    -0.366 A  
HETATM   14  C   UNL     1     -12.944  10.687  71.197  1.00  0.00    -0.483 A  
HETATM   15  C   UNL     1     -12.926   9.593  72.076  1.00  0.00    -0.518 A  
BRANCH  13  16
HETATM   16  N   UNL     1     -11.740   7.607  72.993  1.00  0.00    -0.616 NA 
HETATM   17  H   UNL     1     -11.378   7.587  73.946  1.00  0.00     0.000 HD 
BRANCH  16  18
HETATM   18  N   UNL     1     -12.186   6.600  72.403  1.00  0.00    -0.520 NA 
HETATM   19  H   UNL     1     -13.169   6.324  72.421  1.00  0.00     0.000 HD 
BRANCH  18  20
HETATM   20  C   UNL     1     -11.187   5.884  71.709  1.00  0.00    -0.250 A  
HETATM   21  C   UNL     1     -10.183   5.137  72.344  1.00  0.00    -0.249 A  
HETATM   22  C   UNL     1      -9.166   4.515  71.610  1.00  0.00    -0.183 A  
HETATM   23  C   UNL     1      -9.137   4.646  70.222  1.00  0.00    -0.109 A  
HETATM   24  O   UNL     1      -8.123   4.055  69.515  1.00  0.00    -0.055 OA 
HETATM   25  C   UNL     1     -10.127   5.382  69.556  1.00  0.00    -0.310 A  
HETATM   26  C   UNL     1     -10.167   5.580  68.079  1.00  0.00    -0.181 C  
HETATM   27  C   UNL     1     -11.143   5.995  70.314  1.00  0.00    -0.415 A  
HETATM   28  H   UNL     1      -8.103   4.145  68.569  1.00  0.00     0.000 HD 
HETATM   29  O   UNL     1     -11.049   6.222  67.528  1.00  0.00    -0.348 OA 
HETATM   30  O   UNL     1      -9.158   5.007  67.387  1.00  0.00    -0.113 OA 
ENDBRANCH  18  20
ENDBRANCH  16  18
ENDBRANCH  13  16
ENDBRANCH   7  10
ENDBRANCH   5   6
ENDBRANCH   4   5
TORSDOF 6
ENDMDL
MODEL       34
REMARK 921   NORMALIZED FREE ENERGY PREDICTED BY IDOCK:   -6.68 KCAL/MOL
REMARK 922        TOTAL FREE ENERGY PREDICTED BY IDOCK:  -10.01 KCAL/MOL
REMARK 923 INTER-LIGAND FREE ENERGY PREDICTED BY IDOCK:   -9.14 KCAL/MOL
REMARK 924 INTRA-LIGAND FREE ENERGY PREDICTED BY IDOCK:   -0.87 KCAL/MOL
REMARK 927      BINDING AFFINITY PREDICTED BY RF-SCORE:    0.00 PKD
ROOT
HETATM    1  O   UNL     1     -13.469  14.016  65.416  1.00  0.00    -0.679 OA 
HETATM    2  C   UNL     1     -12.343  13.442  65.891  1.00  0.00    -0.437 C  
HETATM    3  O   UNL     1     -12.100  12.252  65.749  1.00  0.00    -0.587 OA 
HETATM    4  C   UNL     1     -11.423  14.393  66.605  1.00  0.00    -0.372 C  
ENDROOT
BRANCH   4   5
HETATM    5  C   UNL     1     -11.783  14.508  68.076  1.00  0.00    -0.342 C  
BRANCH   5   6
HETATM    6  N   UNL     1     -11.982  13.219  68.708  1.00  0.00    -0.328 N  
HETATM    7  C   UNL     1     -12.084  13.093  70.080  1.00  0.00    -0.321 C  
HETATM    8  H   UNL     1     -12.049  12.385  68.125  1.00  0.00     0.000 HD 
HETATM    9  O   UNL     1     -12.034  14.048  70.847  1.00  0.00    -0.324 OA 
BRANCH   7  10
HETATM   10  C   UNL     1     -12.200  11.703  70.611  1.00  0.00    -0.461 A  
HETATM   11  C   UNL     1     -13.156  11.441  71.598  1.00  0.00    -0.498 A  
HETATM   12  C   UNL     1     -13.248  10.167  72.175  1.00  0.00    -0.463 A  
HETATM   13  C   UNL     1     -12.403   9.125  71.774  1.00  0.00    -0.372 A  
HETATM   14  C   UNL     1     -11.379  10.660  70.165  1.00  0.00    -0.402 A  
HETATM   15  C   UNL     1     -11.475   9.389  70.752  1.00  0.00    -0.364 A  
BRANCH  13  16
HETATM   16  N   UNL     1     -12.485   7.898  72.470  1.00  0.00    -0.566 NA 
HETATM   17  H   UNL     1     -13.258   7.241  72.366  1.00  0.00     0.000 HD 
BRANCH  16  18
HETATM   18  N   UNL     1     -11.510   7.701  73.225  1.00  0.00    -0.638 NA 
HETATM   19  H   UNL     1     -11.160   8.395  73.887  1.00  0.00     0.000 HD 
BRANCH  18  20
HETATM   20  C   UNL     1     -10.944   6.417  73.067  1.00  0.00    -0.238 A  
HETATM   21  C   UNL     1     -10.500   5.626  74.139  1.00  0.00    -0.281 A  
HETATM   22  C   UNL     1      -9.868   4.397  73.920  1.00  0.00    -0.169 A  
HETATM   23  C   UNL     1      -9.663   3.948  72.616  1.00  0.00    -0.143 A  
HETATM   24  O   UNL     1      -9.020   2.754  72.412  1.00  0.00    -0.079 OA 
HETATM   25  C   UNL     1     -10.097   4.711  71.524  1.00  0.00    -0.255 A  
HETATM   26  C   UNL     1      -9.910   4.311  70.099  1.00  0.00    -0.201 C  
HETATM   27  C   UNL     1     -10.734   5.943  71.767  1.00  0.00    -0.299 A  
HETATM   28  H   UNL     1      -8.879   2.449  71.523  1.00  0.00     0.000 HD 
HETATM   29  O   UNL     1     -10.308   4.998  69.169  1.00  0.00    -0.193 OA 
HETATM   30  O   UNL     1      -9.265   3.142  69.903  1.00  0.00    -0.122 OA 
ENDBRANCH  18  20
ENDBRANCH  16  18
ENDBRANCH  13  16
ENDBRANCH   7  10
ENDBRANCH   5   6
ENDBRANCH   4   5
TORSDOF 6
ENDMDL
MODEL       35
REMARK 921   NORMALIZED FREE ENERGY PREDICTED BY IDOCK:   -6.66 KCAL/MOL
REMARK 922        TOTAL FREE ENERGY PREDICTED BY IDOCK:   -9.99 KCAL/MOL
REMARK 923 INTER-LIGAND FREE ENERGY PREDICTED BY IDOCK:   -9.07 KCAL/MOL
REMARK 924 INTRA-LIGAND FREE ENERGY PREDICTED BY IDOCK:   -0.92 KCAL/MOL
REMARK 927      BINDING AFFINITY PREDICTED BY RF-SCORE:    0.00 PKD
ROOT
HETATM    1  O   UNL     1      -6.546  19.502  64.370  1.00  0.00    -0.350 OA 
HETATM    2  C   UNL     1      -6.869  19.125  65.626  1.00  0.00    -0.274 C  
HETATM    3  O   UNL     1      -6.525  18.052  66.100  1.00  0.00    -0.199 OA 
HETATM    4  C   UNL     1      -7.683  20.139  66.381  1.00  0.00    -0.301 C  
ENDROOT
BRANCH   4   5
HETATM    5  C   UNL     1      -9.168  19.954  66.126  1.00  0.00    -0.336 C  
BRANCH   5   6
HETATM    6  N   UNL     1      -9.635  18.626  66.467  1.00  0.00    -0.327 N  
HETATM    7  C   UNL     1     -10.177  18.345  67.707  1.00  0.00    -0.385 C  
HETATM    8  H   UNL     1      -9.563  17.880  65.775  1.00  0.00     0.000 HD 
HETATM    9  O   UNL     1     -10.318  19.190  68.584  1.00  0.00    -0.373 OA 
BRANCH   7  10
HETATM   10  C   UNL     1     -10.539  16.920  67.964  1.00  0.00    -0.367 A  
HETATM   11  C   UNL     1     -10.710  16.065  66.869  1.00  0.00    -0.262 A  
HETATM   12  C   UNL     1     -11.121  14.739  67.064  1.00  0.00    -0.333 A  
HETATM   13  C   UNL     1     -11.358  14.233  68.349  1.00  0.00    -0.283 A  
HETATM   14  C   UNL     1     -10.726  16.416  69.257  1.00  0.00    -0.325 A  
HETATM   15  C   UNL     1     -11.143  15.089  69.442  1.00  0.00    -0.290 A  
BRANCH  13  16
HETATM   16  N   UNL     1     -11.867  12.919  68.461  1.00  0.00    -0.323 NA 
HETATM   17  H   UNL     1     -12.762  12.626  68.068  1.00  0.00     0.000 HD 
BRANCH  16  18
HETATM   18  N   UNL     1     -11.107  12.155  69.092  1.00  0.00    -0.335 NA 
HETATM   19  H   UNL     1     -10.101  12.099  68.930  1.00  0.00     0.000 HD 
BRANCH  18  20
HETATM   20  C   UNL     1     -11.788  11.376  70.054  1.00  0.00    -0.359 A  
HETATM   21  C   UNL     1     -12.666  11.912  71.008  1.00  0.00    -0.354 A  
HETATM   22  C   UNL     1     -13.249  11.106  71.992  1.00  0.00    -0.428 A  
HETATM   23  C   UNL     1     -12.946   9.746  72.039  1.00  0.00    -0.423 A  
HETATM   24  O   UNL     1     -13.501   8.969  73.023  1.00  0.00    -0.888 OA 
HETATM   25  C   UNL     1     -12.075   9.178  71.099  1.00  0.00    -0.365 A  
HETATM   26  C   UNL     1     -11.690   7.737  71.083  1.00  0.00    -0.284 C  
HETATM   27  C   UNL     1     -11.504  10.006  70.115  1.00  0.00    -0.344 A  
HETATM   28  H   UNL     1     -13.294   8.042  73.056  1.00  0.00     0.000 HD 
HETATM   29  O   UNL     1     -10.933   7.271  70.243  1.00  0.00    -0.250 OA 
HETATM   30  O   UNL     1     -12.229   6.979  72.061  1.00  0.00    -0.308 OA 
ENDBRANCH  18  20
ENDBRANCH  16  18
ENDBRANCH  13  16
ENDBRANCH   7  10
ENDBRANCH   5   6
ENDBRANCH   4   5
TORSDOF 6
ENDMDL
MODEL       36
REMARK 921   NORMALIZED FREE ENERGY PREDICTED BY IDOCK:   -6.64 KCAL/MOL
REMARK 922        TOTAL FREE ENERGY PREDICTED BY IDOCK:   -9.95 KCAL/MOL
REMARK 923 INTER-LIGAND FREE ENERGY PREDICTED BY IDOCK:   -8.86 KCAL/MOL
REMARK 924 INTRA-LIGAND FREE ENERGY PREDICTED BY IDOCK:   -1.10 KCAL/MOL
REMARK 927      BINDING AFFINITY PREDICTED BY RF-SCORE:    0.00 PKD
ROOT
HETATM    1  O   UNL     1      -8.579   5.477  66.444  1.00  0.00    -0.117 OA 
HETATM    2  C   UNL     1      -9.739   4.848  66.733  1.00  0.00    -0.181 C  
HETATM    3  O   UNL     1     -10.781   5.083  66.137  1.00  0.00    -0.315 OA 
HETATM    4  C   UNL     1      -9.631   3.840  67.844  1.00  0.00    -0.187 C  
ENDROOT
BRANCH   4   5
HETATM    5  C   UNL     1      -9.844   4.490  69.200  1.00  0.00    -0.152 C  
BRANCH   5   6
HETATM    6  N   UNL     1      -9.833   5.938  69.137  1.00  0.00    -0.148 N  
HETATM    7  C   UNL     1     -10.806   6.697  69.758  1.00  0.00    -0.286 C  
HETATM    8  H   UNL     1      -9.089   6.408  68.621  1.00  0.00     0.000 HD 
HETATM    9  O   UNL     1     -11.720   6.210  70.413  1.00  0.00    -0.298 OA 
BRANCH   7  10
HETATM   10  C   UNL     1     -10.731   8.173  69.545  1.00  0.00    -0.180 A  
HETATM   11  C   UNL     1     -11.094   9.020  70.598  1.00  0.00    -0.314 A  
HETATM   12  C   UNL     1     -11.108  10.410  70.416  1.00  0.00    -0.371 A  
HETATM   13  C   UNL     1     -10.749  10.986  69.190  1.00  0.00    -0.234 A  
HETATM   14  C   UNL     1     -10.325   8.734  68.329  1.00  0.00    -0.252 A  
HETATM   15  C   UNL     1     -10.347  10.127  68.154  1.00  0.00    -0.217 A  
BRANCH  13  16
HETATM   16  N   UNL     1     -10.884  12.385  69.049  1.00  0.00    -0.374 NA 
HETATM   17  H   UNL     1     -11.749  12.891  69.245  1.00  0.00     0.000 HD 
BRANCH  16  18
HETATM   18  N   UNL     1      -9.834  12.939  68.662  1.00  0.00    -0.401 NA 
HETATM   19  H   UNL     1      -8.933  12.830  69.128  1.00  0.00     0.000 HD 
BRANCH  18  20
HETATM   20  C   UNL     1     -10.026  13.733  67.509  1.00  0.00    -0.233 A  
HETATM   21  C   UNL     1      -9.301  14.905  67.244  1.00  0.00    -0.210 A  
HETATM   22  C   UNL     1      -9.591  15.700  66.129  1.00  0.00    -0.362 A  
HETATM   23  C   UNL     1     -10.625  15.333  65.269  1.00  0.00    -0.417 A  
HETATM   24  O   UNL     1     -10.918  16.132  64.194  1.00  0.00    -1.061 OA 
HETATM   25  C   UNL     1     -11.366  14.167  65.503  1.00  0.00    -0.319 A  
HETATM   26  C   UNL     1     -12.492  13.707  64.641  1.00  0.00    -0.314 C  
HETATM   27  C   UNL     1     -11.055  13.379  66.628  1.00  0.00    -0.310 A  
HETATM   28  H   UNL     1     -11.623  15.883  63.608  1.00  0.00     0.000 HD 
HETATM   29  O   UNL     1     -13.114  12.679  64.869  1.00  0.00    -0.850 OA 
HETATM   30  O   UNL     1     -12.785  14.504  63.591  1.00  0.00    -0.754 OA 
ENDBRANCH  18  20
ENDBRANCH  16  18
ENDBRANCH  13  16
ENDBRANCH   7  10
ENDBRANCH   5   6
ENDBRANCH   4   5
TORSDOF 6
ENDMDL
MODEL       37
REMARK 921   NORMALIZED FREE ENERGY PREDICTED BY IDOCK:   -6.59 KCAL/MOL
REMARK 922        TOTAL FREE ENERGY PREDICTED BY IDOCK:   -9.88 KCAL/MOL
REMARK 923 INTER-LIGAND FREE ENERGY PREDICTED BY IDOCK:   -8.59 KCAL/MOL
REMARK 924 INTRA-LIGAND FREE ENERGY PREDICTED BY IDOCK:   -1.29 KCAL/MOL
REMARK 927      BINDING AFFINITY PREDICTED BY RF-SCORE:    0.00 PKD
ROOT
HETATM    1  O   UNL     1     -10.822   8.298  66.876  1.00  0.00    -0.228 OA 
HETATM    2  C   UNL     1      -9.479   8.162  66.873  1.00  0.00    -0.191 C  
HETATM    3  O   UNL     1      -8.807   8.243  67.892  1.00  0.00    -0.137 OA 
HETATM    4  C   UNL     1      -8.890   7.905  65.514  1.00  0.00    -0.070 C  
ENDROOT
BRANCH   4   5
HETATM    5  C   UNL     1      -8.590   9.206  64.788  1.00  0.00    -0.184 C  
BRANCH   5   6
HETATM    6  N   UNL     1      -9.215  10.354  65.412  1.00  0.00    -0.179 N  
HETATM    7  C   UNL     1     -10.077  11.177  64.714  1.00  0.00    -0.295 C  
HETATM    8  H   UNL     1      -9.014  10.559  66.391  1.00  0.00     0.000 HD 
HETATM    9  O   UNL     1     -10.385  10.986  63.543  1.00  0.00    -0.352 OA 
BRANCH   7  10
HETATM   10  C   UNL     1     -10.586  12.375  65.444  1.00  0.00    -0.316 A  
HETATM   11  C   UNL     1      -9.668  13.190  66.116  1.00  0.00    -0.254 A  
HETATM   12  C   UNL     1     -10.111  14.282  66.874  1.00  0.00    -0.264 A  
HETATM   13  C   UNL     1     -11.474  14.595  66.968  1.00  0.00    -0.368 A  
HETATM   14  C   UNL     1     -11.947  12.703  65.490  1.00  0.00    -0.509 A  
HETATM   15  C   UNL     1     -12.383  13.795  66.256  1.00  0.00    -0.479 A  
BRANCH  13  16
HETATM   16  N   UNL     1     -11.855  15.648  67.831  1.00  0.00    -0.277 NA 
HETATM   17  H   UNL     1     -12.501  16.391  67.563  1.00  0.00     0.000 HD 
BRANCH  16  18
HETATM   18  N   UNL     1     -11.318  15.573  68.956  1.00  0.00    -0.302 NA 
HETATM   19  H   UNL     1     -10.396  15.956  69.168  1.00  0.00     0.000 HD 
BRANCH  18  20
HETATM   20  C   UNL     1     -12.122  14.901  69.904  1.00  0.00    -0.332 A  
HETATM   21  C   UNL     1     -13.013  15.554  70.769  1.00  0.00    -0.490 A  
HETATM   22  C   UNL     1     -13.723  14.849  71.747  1.00  0.00    -0.530 A  
HETATM   23  C   UNL     1     -13.537  13.473  71.877  1.00  0.00    -0.424 A  
HETATM   24  O   UNL     1     -14.218  12.795  72.855  1.00  0.00    -0.525 OA 
HETATM   25  C   UNL     1     -12.658  12.790  71.027  1.00  0.00    -0.362 A  
HETATM   26  C   UNL     1     -12.394  11.324  71.103  1.00  0.00    -0.324 C  
HETATM   27  C   UNL     1     -11.957  13.518  70.047  1.00  0.00    -0.410 A  
HETATM   28  H   UNL     1     -14.091  11.857  72.945  1.00  0.00     0.000 HD 
HETATM   29  O   UNL     1     -11.626  10.757  70.340  1.00  0.00    -0.304 OA 
HETATM   30  O   UNL     1     -13.056  10.662  72.076  1.00  0.00    -0.481 OA 
ENDBRANCH  18  20
ENDBRANCH  16  18
ENDBRANCH  13  16
ENDBRANCH   7  10
ENDBRANCH   5   6
ENDBRANCH   4   5
TORSDOF 6
ENDMDL
MODEL       38
REMARK 921   NORMALIZED FREE ENERGY PREDICTED BY IDOCK:   -6.58 KCAL/MOL
REMARK 922        TOTAL FREE ENERGY PREDICTED BY IDOCK:   -9.88 KCAL/MOL
REMARK 923 INTER-LIGAND FREE ENERGY PREDICTED BY IDOCK:   -9.56 KCAL/MOL
REMARK 924 INTRA-LIGAND FREE ENERGY PREDICTED BY IDOCK:   -0.32 KCAL/MOL
REMARK 927      BINDING AFFINITY PREDICTED BY RF-SCORE:    0.00 PKD
ROOT
HETATM    1  O   UNL     1     -14.387  15.786  72.345  1.00  0.00    -0.514 OA 
HETATM    2  C   UNL     1     -13.134  15.703  72.840  1.00  0.00    -0.520 C  
HETATM    3  O   UNL     1     -12.807  16.226  73.895  1.00  0.00    -0.636 OA 
HETATM    4  C   UNL     1     -12.186  14.913  71.980  1.00  0.00    -0.434 C  
ENDROOT
BRANCH   4   5
HETATM    5  C   UNL     1     -11.530  15.793  70.930  1.00  0.00    -0.403 C  
BRANCH   5   6
HETATM    6  N   UNL     1     -11.548  15.199  69.609  1.00  0.00    -0.290 N  
HETATM    7  C   UNL     1     -11.182  15.918  68.487  1.00  0.00    -0.362 C  
HETATM    8  H   UNL     1     -11.838  14.227  69.504  1.00  0.00     0.000 HD 
HETATM    9  O   UNL     1     -10.802  17.082  68.531  1.00  0.00    -0.354 OA 
BRANCH   7  10
HETATM   10  C   UNL     1     -11.327  15.219  67.176  1.00  0.00    -0.247 A  
HETATM   11  C   UNL     1     -12.283  14.203  67.062  1.00  0.00    -0.374 A  
HETATM   12  C   UNL     1     -12.401  13.472  65.872  1.00  0.00    -0.507 A  
HETATM   13  C   UNL     1     -11.584  13.746  64.767  1.00  0.00    -0.362 A  
HETATM   14  C   UNL     1     -10.535  15.536  66.066  1.00  0.00    -0.335 A  
HETATM   15  C   UNL     1     -10.657  14.796  64.880  1.00  0.00    -0.431 A  
BRANCH  13  16
HETATM   16  N   UNL     1     -11.690  12.903  63.637  1.00  0.00    -0.508 NA 
HETATM   17  H   UNL     1     -12.572  12.511  63.308  1.00  0.00     0.000 HD 
BRANCH  16  18
HETATM   18  N   UNL     1     -10.591  12.690  63.084  1.00  0.00    -0.543 NA 
HETATM   19  H   UNL     1     -10.165  13.327  62.410  1.00  0.00     0.000 HD 
BRANCH  18  20
HETATM   20  C   UNL     1      -9.999  11.473  63.491  1.00  0.00    -0.399 A  
HETATM   21  C   UNL     1      -9.182  10.692  62.660  1.00  0.00    -0.331 A  
HETATM   22  C   UNL     1      -8.691   9.452  63.085  1.00  0.00    -0.222 A  
HETATM   23  C   UNL     1      -9.025   8.973  64.351  1.00  0.00     0.016 A  
HETATM   24  O   UNL     1      -8.560   7.746  64.748  1.00  0.00    -0.367 OA 
HETATM   25  C   UNL     1      -9.837   9.731  65.206  1.00  0.00    -0.335 A  
HETATM   26  C   UNL     1     -10.250   9.291  66.570  1.00  0.00    -0.246 C  
HETATM   27  C   UNL     1     -10.316  10.977  64.761  1.00  0.00    -0.389 A  
HETATM   28  H   UNL     1      -8.789   7.420  65.610  1.00  0.00     0.000 HD 
HETATM   29  O   UNL     1     -10.953   9.980  67.295  1.00  0.00    -0.262 OA 
HETATM   30  O   UNL     1      -9.801   8.076  66.952  1.00  0.00    -0.203 OA 
ENDBRANCH  18  20
ENDBRANCH  16  18
ENDBRANCH  13  16
ENDBRANCH   7  10
ENDBRANCH   5   6
ENDBRANCH   4   5
TORSDOF 6
ENDMDL
MODEL       39
REMARK 921   NORMALIZED FREE ENERGY PREDICTED BY IDOCK:   -6.56 KCAL/MOL
REMARK 922        TOTAL FREE ENERGY PREDICTED BY IDOCK:   -9.84 KCAL/MOL
REMARK 923 INTER-LIGAND FREE ENERGY PREDICTED BY IDOCK:   -8.70 KCAL/MOL
REMARK 924 INTRA-LIGAND FREE ENERGY PREDICTED BY IDOCK:   -1.14 KCAL/MOL
REMARK 927      BINDING AFFINITY PREDICTED BY RF-SCORE:    0.00 PKD
ROOT
HETATM    1  O   UNL     1     -12.762  14.783  73.688  1.00  0.00    -0.519 OA 
HETATM    2  C   UNL     1     -13.532  14.554  72.603  1.00  0.00    -0.493 C  
HETATM    3  O   UNL     1     -14.277  13.587  72.517  1.00  0.00    -0.734 OA 
HETATM    4  C   UNL     1     -13.390  15.587  71.520  1.00  0.00    -0.593 C  
ENDROOT
BRANCH   4   5
HETATM    5  C   UNL     1     -12.253  15.243  70.575  1.00  0.00    -0.371 C  
BRANCH   5   6
HETATM    6  N   UNL     1     -11.911  13.835  70.596  1.00  0.00    -0.472 N  
HETATM    7  C   UNL     1     -11.860  13.084  69.438  1.00  0.00    -0.322 C  
HETATM    8  H   UNL     1     -11.703  13.387  71.489  1.00  0.00     0.000 HD 
HETATM    9  O   UNL     1     -12.076  13.552  68.325  1.00  0.00    -0.354 OA 
BRANCH   7  10
HETATM   10  C   UNL     1     -11.582  11.627  69.604  1.00  0.00    -0.401 A  
HETATM   11  C   UNL     1     -12.195  10.945  70.662  1.00  0.00    -0.472 A  
HETATM   12  C   UNL     1     -11.904   9.595  70.897  1.00  0.00    -0.403 A  
HETATM   13  C   UNL     1     -11.010   8.891  70.079  1.00  0.00    -0.206 A  
HETATM   14  C   UNL     1     -10.723  10.926  68.749  1.00  0.00    -0.243 A  
HETATM   15  C   UNL     1     -10.434   9.574  68.995  1.00  0.00    -0.229 A  
BRANCH  13  16
HETATM   16  N   UNL     1     -10.689   7.562  70.436  1.00  0.00    -0.234 NA 
HETATM   17  H   UNL     1      -9.916   7.316  71.055  1.00  0.00     0.000 HD 
BRANCH  16  18
HETATM   18  N   UNL     1     -11.450   6.720  69.916  1.00  0.00    -0.525 NA 
HETATM   19  H   UNL     1     -12.422   6.588  70.197  1.00  0.00     0.000 HD 
BRANCH  18  20
HETATM   20  C   UNL     1     -10.822   5.969  68.897  1.00  0.00    -0.331 A  
HETATM   21  C   UNL     1     -11.001   6.218  67.527  1.00  0.00    -0.444 A  
HETATM   22  C   UNL     1     -10.422   5.390  66.558  1.00  0.00    -0.352 A  
HETATM   23  C   UNL     1      -9.663   4.290  66.954  1.00  0.00    -0.214 A  
HETATM   24  O   UNL     1      -9.122   3.470  65.997  1.00  0.00    -0.140 OA 
HETATM   25  C   UNL     1      -9.463   4.015  68.313  1.00  0.00    -0.216 A  
HETATM   26  C   UNL     1      -8.674   2.857  68.823  1.00  0.00    -0.085 C  
HETATM   27  C   UNL     1     -10.050   4.864  69.272  1.00  0.00    -0.248 A  
HETATM   28  H   UNL     1      -8.605   2.719  66.267  1.00  0.00     0.000 HD 
HETATM   29  O   UNL     1      -8.512   2.650  70.017  1.00  0.00    -0.047 OA 
HETATM   30  O   UNL     1      -8.154   2.045  67.878  1.00  0.00    -0.058 OA 
ENDBRANCH  18  20
ENDBRANCH  16  18
ENDBRANCH  13  16
ENDBRANCH   7  10
ENDBRANCH   5   6
ENDBRANCH   4   5
TORSDOF 6
ENDMDL
MODEL       40
REMARK 921   NORMALIZED FREE ENERGY PREDICTED BY IDOCK:   -6.55 KCAL/MOL
REMARK 922        TOTAL FREE ENERGY PREDICTED BY IDOCK:   -9.83 KCAL/MOL
REMARK 923 INTER-LIGAND FREE ENERGY PREDICTED BY IDOCK:   -8.81 KCAL/MOL
REMARK 924 INTRA-LIGAND FREE ENERGY PREDICTED BY IDOCK:   -1.02 KCAL/MOL
REMARK 927      BINDING AFFINITY PREDICTED BY RF-SCORE:    0.00 PKD
ROOT
HETATM    1  O   UNL     1     -10.216   7.767  70.682  1.00  0.00    -0.198 OA 
HETATM    2  C   UNL     1     -11.354   7.047  70.592  1.00  0.00    -0.307 C  
HETATM    3  O   UNL     1     -11.616   6.347  69.624  1.00  0.00    -0.417 OA 
HETATM    4  C   UNL     1     -12.263   7.184  71.783  1.00  0.00    -0.379 C  
ENDROOT
BRANCH   4   5
HETATM    5  C   UNL     1     -13.201   8.368  71.627  1.00  0.00    -0.339 C  
BRANCH   5   6
HETATM    6  N   UNL     1     -12.684   9.379  70.726  1.00  0.00    -0.512 N  
HETATM    7  C   UNL     1     -12.739  10.724  71.039  1.00  0.00    -0.415 C  
HETATM    8  H   UNL     1     -12.270   9.091  69.840  1.00  0.00     0.000 HD 
HETATM    9  O   UNL     1     -13.202  11.149  72.091  1.00  0.00    -0.481 OA 
BRANCH   7  10
HETATM   10  C   UNL     1     -12.253  11.668  69.990  1.00  0.00    -0.338 A  
HETATM   11  C   UNL     1     -12.158  13.028  70.306  1.00  0.00    -0.388 A  
HETATM   12  C   UNL     1     -11.777  13.958  69.329  1.00  0.00    -0.381 A  
HETATM   13  C   UNL     1     -11.469  13.554  68.023  1.00  0.00    -0.307 A  
HETATM   14  C   UNL     1     -11.904  11.243  68.703  1.00  0.00    -0.369 A  
HETATM   15  C   UNL     1     -11.528  12.181  67.729  1.00  0.00    -0.398 A  
BRANCH  13  16
HETATM   16  N   UNL     1     -11.191  14.556  67.066  1.00  0.00    -0.326 NA 
HETATM   17  H   UNL     1     -11.010  14.361  66.081  1.00  0.00     0.000 HD 
BRANCH  16  18
HETATM   18  N   UNL     1     -11.191  15.706  67.553  1.00  0.00    -0.290 NA 
HETATM   19  H   UNL     1     -11.917  16.054  68.180  1.00  0.00     0.000 HD 
BRANCH  18  20
HETATM   20  C   UNL     1     -10.079  16.475  67.143  1.00  0.00    -0.274 A  
HETATM   21  C   UNL     1      -8.923  15.924  66.570  1.00  0.00    -0.331 A  
HETATM   22  C   UNL     1      -7.816  16.723  66.259  1.00  0.00    -0.334 A  
HETATM   23  C   UNL     1      -7.852  18.089  66.533  1.00  0.00    -0.260 A  
HETATM   24  O   UNL     1      -6.753  18.859  66.250  1.00  0.00    -0.196 OA 
HETATM   25  C   UNL     1      -8.993  18.672  67.102  1.00  0.00    -0.288 A  
HETATM   26  C   UNL     1      -9.112  20.121  67.435  1.00  0.00    -0.364 C  
HETATM   27  C   UNL     1     -10.097  17.851  67.401  1.00  0.00    -0.341 A  
HETATM   28  H   UNL     1      -6.777  19.790  66.437  1.00  0.00     0.000 HD 
HETATM   29  O   UNL     1     -10.125  20.598  67.924  1.00  0.00    -0.298 OA 
HETATM   30  O   UNL     1      -8.023  20.872  67.166  1.00  0.00    -0.280 OA 
ENDBRANCH  18  20
ENDBRANCH  16  18
ENDBRANCH  13  16
ENDBRANCH   7  10
ENDBRANCH   5   6
ENDBRANCH   4   5
TORSDOF 6
ENDMDL
MODEL       41
REMARK 921   NORMALIZED FREE ENERGY PREDICTED BY IDOCK:   -6.54 KCAL/MOL
REMARK 922        TOTAL FREE ENERGY PREDICTED BY IDOCK:   -9.82 KCAL/MOL
REMARK 923 INTER-LIGAND FREE ENERGY PREDICTED BY IDOCK:   -8.68 KCAL/MOL
REMARK 924 INTRA-LIGAND FREE ENERGY PREDICTED BY IDOCK:   -1.13 KCAL/MOL
REMARK 927      BINDING AFFINITY PREDICTED BY RF-SCORE:    0.00 PKD
ROOT
HETATM    1  O   UNL     1     -10.629  19.642  65.403  1.00  0.00    -0.443 OA 
HETATM    2  C   UNL     1      -9.546  19.918  66.161  1.00  0.00    -0.397 C  
HETATM    3  O   UNL     1      -8.412  19.603  65.827  1.00  0.00    -0.401 OA 
HETATM    4  C   UNL     1      -9.859  20.641  67.441  1.00  0.00    -0.527 C  
ENDROOT
BRANCH   4   5
HETATM    5  C   UNL     1     -10.182  19.666  68.560  1.00  0.00    -0.421 C  
BRANCH   5   6
HETATM    6  N   UNL     1     -10.449  18.326  68.078  1.00  0.00    -0.384 N  
HETATM    7  C   UNL     1      -9.523  17.310  68.215  1.00  0.00    -0.283 C  
HETATM    8  H   UNL     1     -11.342  18.128  67.626  1.00  0.00     0.000 HD 
HETATM    9  O   UNL     1      -8.437  17.461  68.763  1.00  0.00    -0.276 OA 
BRANCH   7  10
HETATM   10  C   UNL     1      -9.882  15.998  67.599  1.00  0.00    -0.235 A  
HETATM   11  C   UNL     1     -11.209  15.561  67.682  1.00  0.00    -0.291 A  
HETATM   12  C   UNL     1     -11.573  14.304  67.182  1.00  0.00    -0.402 A  
HETATM   13  C   UNL     1     -10.631  13.462  66.576  1.00  0.00    -0.287 A  
HETATM   14  C   UNL     1      -8.939  15.189  66.955  1.00  0.00    -0.277 A  
HETATM   15  C   UNL     1      -9.311  13.929  66.461  1.00  0.00    -0.264 A  
BRANCH  13  16
HETATM   16  N   UNL     1     -11.049  12.169  66.187  1.00  0.00    -0.298 NA 
HETATM   17  H   UNL     1     -10.638  11.655  65.407  1.00  0.00     0.000 HD 
BRANCH  16  18
HETATM   18  N   UNL     1     -11.973  11.722  66.898  1.00  0.00    -0.561 NA 
HETATM   19  H   UNL     1     -12.948  12.008  66.802  1.00  0.00     0.000 HD 
BRANCH  18  20
HETATM   20  C   UNL     1     -11.525  10.780  67.850  1.00  0.00    -0.227 A  
HETATM   21  C   UNL     1     -10.642   9.732  67.550  1.00  0.00    -0.335 A  
HETATM   22  C   UNL     1     -10.297   8.775  68.512  1.00  0.00    -0.231 A  
HETATM   23  C   UNL     1     -10.846   8.852  69.791  1.00  0.00    -0.200 A  
HETATM   24  O   UNL     1     -10.523   7.896  70.718  1.00  0.00    -0.206 OA 
HETATM   25  C   UNL     1     -11.729   9.889  70.125  1.00  0.00    -0.239 A  
HETATM   26  C   UNL     1     -12.368  10.041  71.463  1.00  0.00    -0.419 C  
HETATM   27  C   UNL     1     -12.058  10.843  69.143  1.00  0.00    -0.292 A  
HETATM   28  H   UNL     1     -10.898   7.948  71.590  1.00  0.00     0.000 HD 
HETATM   29  O   UNL     1     -13.128  10.962  71.725  1.00  0.00    -0.464 OA 
HETATM   30  O   UNL     1     -12.057   9.090  72.369  1.00  0.00    -0.324 OA 
ENDBRANCH  18  20
ENDBRANCH  16  18
ENDBRANCH  13  16
ENDBRANCH   7  10
ENDBRANCH   5   6
ENDBRANCH   4   5
TORSDOF 6
ENDMDL
MODEL       42
REMARK 921   NORMALIZED FREE ENERGY PREDICTED BY IDOCK:   -6.51 KCAL/MOL
REMARK 922        TOTAL FREE ENERGY PREDICTED BY IDOCK:   -9.78 KCAL/MOL
REMARK 923 INTER-LIGAND FREE ENERGY PREDICTED BY IDOCK:   -8.79 KCAL/MOL
REMARK 924 INTRA-LIGAND FREE ENERGY PREDICTED BY IDOCK:   -0.99 KCAL/MOL
REMARK 927      BINDING AFFINITY PREDICTED BY RF-SCORE:    0.00 PKD
ROOT
HETATM    1  O   UNL     1     -12.648  14.727  73.671  1.00  0.00    -0.504 OA 
HETATM    2  C   UNL     1     -13.529  14.384  72.707  1.00  0.00    -0.485 C  
HETATM    3  O   UNL     1     -14.069  13.288  72.668  1.00  0.00    -0.744 OA 
HETATM    4  C   UNL     1     -13.782  15.467  71.694  1.00  0.00    -0.606 C  
ENDROOT
BRANCH   4   5
HETATM    5  C   UNL     1     -12.776  15.405  70.558  1.00  0.00    -0.405 C  
BRANCH   5   6
HETATM    6  N   UNL     1     -12.292  14.063  70.308  1.00  0.00    -0.348 N  
HETATM    7  C   UNL     1     -12.018  13.618  69.029  1.00  0.00    -0.353 C  
HETATM    8  H   UNL     1     -12.150  13.430  71.096  1.00  0.00     0.000 HD 
HETATM    9  O   UNL     1     -12.143  14.322  68.034  1.00  0.00    -0.338 OA 
BRANCH   7  10
HETATM   10  C   UNL     1     -11.610  12.188  68.898  1.00  0.00    -0.377 A  
HETATM   11  C   UNL     1     -11.535  11.405  70.056  1.00  0.00    -0.331 A  
HETATM   12  C   UNL     1     -11.085  10.079  69.985  1.00  0.00    -0.350 A  
HETATM   13  C   UNL     1     -10.715   9.501  68.764  1.00  0.00    -0.190 A  
HETATM   14  C   UNL     1     -11.289  11.611  67.664  1.00  0.00    -0.362 A  
HETATM   15  C   UNL     1     -10.835  10.284  67.604  1.00  0.00    -0.363 A  
BRANCH  13  16
HETATM   16  N   UNL     1     -10.176   8.195  68.784  1.00  0.00    -0.204 NA 
HETATM   17  H   UNL     1      -9.176   7.997  68.769  1.00  0.00     0.000 HD 
BRANCH  16  18
HETATM   18  N   UNL     1     -11.054   7.307  68.823  1.00  0.00    -0.447 NA 
HETATM   19  H   UNL     1     -11.620   7.037  68.017  1.00  0.00     0.000 HD 
BRANCH  18  20
HETATM   20  C   UNL     1     -11.181   6.717  70.100  1.00  0.00    -0.360 A  
HETATM   21  C   UNL     1     -12.340   6.810  70.886  1.00  0.00    -0.336 A  
HETATM   22  C   UNL     1     -12.382   6.278  72.181  1.00  0.00    -0.193 A  
HETATM   23  C   UNL     1     -11.253   5.654  72.708  1.00  0.00    -0.299 A  
HETATM   24  O   UNL     1     -11.296   5.160  73.986  1.00  0.00    -0.394 OA 
HETATM   25  C   UNL     1     -10.081   5.541  71.948  1.00  0.00    -0.239 A  
HETATM   26  C   UNL     1      -8.828   4.898  72.437  1.00  0.00    -0.123 C  
HETATM   27  C   UNL     1     -10.062   6.079  70.646  1.00  0.00    -0.246 A  
HETATM   28  H   UNL     1     -10.526   4.735  74.346  1.00  0.00     0.000 HD 
HETATM   29  O   UNL     1      -7.824   4.810  71.744  1.00  0.00    -0.093 OA 
HETATM   30  O   UNL     1      -8.870   4.425  73.700  1.00  0.00    -0.101 OA 
ENDBRANCH  18  20
ENDBRANCH  16  18
ENDBRANCH  13  16
ENDBRANCH   7  10
ENDBRANCH   5   6
ENDBRANCH   4   5
TORSDOF 6
ENDMDL
MODEL       43
REMARK 921   NORMALIZED FREE ENERGY PREDICTED BY IDOCK:   -6.50 KCAL/MOL
REMARK 922        TOTAL FREE ENERGY PREDICTED BY IDOCK:   -9.77 KCAL/MOL
REMARK 923 INTER-LIGAND FREE ENERGY PREDICTED BY IDOCK:   -8.54 KCAL/MOL
REMARK 924 INTRA-LIGAND FREE ENERGY PREDICTED BY IDOCK:   -1.23 KCAL/MOL
REMARK 927      BINDING AFFINITY PREDICTED BY RF-SCORE:    0.00 PKD
ROOT
HETATM    1  O   UNL     1     -13.659   7.826  71.099  1.00  0.00    -0.216 OA 
HETATM    2  C   UNL     1     -13.113   8.590  72.069  1.00  0.00    -0.371 C  
HETATM    3  O   UNL     1     -13.673   9.578  72.522  1.00  0.00    -0.424 OA 
HETATM    4  C   UNL     1     -11.765   8.116  72.538  1.00  0.00    -0.457 C  
ENDROOT
BRANCH   4   5
HETATM    5  C   UNL     1     -10.650   8.699  71.688  1.00  0.00    -0.303 C  
BRANCH   5   6
HETATM    6  N   UNL     1     -11.081   9.832  70.896  1.00  0.00    -0.334 N  
HETATM    7  C   UNL     1     -10.927   9.857  69.523  1.00  0.00    -0.242 C  
HETATM    8  H   UNL     1     -11.510  10.631  71.363  1.00  0.00     0.000 HD 
HETATM    9  O   UNL     1     -10.440   8.929  68.886  1.00  0.00    -0.217 OA 
BRANCH   7  10
HETATM   10  C   UNL     1     -11.332  11.118  68.833  1.00  0.00    -0.344 A  
HETATM   11  C   UNL     1     -11.401  11.123  67.435  1.00  0.00    -0.329 A  
HETATM   12  C   UNL     1     -11.706  12.305  66.746  1.00  0.00    -0.411 A  
HETATM   13  C   UNL     1     -11.961  13.500  67.431  1.00  0.00    -0.357 A  
HETATM   14  C   UNL     1     -11.630  12.292  69.534  1.00  0.00    -0.366 A  
HETATM   15  C   UNL     1     -11.929  13.472  68.835  1.00  0.00    -0.378 A  
BRANCH  13  16
HETATM   16  N   UNL     1     -12.161  14.673  66.667  1.00  0.00    -0.377 NA 
HETATM   17  H   UNL     1     -12.886  15.362  66.872  1.00  0.00     0.000 HD 
BRANCH  16  18
HETATM   18  N   UNL     1     -11.358  14.777  65.717  1.00  0.00    -0.342 NA 
HETATM   19  H   UNL     1     -11.485  14.314  64.817  1.00  0.00     0.000 HD 
BRANCH  18  20
HETATM   20  C   UNL     1     -10.254  15.604  66.021  1.00  0.00    -0.335 A  
HETATM   21  C   UNL     1      -8.989  15.111  66.376  1.00  0.00    -0.314 A  
HETATM   22  C   UNL     1      -7.952  15.974  66.750  1.00  0.00    -0.302 A  
HETATM   23  C   UNL     1      -8.178  17.349  66.784  1.00  0.00    -0.249 A  
HETATM   24  O   UNL     1      -7.164  18.185  67.177  1.00  0.00    -0.194 OA 
HETATM   25  C   UNL     1      -9.428  17.875  66.432  1.00  0.00    -0.278 A  
HETATM   26  C   UNL     1      -9.757  19.329  66.449  1.00  0.00    -0.374 C  
HETATM   27  C   UNL     1     -10.455  16.989  66.054  1.00  0.00    -0.280 A  
HETATM   28  H   UNL     1      -7.317  19.122  67.200  1.00  0.00     0.000 HD 
HETATM   29  O   UNL     1     -10.857  19.756  66.128  1.00  0.00    -0.420 OA 
HETATM   30  O   UNL     1      -8.760  20.147  66.849  1.00  0.00    -0.325 OA 
ENDBRANCH  18  20
ENDBRANCH  16  18
ENDBRANCH  13  16
ENDBRANCH   7  10
ENDBRANCH   5   6
ENDBRANCH   4   5
TORSDOF 6
ENDMDL
MODEL       44
REMARK 921   NORMALIZED FREE ENERGY PREDICTED BY IDOCK:   -6.50 KCAL/MOL
REMARK 922        TOTAL FREE ENERGY PREDICTED BY IDOCK:   -9.77 KCAL/MOL
REMARK 923 INTER-LIGAND FREE ENERGY PREDICTED BY IDOCK:   -8.73 KCAL/MOL
REMARK 924 INTRA-LIGAND FREE ENERGY PREDICTED BY IDOCK:   -1.03 KCAL/MOL
REMARK 927      BINDING AFFINITY PREDICTED BY RF-SCORE:    0.00 PKD
ROOT
HETATM    1  O   UNL     1      -8.408   4.564  72.172  1.00  0.00    -0.105 OA 
HETATM    2  C   UNL     1      -9.613   4.124  71.752  1.00  0.00    -0.156 C  
HETATM    3  O   UNL     1      -9.986   4.233  70.592  1.00  0.00    -0.201 OA 
HETATM    4  C   UNL     1     -10.447   3.493  72.833  1.00  0.00    -0.239 C  
ENDROOT
BRANCH   4   5
HETATM    5  C   UNL     1     -11.273   4.533  73.569  1.00  0.00    -0.303 C  
BRANCH   5   6
HETATM    6  N   UNL     1     -11.459   5.748  72.802  1.00  0.00    -0.432 N  
HETATM    7  C   UNL     1     -10.887   6.944  73.190  1.00  0.00    -0.296 C  
HETATM    8  H   UNL     1     -12.027   5.720  71.955  1.00  0.00     0.000 HD 
HETATM    9  O   UNL     1     -10.175   7.057  74.182  1.00  0.00    -0.345 OA 
BRANCH   7  10
HETATM   10  C   UNL     1     -11.226   8.140  72.364  1.00  0.00    -0.452 A  
HETATM   11  C   UNL     1     -12.549   8.596  72.358  1.00  0.00    -0.426 A  
HETATM   12  C   UNL     1     -12.925   9.670  71.539  1.00  0.00    -0.486 A  
HETATM   13  C   UNL     1     -11.992  10.321  70.722  1.00  0.00    -0.360 A  
HETATM   14  C   UNL     1     -10.272   8.810  71.588  1.00  0.00    -0.394 A  
HETATM   15  C   UNL     1     -10.658   9.882  70.768  1.00  0.00    -0.309 A  
BRANCH  13  16
HETATM   16  N   UNL     1     -12.463  11.328  69.849  1.00  0.00    -0.204 NA 
HETATM   17  H   UNL     1     -13.030  12.119  70.154  1.00  0.00     0.000 HD 
BRANCH  16  18
HETATM   18  N   UNL     1     -12.111  11.148  68.664  1.00  0.00    -0.679 NA 
HETATM   19  H   UNL     1     -12.096  10.234  68.212  1.00  0.00     0.000 HD 
BRANCH  18  20
HETATM   20  C   UNL     1     -11.734  12.346  68.017  1.00  0.00    -0.356 A  
HETATM   21  C   UNL     1     -11.276  12.401  66.692  1.00  0.00    -0.366 A  
HETATM   22  C   UNL     1     -10.834  13.603  66.126  1.00  0.00    -0.279 A  
HETATM   23  C   UNL     1     -10.837  14.768  66.891  1.00  0.00    -0.316 A  
HETATM   24  O   UNL     1     -10.378  15.935  66.337  1.00  0.00    -0.286 OA 
HETATM   25  C   UNL     1     -11.291  14.748  68.217  1.00  0.00    -0.319 A  
HETATM   26  C   UNL     1     -11.319  15.944  69.107  1.00  0.00    -0.366 C  
HETATM   27  C   UNL     1     -11.735  13.530  68.764  1.00  0.00    -0.373 A  
HETATM   28  H   UNL     1     -10.379  16.729  66.858  1.00  0.00     0.000 HD 
HETATM   29  O   UNL     1     -11.730  15.894  70.258  1.00  0.00    -0.329 OA 
HETATM   30  O   UNL     1     -10.855  17.088  68.561  1.00  0.00    -0.354 OA 
ENDBRANCH  18  20
ENDBRANCH  16  18
ENDBRANCH  13  16
ENDBRANCH   7  10
ENDBRANCH   5   6
ENDBRANCH   4   5
TORSDOF 6
ENDMDL
MODEL       45
REMARK 921   NORMALIZED FREE ENERGY PREDICTED BY IDOCK:   -6.50 KCAL/MOL
REMARK 922        TOTAL FREE ENERGY PREDICTED BY IDOCK:   -9.77 KCAL/MOL
REMARK 923 INTER-LIGAND FREE ENERGY PREDICTED BY IDOCK:   -8.61 KCAL/MOL
REMARK 924 INTRA-LIGAND FREE ENERGY PREDICTED BY IDOCK:   -1.16 KCAL/MOL
REMARK 927      BINDING AFFINITY PREDICTED BY RF-SCORE:    0.00 PKD
ROOT
HETATM    1  O   UNL     1     -13.274   7.902  71.725  1.00  0.00    -0.331 OA 
HETATM    2  C   UNL     1     -11.990   7.569  71.980  1.00  0.00    -0.294 C  
HETATM    3  O   UNL     1     -11.300   8.179  72.785  1.00  0.00    -0.397 OA 
HETATM    4  C   UNL     1     -11.494   6.389  71.192  1.00  0.00    -0.381 C  
ENDROOT
BRANCH   4   5
HETATM    5  C   UNL     1     -10.936   6.821  69.847  1.00  0.00    -0.291 C  
BRANCH   5   6
HETATM    6  N   UNL     1     -11.356   8.155  69.466  1.00  0.00    -0.420 N  
HETATM    7  C   UNL     1     -10.441   9.131  69.121  1.00  0.00    -0.217 C  
HETATM    8  H   UNL     1     -12.351   8.378  69.453  1.00  0.00     0.000 HD 
HETATM    9  O   UNL     1      -9.231   8.937  69.093  1.00  0.00    -0.143 OA 
BRANCH   7  10
HETATM   10  C   UNL     1     -10.996  10.487  68.834  1.00  0.00    -0.291 A  
HETATM   11  C   UNL     1     -10.911  10.982  67.528  1.00  0.00    -0.314 A  
HETATM   12  C   UNL     1     -11.353  12.279  67.232  1.00  0.00    -0.392 A  
HETATM   13  C   UNL     1     -11.902  13.103  68.223  1.00  0.00    -0.349 A  
HETATM   14  C   UNL     1     -11.585  11.281  69.826  1.00  0.00    -0.408 A  
HETATM   15  C   UNL     1     -12.021  12.580  69.521  1.00  0.00    -0.329 A  
BRANCH  13  16
HETATM   16  N   UNL     1     -12.233  14.432  67.873  1.00  0.00    -0.620 NA 
HETATM   17  H   UNL     1     -12.634  14.695  66.972  1.00  0.00     0.000 HD 
BRANCH  16  18
HETATM   18  N   UNL     1     -11.982  15.251  68.782  1.00  0.00    -0.547 NA 
HETATM   19  H   UNL     1     -12.605  15.426  69.571  1.00  0.00     0.000 HD 
BRANCH  18  20
HETATM   20  C   UNL     1     -10.745  15.909  68.602  1.00  0.00    -0.274 A  
HETATM   21  C   UNL     1      -9.562  15.532  69.255  1.00  0.00    -0.266 A  
HETATM   22  C   UNL     1      -8.384  16.272  69.105  1.00  0.00    -0.211 A  
HETATM   23  C   UNL     1      -8.381  17.412  68.303  1.00  0.00    -0.248 A  
HETATM   24  O   UNL     1      -7.228  18.144  68.183  1.00  0.00    -0.231 OA 
HETATM   25  C   UNL     1      -9.544  17.814  67.633  1.00  0.00    -0.266 A  
HETATM   26  C   UNL     1      -9.632  19.023  66.764  1.00  0.00    -0.333 C  
HETATM   27  C   UNL     1     -10.718  17.053  67.794  1.00  0.00    -0.318 A  
HETATM   28  H   UNL     1      -7.226  18.922  67.636  1.00  0.00     0.000 HD 
HETATM   29  O   UNL     1     -10.662  19.341  66.188  1.00  0.00    -0.432 OA 
HETATM   30  O   UNL     1      -8.498  19.748  66.660  1.00  0.00    -0.302 OA 
ENDBRANCH  18  20
ENDBRANCH  16  18
ENDBRANCH  13  16
ENDBRANCH   7  10
ENDBRANCH   5   6
ENDBRANCH   4   5
TORSDOF 6
ENDMDL
MODEL       46
REMARK 921   NORMALIZED FREE ENERGY PREDICTED BY IDOCK:   -6.49 KCAL/MOL
REMARK 922        TOTAL FREE ENERGY PREDICTED BY IDOCK:   -9.75 KCAL/MOL
REMARK 923 INTER-LIGAND FREE ENERGY PREDICTED BY IDOCK:   -8.83 KCAL/MOL
REMARK 924 INTRA-LIGAND FREE ENERGY PREDICTED BY IDOCK:   -0.92 KCAL/MOL
REMARK 927      BINDING AFFINITY PREDICTED BY RF-SCORE:    0.00 PKD
ROOT
HETATM    1  O   UNL     1     -12.738  14.812  73.619  1.00  0.00    -0.519 OA 
HETATM    2  C   UNL     1     -13.399  14.320  72.550  1.00  0.00    -0.500 C  
HETATM    3  O   UNL     1     -13.728  13.145  72.463  1.00  0.00    -0.610 OA 
HETATM    4  C   UNL     1     -13.693  15.341  71.485  1.00  0.00    -0.610 C  
ENDROOT
BRANCH   4   5
HETATM    5  C   UNL     1     -12.541  15.460  70.503  1.00  0.00    -0.423 C  
BRANCH   5   6
HETATM    6  N   UNL     1     -12.076  14.174  70.024  1.00  0.00    -0.327 N  
HETATM    7  C   UNL     1     -11.832  13.946  68.683  1.00  0.00    -0.372 C  
HETATM    8  H   UNL     1     -11.925  13.419  70.692  1.00  0.00     0.000 HD 
HETATM    9  O   UNL     1     -11.969  14.807  67.821  1.00  0.00    -0.334 OA 
BRANCH   7  10
HETATM   10  C   UNL     1     -11.441  12.555  68.308  1.00  0.00    -0.355 A  
HETATM   11  C   UNL     1     -11.312  11.600  69.322  1.00  0.00    -0.353 A  
HETATM   12  C   UNL     1     -10.876  10.302  69.021  1.00  0.00    -0.265 A  
HETATM   13  C   UNL     1     -10.574   9.924  67.706  1.00  0.00    -0.261 A  
HETATM   14  C   UNL     1     -11.188  12.180  66.983  1.00  0.00    -0.370 A  
HETATM   15  C   UNL     1     -10.747  10.880  66.691  1.00  0.00    -0.289 A  
BRANCH  13  16
HETATM   16  N   UNL     1     -10.044   8.631  67.493  1.00  0.00    -0.199 NA 
HETATM   17  H   UNL     1      -9.062   8.452  67.283  1.00  0.00     0.000 HD 
BRANCH  16  18
HETATM   18  N   UNL     1     -10.905   7.731  67.589  1.00  0.00    -0.506 NA 
HETATM   19  H   UNL     1     -11.757   7.704  67.030  1.00  0.00     0.000 HD 
BRANCH  18  20
HETATM   20  C   UNL     1     -10.572   6.755  68.554  1.00  0.00    -0.225 A  
HETATM   21  C   UNL     1      -9.791   5.622  68.277  1.00  0.00    -0.177 A  
HETATM   22  C   UNL     1      -9.563   4.643  69.250  1.00  0.00    -0.251 A  
HETATM   23  C   UNL     1     -10.127   4.783  70.517  1.00  0.00    -0.220 A  
HETATM   24  O   UNL     1      -9.919   3.805  71.456  1.00  0.00    -0.179 OA 
HETATM   25  C   UNL     1     -10.909   5.904  70.828  1.00  0.00    -0.352 A  
HETATM   26  C   UNL     1     -11.556   6.128  72.153  1.00  0.00    -0.317 C  
HETATM   27  C   UNL     1     -11.122   6.880  69.836  1.00  0.00    -0.333 A  
HETATM   28  H   UNL     1     -10.304   3.901  72.319  1.00  0.00     0.000 HD 
HETATM   29  O   UNL     1     -12.226   7.122  72.394  1.00  0.00    -0.183 OA 
HETATM   30  O   UNL     1     -11.360   5.157  73.069  1.00  0.00    -0.302 OA 
ENDBRANCH  18  20
ENDBRANCH  16  18
ENDBRANCH  13  16
ENDBRANCH   7  10
ENDBRANCH   5   6
ENDBRANCH   4   5
TORSDOF 6
ENDMDL
MODEL       47
REMARK 921   NORMALIZED FREE ENERGY PREDICTED BY IDOCK:   -6.49 KCAL/MOL
REMARK 922        TOTAL FREE ENERGY PREDICTED BY IDOCK:   -9.75 KCAL/MOL
REMARK 923 INTER-LIGAND FREE ENERGY PREDICTED BY IDOCK:   -8.96 KCAL/MOL
REMARK 924 INTRA-LIGAND FREE ENERGY PREDICTED BY IDOCK:   -0.79 KCAL/MOL
REMARK 927      BINDING AFFINITY PREDICTED BY RF-SCORE:    0.00 PKD
ROOT
HETATM    1  O   UNL     1      -8.251  19.951  68.085  1.00  0.00    -0.302 OA 
HETATM    2  C   UNL     1      -9.453  19.359  68.254  1.00  0.00    -0.365 C  
HETATM    3  O   UNL     1      -9.680  18.581  69.170  1.00  0.00    -0.269 OA 
HETATM    4  C   UNL     1     -10.477  19.742  67.222  1.00  0.00    -0.579 C  
ENDROOT
BRANCH   4   5
HETATM    5  C   UNL     1     -10.394  18.840  66.003  1.00  0.00    -0.422 C  
BRANCH   5   6
HETATM    6  N   UNL     1     -10.598  17.442  66.325  1.00  0.00    -0.254 N  
HETATM    7  C   UNL     1     -11.022  16.534  65.373  1.00  0.00    -0.131 C  
HETATM    8  H   UNL     1     -10.423  17.120  67.277  1.00  0.00     0.000 HD 
HETATM    9  O   UNL     1     -11.234  16.838  64.205  1.00  0.00    -1.155 OA 
BRANCH   7  10
HETATM   10  C   UNL     1     -11.278  15.143  65.852  1.00  0.00    -0.280 A  
HETATM   11  C   UNL     1     -10.668  14.722  67.039  1.00  0.00    -0.300 A  
HETATM   12  C   UNL     1     -10.823  13.402  67.484  1.00  0.00    -0.276 A  
HETATM   13  C   UNL     1     -11.597  12.479  66.768  1.00  0.00    -0.382 A  
HETATM   14  C   UNL     1     -12.092  14.247  65.150  1.00  0.00    -0.410 A  
HETATM   15  C   UNL     1     -12.237  12.926  65.600  1.00  0.00    -0.519 A  
BRANCH  13  16
HETATM   16  N   UNL     1     -11.624  11.141  67.223  1.00  0.00    -0.511 NA 
HETATM   17  H   UNL     1     -12.055  10.378  66.701  1.00  0.00     0.000 HD 
BRANCH  16  18
HETATM   18  N   UNL     1     -11.065  10.992  68.329  1.00  0.00    -0.234 NA 
HETATM   19  H   UNL     1     -10.730  11.768  68.901  1.00  0.00     0.000 HD 
BRANCH  18  20
HETATM   20  C   UNL     1     -10.947   9.636  68.705  1.00  0.00    -0.117 A  
HETATM   21  C   UNL     1     -10.477   8.630  67.847  1.00  0.00    -0.269 A  
HETATM   22  C   UNL     1     -10.460   7.288  68.243  1.00  0.00    -0.239 A  
HETATM   23  C   UNL     1     -10.927   6.935  69.508  1.00  0.00    -0.250 A  
HETATM   24  O   UNL     1     -10.930   5.614  69.877  1.00  0.00    -0.339 OA 
HETATM   25  C   UNL     1     -11.399   7.915  70.392  1.00  0.00    -0.201 A  
HETATM   26  C   UNL     1     -11.923   7.625  71.757  1.00  0.00    -0.299 C  
HETATM   27  C   UNL     1     -11.403   9.260  69.975  1.00  0.00    -0.137 A  
HETATM   28  H   UNL     1     -11.249   5.374  70.739  1.00  0.00     0.000 HD 
HETATM   29  O   UNL     1     -12.320   8.505  72.506  1.00  0.00    -0.388 OA 
HETATM   30  O   UNL     1     -11.937   6.322  72.111  1.00  0.00    -0.329 OA 
ENDBRANCH  18  20
ENDBRANCH  16  18
ENDBRANCH  13  16
ENDBRANCH   7  10
ENDBRANCH   5   6
ENDBRANCH   4   5
TORSDOF 6
ENDMDL
MODEL       48
REMARK 921   NORMALIZED FREE ENERGY PREDICTED BY IDOCK:   -6.47 KCAL/MOL
REMARK 922        TOTAL FREE ENERGY PREDICTED BY IDOCK:   -9.73 KCAL/MOL
REMARK 923 INTER-LIGAND FREE ENERGY PREDICTED BY IDOCK:   -8.69 KCAL/MOL
REMARK 924 INTRA-LIGAND FREE ENERGY PREDICTED BY IDOCK:   -1.05 KCAL/MOL
REMARK 927      BINDING AFFINITY PREDICTED BY RF-SCORE:    0.00 PKD
ROOT
HETATM    1  O   UNL     1     -13.226  13.773  65.089  1.00  0.00    -0.757 OA 
HETATM    2  C   UNL     1     -12.065  13.358  65.639  1.00  0.00    -0.434 C  
HETATM    3  O   UNL     1     -11.676  12.201  65.560  1.00  0.00    -0.371 OA 
HETATM    4  C   UNL     1     -11.300  14.440  66.351  1.00  0.00    -0.351 C  
ENDROOT
BRANCH   4   5
HETATM    5  C   UNL     1     -11.743  14.566  67.798  1.00  0.00    -0.374 C  
BRANCH   5   6
HETATM    6  N   UNL     1     -11.981  13.283  68.427  1.00  0.00    -0.338 N  
HETATM    7  C   UNL     1     -11.935  13.130  69.799  1.00  0.00    -0.314 C  
HETATM    8  H   UNL     1     -12.187  12.473  67.842  1.00  0.00     0.000 HD 
HETATM    9  O   UNL     1     -11.714  14.057  70.571  1.00  0.00    -0.274 OA 
BRANCH   7  10
HETATM   10  C   UNL     1     -12.111  11.741  70.317  1.00  0.00    -0.426 A  
HETATM   11  C   UNL     1     -13.032  11.523  71.349  1.00  0.00    -0.450 A  
HETATM   12  C   UNL     1     -13.174  10.248  71.913  1.00  0.00    -0.550 A  
HETATM   13  C   UNL     1     -12.417   9.162  71.455  1.00  0.00    -0.328 A  
HETATM   14  C   UNL     1     -11.381  10.657  69.817  1.00  0.00    -0.371 A  
HETATM   15  C   UNL     1     -11.526   9.384  70.391  1.00  0.00    -0.272 A  
BRANCH  13  16
HETATM   16  N   UNL     1     -12.540   7.931  72.138  1.00  0.00    -0.456 NA 
HETATM   17  H   UNL     1     -13.107   7.153  71.800  1.00  0.00     0.000 HD 
BRANCH  16  18
HETATM   18  N   UNL     1     -11.882   7.895  73.199  1.00  0.00    -0.620 NA 
HETATM   19  H   UNL     1     -12.192   8.325  74.070  1.00  0.00     0.000 HD 
BRANCH  18  20
HETATM   20  C   UNL     1     -10.661   7.197  73.063  1.00  0.00    -0.321 A  
HETATM   21  C   UNL     1     -10.568   5.880  72.588  1.00  0.00    -0.255 A  
HETATM   22  C   UNL     1      -9.342   5.206  72.554  1.00  0.00    -0.152 A  
HETATM   23  C   UNL     1      -8.190   5.845  73.010  1.00  0.00    -0.117 A  
HETATM   24  O   UNL     1      -6.998   5.168  72.997  1.00  0.00    -0.074 OA 
HETATM   25  C   UNL     1      -8.247   7.162  73.487  1.00  0.00    -0.138 A  
HETATM   26  C   UNL     1      -7.068   7.915  74.001  1.00  0.00    -0.135 C  
HETATM   27  C   UNL     1      -9.490   7.823  73.508  1.00  0.00    -0.346 A  
HETATM   28  H   UNL     1      -6.213   5.603  73.308  1.00  0.00     0.000 HD 
HETATM   29  O   UNL     1      -7.151   9.067  74.403  1.00  0.00    -0.400 OA 
HETATM   30  O   UNL     1      -5.899   7.240  73.998  1.00  0.00    -0.060 OA 
ENDBRANCH  18  20
ENDBRANCH  16  18
ENDBRANCH  13  16
ENDBRANCH   7  10
ENDBRANCH   5   6
ENDBRANCH   4   5
TORSDOF 6
ENDMDL
MODEL       49
REMARK 921   NORMALIZED FREE ENERGY PREDICTED BY IDOCK:   -6.47 KCAL/MOL
REMARK 922        TOTAL FREE ENERGY PREDICTED BY IDOCK:   -9.72 KCAL/MOL
REMARK 923 INTER-LIGAND FREE ENERGY PREDICTED BY IDOCK:   -8.82 KCAL/MOL
REMARK 924 INTRA-LIGAND FREE ENERGY PREDICTED BY IDOCK:   -0.90 KCAL/MOL
REMARK 927      BINDING AFFINITY PREDICTED BY RF-SCORE:    0.00 PKD
ROOT
HETATM    1  O   UNL     1     -10.371  19.431  65.644  1.00  0.00    -0.475 OA 
HETATM    2  C   UNL     1      -9.259  19.260  66.390  1.00  0.00    -0.352 C  
HETATM    3  O   UNL     1      -8.187  18.928  65.906  1.00  0.00    -0.477 OA 
HETATM    4  C   UNL     1      -9.460  19.514  67.859  1.00  0.00    -0.423 C  
ENDROOT
BRANCH   4   5
HETATM    5  C   UNL     1      -9.929  18.260  68.576  1.00  0.00    -0.393 C  
BRANCH   5   6
HETATM    6  N   UNL     1     -10.211  17.166  67.668  1.00  0.00    -0.316 N  
HETATM    7  C   UNL     1     -11.055  16.132  68.022  1.00  0.00    -0.317 C  
HETATM    8  H   UNL     1      -9.776  17.160  66.746  1.00  0.00     0.000 HD 
HETATM    9  O   UNL     1     -11.632  16.076  69.102  1.00  0.00    -0.356 OA 
BRANCH   7  10
HETATM   10  C   UNL     1     -11.194  15.023  67.033  1.00  0.00    -0.328 A  
HETATM   11  C   UNL     1     -10.826  15.261  65.704  1.00  0.00    -0.371 A  
HETATM   12  C   UNL     1     -11.009  14.271  64.729  1.00  0.00    -0.408 A  
HETATM   13  C   UNL     1     -11.549  13.020  65.057  1.00  0.00    -0.325 A  
HETATM   14  C   UNL     1     -11.691  13.762  67.385  1.00  0.00    -0.417 A  
HETATM   15  C   UNL     1     -11.876  12.778  66.402  1.00  0.00    -0.472 A  
BRANCH  13  16
HETATM   16  N   UNL     1     -11.799  12.108  64.006  1.00  0.00    -0.412 NA 
HETATM   17  H   UNL     1     -12.618  11.501  63.969  1.00  0.00     0.000 HD 
BRANCH  16  18
HETATM   18  N   UNL     1     -10.911  12.125  63.128  1.00  0.00    -0.681 NA 
HETATM   19  H   UNL     1     -10.914  12.766  62.334  1.00  0.00     0.000 HD 
BRANCH  18  20
HETATM   20  C   UNL     1      -9.904  11.159  63.348  1.00  0.00    -0.361 A  
HETATM   21  C   UNL     1      -8.855  10.912  62.449  1.00  0.00    -0.358 A  
HETATM   22  C   UNL     1      -7.932   9.885  62.676  1.00  0.00    -0.135 A  
HETATM   23  C   UNL     1      -8.056   9.082  63.810  1.00  0.00    -0.164 A  
HETATM   24  O   UNL     1      -7.162   8.063  64.010  1.00  0.00    -0.079 OA 
HETATM   25  C   UNL     1      -9.090   9.306  64.730  1.00  0.00    -0.201 A  
HETATM   26  C   UNL     1      -9.301   8.491  65.960  1.00  0.00    -0.199 C  
HETATM   27  C   UNL     1     -10.005  10.347  64.484  1.00  0.00    -0.401 A  
HETATM   28  H   UNL     1      -7.247   7.515  64.782  1.00  0.00     0.000 HD 
HETATM   29  O   UNL     1     -10.209   8.717  66.747  1.00  0.00    -0.270 OA 
HETATM   30  O   UNL     1      -8.426   7.479  66.147  1.00  0.00    -0.129 OA 
ENDBRANCH  18  20
ENDBRANCH  16  18
ENDBRANCH  13  16
ENDBRANCH   7  10
ENDBRANCH   5   6
ENDBRANCH   4   5
TORSDOF 6
ENDMDL
MODEL       50
REMARK 921   NORMALIZED FREE ENERGY PREDICTED BY IDOCK:   -6.43 KCAL/MOL
REMARK 922        TOTAL FREE ENERGY PREDICTED BY IDOCK:   -9.67 KCAL/MOL
REMARK 923 INTER-LIGAND FREE ENERGY PREDICTED BY IDOCK:   -9.54 KCAL/MOL
REMARK 924 INTRA-LIGAND FREE ENERGY PREDICTED BY IDOCK:   -0.13 KCAL/MOL
REMARK 927      BINDING AFFINITY PREDICTED BY RF-SCORE:    0.00 PKD
ROOT
HETATM    1  O   UNL     1     -13.701  16.430  73.443  1.00  0.00    -0.528 OA 
HETATM    2  C   UNL     1     -12.669  15.732  72.923  1.00  0.00    -0.468 C  
HETATM    3  O   UNL     1     -11.808  16.250  72.226  1.00  0.00    -0.510 OA 
HETATM    4  C   UNL     1     -12.675  14.270  73.278  1.00  0.00    -0.259 C  
ENDROOT
BRANCH   4   5
HETATM    5  C   UNL     1     -13.497  13.466  72.286  1.00  0.00    -0.586 C  
BRANCH   5   6
HETATM    6  N   UNL     1     -12.738  13.071  71.117  1.00  0.00    -0.336 N  
HETATM    7  C   UNL     1     -12.402  11.751  70.884  1.00  0.00    -0.320 C  
HETATM    8  H   UNL     1     -12.444  13.784  70.450  1.00  0.00     0.000 HD 
HETATM    9  O   UNL     1     -12.735  10.834  71.626  1.00  0.00    -0.411 OA 
BRANCH   7  10
HETATM   10  C   UNL     1     -11.544  11.486  69.691  1.00  0.00    -0.403 A  
HETATM   11  C   UNL     1     -10.600  12.450  69.319  1.00  0.00     0.092 A  
HETATM   12  C   UNL     1      -9.825  12.274  68.165  1.00  0.00    -0.212 A  
HETATM   13  C   UNL     1      -9.963  11.131  67.365  1.00  0.00    -0.179 A  
HETATM   14  C   UNL     1     -11.660  10.318  68.929  1.00  0.00    -0.132 A  
HETATM   15  C   UNL     1     -10.884  10.152  67.772  1.00  0.00    -0.346 A  
BRANCH  13  16
HETATM   16  N   UNL     1      -9.222  11.069  66.163  1.00  0.00    -0.183 NA 
HETATM   17  H   UNL     1      -8.205  11.136  66.123  1.00  0.00     0.000 HD 
BRANCH  16  18
HETATM   18  N   UNL     1      -9.944  10.924  65.154  1.00  0.00    -0.263 NA 
HETATM   19  H   UNL     1     -10.003  10.054  64.623  1.00  0.00     0.000 HD 
BRANCH  18  20
HETATM   20  C   UNL     1     -10.669  12.091  64.826  1.00  0.00    -0.306 A  
HETATM   21  C   UNL     1     -11.812  12.092  64.011  1.00  0.00    -0.500 A  
HETATM   22  C   UNL     1     -12.443  13.287  63.648  1.00  0.00    -0.347 A  
HETATM   23  C   UNL     1     -11.924  14.503  64.090  1.00  0.00    -0.321 A  
HETATM   24  O   UNL     1     -12.534  15.670  63.707  1.00  0.00    -0.934 OA 
HETATM   25  C   UNL     1     -10.787  14.538  64.907  1.00  0.00    -0.436 A  
HETATM   26  C   UNL     1     -10.162  15.793  65.416  1.00  0.00    -0.349 C  
HETATM   27  C   UNL     1     -10.170  13.323  65.265  1.00  0.00    -0.303 A  
HETATM   28  H   UNL     1     -12.181  16.499  64.008  1.00  0.00     0.000 HD 
HETATM   29  O   UNL     1      -9.173  15.787  66.134  1.00  0.00    -0.302 OA 
HETATM   30  O   UNL     1     -10.758  16.940  65.026  1.00  0.00    -0.700 OA 
ENDBRANCH  18  20
ENDBRANCH  16  18
ENDBRANCH  13  16
ENDBRANCH   7  10
ENDBRANCH   5   6
ENDBRANCH   4   5
TORSDOF 6
ENDMDL
MODEL       51
REMARK 921   NORMALIZED FREE ENERGY PREDICTED BY IDOCK:   -6.32 KCAL/MOL
REMARK 922        TOTAL FREE ENERGY PREDICTED BY IDOCK:   -9.53 KCAL/MOL
REMARK 923 INTER-LIGAND FREE ENERGY PREDICTED BY IDOCK:   -8.57 KCAL/MOL
REMARK 924 INTRA-LIGAND FREE ENERGY PREDICTED BY IDOCK:   -0.96 KCAL/MOL
REMARK 927      BINDING AFFINITY PREDICTED BY RF-SCORE:    0.00 PKD
ROOT
HETATM    1  O   UNL     1      -7.960   6.073  73.767  1.00  0.00    -0.102 OA 
HETATM    2  C   UNL     1      -8.380   5.758  72.523  1.00  0.00    -0.117 C  
HETATM    3  O   UNL     1      -7.871   6.231  71.517  1.00  0.00    -0.099 OA 
HETATM    4  C   UNL     1      -9.523   4.781  72.490  1.00  0.00    -0.165 C  
ENDROOT
BRANCH   4   5
HETATM    5  C   UNL     1     -10.861   5.493  72.577  1.00  0.00    -0.252 C  
BRANCH   5   6
HETATM    6  N   UNL     1     -10.947   6.636  71.691  1.00  0.00    -0.234 N  
HETATM    7  C   UNL     1     -11.347   7.878  72.148  1.00  0.00    -0.313 C  
HETATM    8  H   UNL     1     -10.706   6.522  70.707  1.00  0.00     0.000 HD 
HETATM    9  O   UNL     1     -11.633   8.102  73.319  1.00  0.00    -0.168 OA 
BRANCH   7  10
HETATM   10  C   UNL     1     -11.479   8.951  71.119  1.00  0.00    -0.364 A  
HETATM   11  C   UNL     1     -12.319  10.037  71.388  1.00  0.00    -0.512 A  
HETATM   12  C   UNL     1     -12.528  11.029  70.420  1.00  0.00    -0.397 A  
HETATM   13  C   UNL     1     -11.895  10.969  69.171  1.00  0.00    -0.337 A  
HETATM   14  C   UNL     1     -10.803   8.902  69.894  1.00  0.00    -0.219 A  
HETATM   15  C   UNL     1     -11.021   9.896  68.928  1.00  0.00    -0.214 A  
BRANCH  13  16
HETATM   16  N   UNL     1     -12.231  11.949  68.209  1.00  0.00    -0.365 NA 
HETATM   17  H   UNL     1     -12.924  12.681  68.368  1.00  0.00     0.000 HD 
BRANCH  16  18
HETATM   18  N   UNL     1     -11.590  11.825  67.145  1.00  0.00    -0.544 NA 
HETATM   19  H   UNL     1     -11.539  10.955  66.614  1.00  0.00     0.000 HD 
BRANCH  18  20
HETATM   20  C   UNL     1     -10.942  13.018  66.753  1.00  0.00    -0.276 A  
HETATM   21  C   UNL     1      -9.742  13.472  67.322  1.00  0.00    -0.236 A  
HETATM   22  C   UNL     1      -9.187  14.704  66.956  1.00  0.00    -0.252 A  
HETATM   23  C   UNL     1      -9.839  15.504  66.019  1.00  0.00    -0.335 A  
HETATM   24  O   UNL     1      -9.301  16.721  65.687  1.00  0.00    -0.511 OA 
HETATM   25  C   UNL     1     -11.037  15.078  65.430  1.00  0.00    -0.377 A  
HETATM   26  C   UNL     1     -11.803  15.874  64.428  1.00  0.00    -0.101 C  
HETATM   27  C   UNL     1     -11.575  13.834  65.808  1.00  0.00    -0.342 A  
HETATM   28  H   UNL     1      -9.745  17.267  65.049  1.00  0.00     0.000 HD 
HETATM   29  O   UNL     1     -12.842  15.470  63.927  1.00  0.00    -0.605 OA 
HETATM   30  O   UNL     1     -11.276  17.077  64.113  1.00  0.00    -1.130 OA 
ENDBRANCH  18  20
ENDBRANCH  16  18
ENDBRANCH  13  16
ENDBRANCH   7  10
ENDBRANCH   5   6
ENDBRANCH   4   5
TORSDOF 6
ENDMDL
MODEL       52
REMARK 921   NORMALIZED FREE ENERGY PREDICTED BY IDOCK:   -6.31 KCAL/MOL
REMARK 922        TOTAL FREE ENERGY PREDICTED BY IDOCK:   -9.52 KCAL/MOL
REMARK 923 INTER-LIGAND FREE ENERGY PREDICTED BY IDOCK:   -8.26 KCAL/MOL
REMARK 924 INTRA-LIGAND FREE ENERGY PREDICTED BY IDOCK:   -1.26 KCAL/MOL
REMARK 927      BINDING AFFINITY PREDICTED BY RF-SCORE:    0.00 PKD
ROOT
HETATM    1  O   UNL     1      -7.745   5.974  71.976  1.00  0.00    -0.096 OA 
HETATM    2  C   UNL     1      -8.838   5.452  71.379  1.00  0.00    -0.135 C  
HETATM    3  O   UNL     1      -9.116   5.672  70.208  1.00  0.00    -0.139 OA 
HETATM    4  C   UNL     1      -9.673   4.583  72.278  1.00  0.00    -0.217 C  
ENDROOT
BRANCH   4   5
HETATM    5  C   UNL     1     -10.694   5.404  73.045  1.00  0.00    -0.257 C  
BRANCH   5   6
HETATM    6  N   UNL     1     -10.786   6.771  72.572  1.00  0.00    -0.221 N  
HETATM    7  C   UNL     1     -11.964   7.284  72.065  1.00  0.00    -0.296 C  
HETATM    8  H   UNL     1      -9.960   7.369  72.615  1.00  0.00     0.000 HD 
HETATM    9  O   UNL     1     -13.004   6.638  71.999  1.00  0.00    -0.267 OA 
BRANCH   7  10
HETATM   10  C   UNL     1     -11.904   8.677  71.530  1.00  0.00    -0.366 A  
HETATM   11  C   UNL     1     -13.011   9.513  71.716  1.00  0.00    -0.502 A  
HETATM   12  C   UNL     1     -13.024  10.802  71.167  1.00  0.00    -0.467 A  
HETATM   13  C   UNL     1     -11.934  11.292  70.435  1.00  0.00    -0.380 A  
HETATM   14  C   UNL     1     -10.788   9.168  70.842  1.00  0.00    -0.345 A  
HETATM   15  C   UNL     1     -10.813  10.458  70.291  1.00  0.00    -0.308 A  
BRANCH  13  16
HETATM   16  N   UNL     1     -12.060  12.561  69.826  1.00  0.00    -0.264 NA 
HETATM   17  H   UNL     1     -12.927  13.098  69.814  1.00  0.00     0.000 HD 
BRANCH  16  18
HETATM   18  N   UNL     1     -10.996  12.957  69.304  1.00  0.00    -0.436 NA 
HETATM   19  H   UNL     1     -10.125  13.078  69.821  1.00  0.00     0.000 HD 
BRANCH  18  20
HETATM   20  C   UNL     1     -11.129  13.220  67.922  1.00  0.00    -0.262 A  
HETATM   21  C   UNL     1     -11.688  14.398  67.406  1.00  0.00    -0.424 A  
HETATM   22  C   UNL     1     -11.873  14.571  66.029  1.00  0.00    -0.339 A  
HETATM   23  C   UNL     1     -11.507  13.552  65.150  1.00  0.00    -0.301 A  
HETATM   24  O   UNL     1     -11.716  13.721  63.806  1.00  0.00    -0.642 OA 
HETATM   25  C   UNL     1     -10.943  12.364  65.633  1.00  0.00    -0.321 A  
HETATM   26  C   UNL     1     -10.532  11.223  64.765  1.00  0.00    -0.323 C  
HETATM   27  C   UNL     1     -10.761  12.213  67.021  1.00  0.00    -0.272 A  
HETATM   28  H   UNL     1     -11.468  13.026  63.206  1.00  0.00     0.000 HD 
HETATM   29  O   UNL     1     -10.035  10.202  65.218  1.00  0.00    -0.300 OA 
HETATM   30  O   UNL     1     -10.752  11.387  63.443  1.00  0.00    -0.381 OA 
ENDBRANCH  18  20
ENDBRANCH  16  18
ENDBRANCH  13  16
ENDBRANCH   7  10
ENDBRANCH   5   6
ENDBRANCH   4   5
TORSDOF 6
ENDMDL
MODEL       53
REMARK 921   NORMALIZED FREE ENERGY PREDICTED BY IDOCK:   -6.31 KCAL/MOL
REMARK 922        TOTAL FREE ENERGY PREDICTED BY IDOCK:   -9.51 KCAL/MOL
REMARK 923 INTER-LIGAND FREE ENERGY PREDICTED BY IDOCK:   -8.24 KCAL/MOL
REMARK 924 INTRA-LIGAND FREE ENERGY PREDICTED BY IDOCK:   -1.27 KCAL/MOL
REMARK 927      BINDING AFFINITY PREDICTED BY RF-SCORE:    0.00 PKD
ROOT
HETATM    1  O   UNL     1      -8.961  11.509  62.333  1.00  0.00    -0.316 OA 
HETATM    2  C   UNL     1      -9.708  10.813  63.217  1.00  0.00    -0.355 C  
HETATM    3  O   UNL     1     -10.867  11.106  63.473  1.00  0.00    -0.352 OA 
HETATM    4  C   UNL     1      -8.988   9.655  63.852  1.00  0.00    -0.254 C  
ENDROOT
BRANCH   4   5
HETATM    5  C   UNL     1      -8.231  10.091  65.094  1.00  0.00    -0.146 C  
BRANCH   5   6
HETATM    6  N   UNL     1      -8.652  11.389  65.582  1.00  0.00    -0.382 N  
HETATM    7  C   UNL     1      -9.560  11.514  66.616  1.00  0.00    -0.197 C  
HETATM    8  H   UNL     1      -8.268  12.231  65.152  1.00  0.00     0.000 HD 
HETATM    9  O   UNL     1     -10.050  10.553  67.198  1.00  0.00    -0.192 OA 
BRANCH   7  10
HETATM   10  C   UNL     1      -9.977  12.904  66.966  1.00  0.00    -0.244 A  
HETATM   11  C   UNL     1     -10.368  13.173  68.283  1.00  0.00    -0.256 A  
HETATM   12  C   UNL     1     -10.837  14.446  68.636  1.00  0.00    -0.260 A  
HETATM   13  C   UNL     1     -10.912  15.480  67.693  1.00  0.00    -0.315 A  
HETATM   14  C   UNL     1     -10.003  13.939  66.024  1.00  0.00    -0.325 A  
HETATM   15  C   UNL     1     -10.478  15.209  66.385  1.00  0.00    -0.300 A  
BRANCH  13  16
HETATM   16  N   UNL     1     -11.489  16.706  68.097  1.00  0.00    -0.099 NA 
HETATM   17  H   UNL     1     -12.346  17.085  67.695  1.00  0.00     0.000 HD 
BRANCH  16  18
HETATM   18  N   UNL     1     -10.839  17.275  68.999  1.00  0.00    -0.310 NA 
HETATM   19  H   UNL     1     -10.856  16.984  69.977  1.00  0.00     0.000 HD 
BRANCH  18  20
HETATM   20  C   UNL     1     -10.078  18.365  68.521  1.00  0.00    -0.384 A  
HETATM   21  C   UNL     1     -10.494  19.204  67.476  1.00  0.00    -0.549 A  
HETATM   22  C   UNL     1      -9.663  20.218  66.985  1.00  0.00    -0.598 A  
HETATM   23  C   UNL     1      -8.393  20.396  67.532  1.00  0.00    -0.282 A  
HETATM   24  O   UNL     1      -7.577  21.375  67.027  1.00  0.00    -0.799 OA 
HETATM   25  C   UNL     1      -7.949  19.578  68.580  1.00  0.00    -0.383 A  
HETATM   26  C   UNL     1      -6.605  19.693  69.216  1.00  0.00    -0.344 C  
HETATM   27  C   UNL     1      -8.803  18.567  69.062  1.00  0.00    -0.081 A  
HETATM   28  H   UNL     1      -6.711  21.496  67.400  1.00  0.00     0.000 HD 
HETATM   29  O   UNL     1      -6.251  18.968  70.134  1.00  0.00    -0.213 OA 
HETATM   30  O   UNL     1      -5.800  20.650  68.707  1.00  0.00    -0.302 OA 
ENDBRANCH  18  20
ENDBRANCH  16  18
ENDBRANCH  13  16
ENDBRANCH   7  10
ENDBRANCH   5   6
ENDBRANCH   4   5
TORSDOF 6
ENDMDL
MODEL       54
REMARK 921   NORMALIZED FREE ENERGY PREDICTED BY IDOCK:   -6.28 KCAL/MOL
REMARK 922        TOTAL FREE ENERGY PREDICTED BY IDOCK:   -9.46 KCAL/MOL
REMARK 923 INTER-LIGAND FREE ENERGY PREDICTED BY IDOCK:   -8.35 KCAL/MOL
REMARK 924 INTRA-LIGAND FREE ENERGY PREDICTED BY IDOCK:   -1.12 KCAL/MOL
REMARK 927      BINDING AFFINITY PREDICTED BY RF-SCORE:    0.00 PKD
ROOT
HETATM    1  O   UNL     1     -10.108   4.548  70.743  1.00  0.00    -0.214 OA 
HETATM    2  C   UNL     1      -8.984   4.368  70.017  1.00  0.00    -0.092 C  
HETATM    3  O   UNL     1      -7.996   5.077  70.147  1.00  0.00    -0.075 OA 
HETATM    4  C   UNL     1      -9.059   3.226  69.042  1.00  0.00    -0.207 C  
ENDROOT
BRANCH   4   5
HETATM    5  C   UNL     1      -9.643   3.673  67.713  1.00  0.00    -0.134 C  
BRANCH   5   6
HETATM    6  N   UNL     1     -10.051   5.063  67.718  1.00  0.00    -0.146 N  
HETATM    7  C   UNL     1      -9.319   6.036  67.065  1.00  0.00    -0.122 C  
HETATM    8  H   UNL     1     -10.901   5.331  68.216  1.00  0.00     0.000 HD 
HETATM    9  O   UNL     1      -8.300   5.793  66.428  1.00  0.00    -0.109 OA 
BRANCH   7  10
HETATM   10  C   UNL     1      -9.797   7.441  67.219  1.00  0.00    -0.230 A  
HETATM   11  C   UNL     1      -9.692   8.308  66.126  1.00  0.00    -0.189 A  
HETATM   12  C   UNL     1     -10.061   9.654  66.250  1.00  0.00    -0.322 A  
HETATM   13  C   UNL     1     -10.556  10.163  67.459  1.00  0.00    -0.273 A  
HETATM   14  C   UNL     1     -10.333   7.923  68.420  1.00  0.00    -0.235 A  
HETATM   15  C   UNL     1     -10.696   9.273  68.537  1.00  0.00    -0.185 A  
BRANCH  13  16
HETATM   16  N   UNL     1     -10.812  11.550  67.540  1.00  0.00    -0.222 NA 
HETATM   17  H   UNL     1     -10.135  12.229  67.888  1.00  0.00     0.000 HD 
BRANCH  16  18
HETATM   18  N   UNL     1     -11.954  11.858  67.139  1.00  0.00    -0.603 NA 
HETATM   19  H   UNL     1     -12.801  11.357  67.408  1.00  0.00     0.000 HD 
BRANCH  18  20
HETATM   20  C   UNL     1     -11.949  12.974  66.273  1.00  0.00    -0.414 A  
HETATM   21  C   UNL     1     -12.500  12.959  64.983  1.00  0.00    -0.553 A  
HETATM   22  C   UNL     1     -12.392  14.067  64.134  1.00  0.00    -0.374 A  
HETATM   23  C   UNL     1     -11.716  15.206  64.568  1.00  0.00    -0.328 A  
HETATM   24  O   UNL     1     -11.593  16.276  63.721  1.00  0.00    -1.539 OA 
HETATM   25  C   UNL     1     -11.157  15.255  65.852  1.00  0.00    -0.287 A  
HETATM   26  C   UNL     1     -10.410  16.428  66.393  1.00  0.00    -0.313 C  
HETATM   27  C   UNL     1     -11.281  14.131  66.691  1.00  0.00    -0.330 A  
HETATM   28  H   UNL     1     -11.132  17.053  64.016  1.00  0.00     0.000 HD 
HETATM   29  O   UNL     1      -9.941  16.442  67.521  1.00  0.00    -0.241 OA 
HETATM   30  O   UNL     1     -10.281  17.475  65.550  1.00  0.00    -0.608 OA 
ENDBRANCH  18  20
ENDBRANCH  16  18
ENDBRANCH  13  16
ENDBRANCH   7  10
ENDBRANCH   5   6
ENDBRANCH   4   5
TORSDOF 6
ENDMDL
MODEL       55
REMARK 921   NORMALIZED FREE ENERGY PREDICTED BY IDOCK:   -6.27 KCAL/MOL
REMARK 922        TOTAL FREE ENERGY PREDICTED BY IDOCK:   -9.46 KCAL/MOL
REMARK 923 INTER-LIGAND FREE ENERGY PREDICTED BY IDOCK:   -8.45 KCAL/MOL
REMARK 924 INTRA-LIGAND FREE ENERGY PREDICTED BY IDOCK:   -1.01 KCAL/MOL
REMARK 927      BINDING AFFINITY PREDICTED BY RF-SCORE:    0.00 PKD
ROOT
HETATM    1  O   UNL     1     -10.338  17.678  65.730  1.00  0.00    -0.558 OA 
HETATM    2  C   UNL     1      -9.538  18.620  66.274  1.00  0.00    -0.283 C  
HETATM    3  O   UNL     1      -8.382  18.789  65.914  1.00  0.00    -0.490 OA 
HETATM    4  C   UNL     1     -10.196  19.434  67.354  1.00  0.00    -0.530 C  
ENDROOT
BRANCH   4   5
HETATM    5  C   UNL     1     -10.050  18.769  68.711  1.00  0.00    -0.354 C  
BRANCH   5   6
HETATM    6  N   UNL     1     -10.607  17.432  68.744  1.00  0.00    -0.324 N  
HETATM    7  C   UNL     1      -9.811  16.321  68.953  1.00  0.00    -0.246 C  
HETATM    8  H   UNL     1     -11.610  17.307  68.611  1.00  0.00     0.000 HD 
HETATM    9  O   UNL     1      -8.602  16.388  69.142  1.00  0.00    -0.242 OA 
BRANCH   7  10
HETATM   10  C   UNL     1     -10.493  14.995  68.877  1.00  0.00    -0.241 A  
HETATM   11  C   UNL     1     -11.654  14.795  69.633  1.00  0.00    -0.342 A  
HETATM   12  C   UNL     1     -12.282  13.543  69.647  1.00  0.00    -0.304 A  
HETATM   13  C   UNL     1     -11.779  12.468  68.901  1.00  0.00    -0.322 A  
HETATM   14  C   UNL     1     -10.004  13.946  68.090  1.00  0.00    -0.240 A  
HETATM   15  C   UNL     1     -10.637  12.693  68.115  1.00  0.00    -0.241 A  
BRANCH  13  16
HETATM   16  N   UNL     1     -12.406  11.210  69.044  1.00  0.00    -0.590 NA 
HETATM   17  H   UNL     1     -13.403  11.094  69.227  1.00  0.00     0.000 HD 
BRANCH  16  18
HETATM   18  N   UNL     1     -11.611  10.254  68.922  1.00  0.00    -0.497 NA 
HETATM   19  H   UNL     1     -11.078  10.068  68.072  1.00  0.00     0.000 HD 
BRANCH  18  20
HETATM   20  C   UNL     1     -11.528   9.458  70.086  1.00  0.00    -0.138 A  
HETATM   21  C   UNL     1     -12.411   9.573  71.170  1.00  0.00    -0.399 A  
HETATM   22  C   UNL     1     -12.232   8.819  72.335  1.00  0.00    -0.396 A  
HETATM   23  C   UNL     1     -11.151   7.943  72.432  1.00  0.00    -0.333 A  
HETATM   24  O   UNL     1     -10.970   7.227  73.587  1.00  0.00    -0.540 OA 
HETATM   25  C   UNL     1     -10.253   7.802  71.366  1.00  0.00    -0.211 A  
HETATM   26  C   UNL     1      -9.068   6.897  71.388  1.00  0.00    -0.148 C  
HETATM   27  C   UNL     1     -10.454   8.567  70.201  1.00  0.00    -0.226 A  
HETATM   28  H   UNL     1     -10.233   6.631  73.653  1.00  0.00     0.000 HD 
HETATM   29  O   UNL     1      -8.307   6.791  70.437  1.00  0.00    -0.126 OA 
HETATM   30  O   UNL     1      -8.885   6.204  72.532  1.00  0.00    -0.126 OA 
ENDBRANCH  18  20
ENDBRANCH  16  18
ENDBRANCH  13  16
ENDBRANCH   7  10
ENDBRANCH   5   6
ENDBRANCH   4   5
TORSDOF 6
ENDMDL
MODEL       56
REMARK 921   NORMALIZED FREE ENERGY PREDICTED BY IDOCK:   -6.25 KCAL/MOL
REMARK 922        TOTAL FREE ENERGY PREDICTED BY IDOCK:   -9.44 KCAL/MOL
REMARK 923 INTER-LIGAND FREE ENERGY PREDICTED BY IDOCK:   -8.65 KCAL/MOL
REMARK 924 INTRA-LIGAND FREE ENERGY PREDICTED BY IDOCK:   -0.78 KCAL/MOL
REMARK 927      BINDING AFFINITY PREDICTED BY RF-SCORE:    0.00 PKD
ROOT
HETATM    1  O   UNL     1     -12.635  14.474  63.826  1.00  0.00    -0.825 OA 
HETATM    2  C   UNL     1     -11.857  15.451  64.341  1.00  0.00    -0.256 C  
HETATM    3  O   UNL     1     -11.709  16.533  63.790  1.00  0.00    -1.086 OA 
HETATM    4  C   UNL     1     -11.196  15.088  65.642  1.00  0.00    -0.327 C  
ENDROOT
BRANCH   4   5
HETATM    5  C   UNL     1      -9.868  14.388  65.409  1.00  0.00    -0.230 C  
BRANCH   5   6
HETATM    6  N   UNL     1      -9.790  13.099  66.066  1.00  0.00    -0.337 N  
HETATM    7  C   UNL     1     -10.205  11.940  65.439  1.00  0.00    -0.263 C  
HETATM    8  H   UNL     1      -9.420  13.047  67.015  1.00  0.00     0.000 HD 
HETATM    9  O   UNL     1     -10.642  11.917  64.294  1.00  0.00    -0.286 OA 
BRANCH   7  10
HETATM   10  C   UNL     1     -10.154  10.691  66.255  1.00  0.00    -0.291 A  
HETATM   11  C   UNL     1      -9.750   9.503  65.636  1.00  0.00    -0.361 A  
HETATM   12  C   UNL     1      -9.759   8.295  66.347  1.00  0.00    -0.300 A  
HETATM   13  C   UNL     1     -10.155   8.245  67.690  1.00  0.00    -0.209 A  
HETATM   14  C   UNL     1     -10.509  10.666  67.609  1.00  0.00    -0.267 A  
HETATM   15  C   UNL     1     -10.520   9.451  68.312  1.00  0.00    -0.260 A  
BRANCH  13  16
HETATM   16  N   UNL     1     -10.236   6.979  68.311  1.00  0.00    -0.174 NA 
HETATM   17  H   UNL     1      -9.441   6.346  68.407  1.00  0.00     0.000 HD 
BRANCH  16  18
HETATM   18  N   UNL     1     -11.382   6.715  68.732  1.00  0.00    -0.584 NA 
HETATM   19  H   UNL     1     -12.223   6.784  68.159  1.00  0.00     0.000 HD 
BRANCH  18  20
HETATM   20  C   UNL     1     -11.390   6.312  70.086  1.00  0.00    -0.406 A  
HETATM   21  C   UNL     1     -12.234   6.871  71.057  1.00  0.00    -0.427 A  
HETATM   22  C   UNL     1     -12.142   6.494  72.402  1.00  0.00    -0.151 A  
HETATM   23  C   UNL     1     -11.187   5.555  72.792  1.00  0.00    -0.305 A  
HETATM   24  O   UNL     1     -11.087   5.212  74.116  1.00  0.00    -0.420 OA 
HETATM   25  C   UNL     1     -10.331   4.976  71.847  1.00  0.00    -0.270 A  
HETATM   26  C   UNL     1      -9.278   3.973  72.178  1.00  0.00    -0.123 C  
HETATM   27  C   UNL     1     -10.444   5.366  70.498  1.00  0.00    -0.335 A  
HETATM   28  H   UNL     1     -10.436   4.573  74.382  1.00  0.00     0.000 HD 
HETATM   29  O   UNL     1      -8.551   3.481  71.327  1.00  0.00    -0.067 OA 
HETATM   30  O   UNL     1      -9.174   3.648  73.485  1.00  0.00    -0.097 OA 
ENDBRANCH  18  20
ENDBRANCH  16  18
ENDBRANCH  13  16
ENDBRANCH   7  10
ENDBRANCH   5   6
ENDBRANCH   4   5
TORSDOF 6
ENDMDL
MODEL       57
REMARK 921   NORMALIZED FREE ENERGY PREDICTED BY IDOCK:   -6.25 KCAL/MOL
REMARK 922        TOTAL FREE ENERGY PREDICTED BY IDOCK:   -9.43 KCAL/MOL
REMARK 923 INTER-LIGAND FREE ENERGY PREDICTED BY IDOCK:   -8.37 KCAL/MOL
REMARK 924 INTRA-LIGAND FREE ENERGY PREDICTED BY IDOCK:   -1.06 KCAL/MOL
REMARK 927      BINDING AFFINITY PREDICTED BY RF-SCORE:    0.00 PKD
ROOT
HETATM    1  O   UNL     1      -5.498  15.560  67.456  1.00  0.00    -0.279 OA 
HETATM    2  C   UNL     1      -6.174  16.632  67.921  1.00  0.00    -0.134 C  
HETATM    3  O   UNL     1      -6.592  16.700  69.068  1.00  0.00    -0.172 OA 
HETATM    4  C   UNL     1      -6.364  17.725  66.906  1.00  0.00    -0.196 C  
ENDROOT
BRANCH   4   5
HETATM    5  C   UNL     1      -7.621  17.502  66.084  1.00  0.00    -0.285 C  
BRANCH   5   6
HETATM    6  N   UNL     1      -8.350  16.315  66.484  1.00  0.00    -0.279 N  
HETATM    7  C   UNL     1      -9.619  16.049  66.005  1.00  0.00    -0.350 C  
HETATM    8  H   UNL     1      -7.916  15.660  67.135  1.00  0.00     0.000 HD 
HETATM    9  O   UNL     1     -10.199  16.774  65.205  1.00  0.00    -0.607 OA 
BRANCH   7  10
HETATM   10  C   UNL     1     -10.296  14.840  66.560  1.00  0.00    -0.287 A  
HETATM   11  C   UNL     1     -11.245  15.012  67.575  1.00  0.00    -0.333 A  
HETATM   12  C   UNL     1     -11.850  13.899  68.174  1.00  0.00    -0.407 A  
HETATM   13  C   UNL     1     -11.536  12.595  67.769  1.00  0.00    -0.348 A  
HETATM   14  C   UNL     1     -10.007  13.546  66.112  1.00  0.00    -0.310 A  
HETATM   15  C   UNL     1     -10.614  12.437  66.722  1.00  0.00    -0.250 A  
BRANCH  13  16
HETATM   16  N   UNL     1     -12.110  11.521  68.487  1.00  0.00    -0.535 NA 
HETATM   17  H   UNL     1     -12.488  10.684  68.042  1.00  0.00     0.000 HD 
BRANCH  16  18
HETATM   18  N   UNL     1     -12.103  11.703  69.722  1.00  0.00    -0.303 NA 
HETATM   19  H   UNL     1     -12.055  12.625  70.156  1.00  0.00     0.000 HD 
BRANCH  18  20
HETATM   20  C   UNL     1     -12.169  10.497  70.454  1.00  0.00    -0.328 A  
HETATM   21  C   UNL     1     -13.085  10.267  71.492  1.00  0.00    -0.534 A  
HETATM   22  C   UNL     1     -13.051   9.086  72.242  1.00  0.00    -0.508 A  
HETATM   23  C   UNL     1     -12.083   8.120  71.966  1.00  0.00    -0.340 A  
HETATM   24  O   UNL     1     -12.042   6.978  72.723  1.00  0.00    -0.493 OA 
HETATM   25  C   UNL     1     -11.156   8.317  70.934  1.00  0.00    -0.289 A  
HETATM   26  C   UNL     1     -10.085   7.342  70.577  1.00  0.00    -0.191 C  
HETATM   27  C   UNL     1     -11.212   9.510  70.189  1.00  0.00    -0.275 A  
HETATM   28  H   UNL     1     -11.382   6.320  72.535  1.00  0.00     0.000 HD 
HETATM   29  O   UNL     1      -9.296   7.541  69.665  1.00  0.00    -0.154 OA 
HETATM   30  O   UNL     1     -10.039   6.225  71.334  1.00  0.00    -0.188 OA 
ENDBRANCH  18  20
ENDBRANCH  16  18
ENDBRANCH  13  16
ENDBRANCH   7  10
ENDBRANCH   5   6
ENDBRANCH   4   5
TORSDOF 6
ENDMDL
MODEL       58
REMARK 921   NORMALIZED FREE ENERGY PREDICTED BY IDOCK:   -6.24 KCAL/MOL
REMARK 922        TOTAL FREE ENERGY PREDICTED BY IDOCK:   -9.42 KCAL/MOL
REMARK 923 INTER-LIGAND FREE ENERGY PREDICTED BY IDOCK:   -8.57 KCAL/MOL
REMARK 924 INTRA-LIGAND FREE ENERGY PREDICTED BY IDOCK:   -0.85 KCAL/MOL
REMARK 927      BINDING AFFINITY PREDICTED BY RF-SCORE:    0.00 PKD
ROOT
HETATM    1  O   UNL     1     -11.855  17.006  73.310  1.00  0.00    -0.267 OA 
HETATM    2  C   UNL     1     -12.603  15.915  73.578  1.00  0.00    -0.578 C  
HETATM    3  O   UNL     1     -12.295  15.100  74.436  1.00  0.00    -0.609 OA 
HETATM    4  C   UNL     1     -13.841  15.796  72.732  1.00  0.00    -0.600 C  
ENDROOT
BRANCH   4   5
HETATM    5  C   UNL     1     -13.552  15.068  71.431  1.00  0.00    -0.460 C  
BRANCH   5   6
HETATM    6  N   UNL     1     -13.300  13.654  71.623  1.00  0.00    -0.358 N  
HETATM    7  C   UNL     1     -12.432  12.956  70.806  1.00  0.00    -0.286 C  
HETATM    8  H   UNL     1     -13.774  13.163  72.381  1.00  0.00     0.000 HD 
HETATM    9  O   UNL     1     -11.809  13.478  69.888  1.00  0.00    -0.302 OA 
BRANCH   7  10
HETATM   10  C   UNL     1     -12.326  11.488  71.053  1.00  0.00    -0.434 A  
HETATM   11  C   UNL     1     -11.256  10.789  70.483  1.00  0.00    -0.188 A  
HETATM   12  C   UNL     1     -11.160   9.398  70.629  1.00  0.00    -0.351 A  
HETATM   13  C   UNL     1     -12.116   8.676  71.356  1.00  0.00    -0.303 A  
HETATM   14  C   UNL     1     -13.263  10.788  71.821  1.00  0.00    -0.523 A  
HETATM   15  C   UNL     1     -13.162   9.394  71.958  1.00  0.00    -0.529 A  
BRANCH  13  16
HETATM   16  N   UNL     1     -12.010   7.267  71.376  1.00  0.00    -0.303 NA 
HETATM   17  H   UNL     1     -12.795   6.640  71.201  1.00  0.00     0.000 HD 
BRANCH  16  18
HETATM   18  N   UNL     1     -10.853   6.870  71.629  1.00  0.00    -0.223 NA 
HETATM   19  H   UNL     1     -10.265   7.274  72.359  1.00  0.00     0.000 HD 
BRANCH  18  20
HETATM   20  C   UNL     1     -10.445   5.803  70.798  1.00  0.00    -0.258 A  
HETATM   21  C   UNL     1      -9.758   4.673  71.267  1.00  0.00    -0.251 A  
HETATM   22  C   UNL     1      -9.302   3.684  70.387  1.00  0.00    -0.238 A  
HETATM   23  C   UNL     1      -9.522   3.825  69.017  1.00  0.00    -0.163 A  
HETATM   24  O   UNL     1      -9.049   2.864  68.161  1.00  0.00    -0.138 OA 
HETATM   25  C   UNL     1     -10.208   4.940  68.517  1.00  0.00    -0.105 A  
HETATM   26  C   UNL     1     -10.477   5.173  67.069  1.00  0.00    -0.196 C  
HETATM   27  C   UNL     1     -10.662   5.920  69.420  1.00  0.00    -0.406 A  
HETATM   28  H   UNL     1      -9.198   2.960  67.227  1.00  0.00     0.000 HD 
HETATM   29  O   UNL     1     -11.086   6.153  66.665  1.00  0.00    -0.284 OA 
HETATM   30  O   UNL     1      -9.998   4.231  66.228  1.00  0.00    -0.219 OA 
ENDBRANCH  18  20
ENDBRANCH  16  18
ENDBRANCH  13  16
ENDBRANCH   7  10
ENDBRANCH   5   6
ENDBRANCH   4   5
TORSDOF 6
ENDMDL
MODEL       59
REMARK 921   NORMALIZED FREE ENERGY PREDICTED BY IDOCK:   -6.24 KCAL/MOL
REMARK 922        TOTAL FREE ENERGY PREDICTED BY IDOCK:   -9.41 KCAL/MOL
REMARK 923 INTER-LIGAND FREE ENERGY PREDICTED BY IDOCK:   -8.62 KCAL/MOL
REMARK 924 INTRA-LIGAND FREE ENERGY PREDICTED BY IDOCK:   -0.79 KCAL/MOL
REMARK 927      BINDING AFFINITY PREDICTED BY RF-SCORE:    0.00 PKD
ROOT
HETATM    1  O   UNL     1      -8.507   5.358  65.273  1.00  0.00    -0.139 OA 
HETATM    2  C   UNL     1      -9.513   4.525  65.617  1.00  0.00    -0.173 C  
HETATM    3  O   UNL     1     -10.639   4.626  65.151  1.00  0.00    -0.138 OA 
HETATM    4  C   UNL     1      -9.124   3.473  66.618  1.00  0.00    -0.174 C  
ENDROOT
BRANCH   4   5
HETATM    5  C   UNL     1      -9.283   3.980  68.041  1.00  0.00    -0.154 C  
BRANCH   5   6
HETATM    6  N   UNL     1      -9.476   5.414  68.108  1.00  0.00    -0.114 N  
HETATM    7  C   UNL     1     -10.236   5.997  69.104  1.00  0.00    -0.204 C  
HETATM    8  H   UNL     1      -9.040   6.008  67.403  1.00  0.00     0.000 HD 
HETATM    9  O   UNL     1     -10.774   5.354  69.999  1.00  0.00    -0.308 OA 
BRANCH   7  10
HETATM   10  C   UNL     1     -10.429   7.474  69.011  1.00  0.00    -0.216 A  
HETATM   11  C   UNL     1     -10.322   8.085  67.757  1.00  0.00    -0.294 A  
HETATM   12  C   UNL     1     -10.424   9.478  67.637  1.00  0.00    -0.321 A  
HETATM   13  C   UNL     1     -10.649  10.289  68.757  1.00  0.00    -0.209 A  
HETATM   14  C   UNL     1     -10.701   8.266  70.133  1.00  0.00    -0.239 A  
HETATM   15  C   UNL     1     -10.797   9.660  70.005  1.00  0.00    -0.302 A  
BRANCH  13  16
HETATM   16  N   UNL     1     -10.639  11.691  68.575  1.00  0.00    -0.208 NA 
HETATM   17  H   UNL     1     -11.165  12.339  69.162  1.00  0.00     0.000 HD 
BRANCH  16  18
HETATM   18  N   UNL     1      -9.920  12.051  67.620  1.00  0.00    -0.188 NA 
HETATM   19  H   UNL     1      -8.910  11.914  67.591  1.00  0.00     0.000 HD 
BRANCH  18  20
HETATM   20  C   UNL     1     -10.655  12.671  66.584  1.00  0.00    -0.248 A  
HETATM   21  C   UNL     1     -11.544  11.983  65.744  1.00  0.00    -0.353 A  
HETATM   22  C   UNL     1     -12.182  12.629  64.679  1.00  0.00    -0.519 A  
HETATM   23  C   UNL     1     -11.924  13.977  64.434  1.00  0.00    -0.454 A  
HETATM   24  O   UNL     1     -12.534  14.594  63.373  1.00  0.00    -1.035 OA 
HETATM   25  C   UNL     1     -11.044  14.694  65.256  1.00  0.00    -0.363 A  
HETATM   26  C   UNL     1     -10.706  16.133  65.061  1.00  0.00    -0.337 C  
HETATM   27  C   UNL     1     -10.417  14.026  66.325  1.00  0.00    -0.286 A  
HETATM   28  H   UNL     1     -12.358  15.513  63.206  1.00  0.00     0.000 HD 
HETATM   29  O   UNL     1      -9.939  16.731  65.801  1.00  0.00    -0.492 OA 
HETATM   30  O   UNL     1     -11.298  16.733  64.007  1.00  0.00    -1.153 OA 
ENDBRANCH  18  20
ENDBRANCH  16  18
ENDBRANCH  13  16
ENDBRANCH   7  10
ENDBRANCH   5   6
ENDBRANCH   4   5
TORSDOF 6
ENDMDL
MODEL       60
REMARK 921   NORMALIZED FREE ENERGY PREDICTED BY IDOCK:   -6.23 KCAL/MOL
REMARK 922        TOTAL FREE ENERGY PREDICTED BY IDOCK:   -9.41 KCAL/MOL
REMARK 923 INTER-LIGAND FREE ENERGY PREDICTED BY IDOCK:   -8.38 KCAL/MOL
REMARK 924 INTRA-LIGAND FREE ENERGY PREDICTED BY IDOCK:   -1.03 KCAL/MOL
REMARK 927      BINDING AFFINITY PREDICTED BY RF-SCORE:    0.00 PKD
ROOT
HETATM    1  O   UNL     1      -8.510   4.835  72.016  1.00  0.00    -0.115 OA 
HETATM    2  C   UNL     1      -9.722   4.584  71.476  1.00  0.00    -0.175 C  
HETATM    3  O   UNL     1      -9.900   4.501  70.269  1.00  0.00    -0.203 OA 
HETATM    4  C   UNL     1     -10.822   4.417  72.487  1.00  0.00    -0.105 C  
ENDROOT
BRANCH   4   5
HETATM    5  C   UNL     1     -11.448   5.753  72.846  1.00  0.00    -0.212 C  
BRANCH   5   6
HETATM    6  N   UNL     1     -11.168   6.785  71.869  1.00  0.00    -0.250 N  
HETATM    7  C   UNL     1     -10.487   7.939  72.209  1.00  0.00    -0.262 C  
HETATM    8  H   UNL     1     -11.481   6.658  70.907  1.00  0.00     0.000 HD 
HETATM    9  O   UNL     1     -10.060   8.158  73.337  1.00  0.00    -0.193 OA 
BRANCH   7  10
HETATM   10  C   UNL     1     -10.339   8.962  71.133  1.00  0.00    -0.338 A  
HETATM   11  C   UNL     1      -9.103   9.081  70.487  1.00  0.00    -0.259 A  
HETATM   12  C   UNL     1      -8.900  10.078  69.523  1.00  0.00    -0.209 A  
HETATM   13  C   UNL     1      -9.924  10.966  69.170  1.00  0.00    -0.161 A  
HETATM   14  C   UNL     1     -11.386   9.812  70.758  1.00  0.00    -0.416 A  
HETATM   15  C   UNL     1     -11.173  10.810  69.795  1.00  0.00    -0.365 A  
BRANCH  13  16
HETATM   16  N   UNL     1      -9.617  12.008  68.265  1.00  0.00    -0.202 NA 
HETATM   17  H   UNL     1      -9.025  11.884  67.444  1.00  0.00     0.000 HD 
BRANCH  16  18
HETATM   18  N   UNL     1     -10.147  13.094  68.577  1.00  0.00    -0.324 NA 
HETATM   19  H   UNL     1     -10.395  13.348  69.534  1.00  0.00     0.000 HD 
BRANCH  18  20
HETATM   20  C   UNL     1     -10.369  13.936  67.464  1.00  0.00    -0.245 A  
HETATM   21  C   UNL     1     -10.034  15.298  67.441  1.00  0.00    -0.223 A  
HETATM   22  C   UNL     1     -10.353  16.105  66.343  1.00  0.00    -0.321 A  
HETATM   23  C   UNL     1     -11.027  15.555  65.254  1.00  0.00    -0.380 A  
HETATM   24  O   UNL     1     -11.358  16.360  64.194  1.00  0.00    -1.302 OA 
HETATM   25  C   UNL     1     -11.373  14.197  65.243  1.00  0.00    -0.328 A  
HETATM   26  C   UNL     1     -12.101  13.530  64.125  1.00  0.00    -0.435 C  
HETATM   27  C   UNL     1     -11.038  13.402  66.356  1.00  0.00    -0.312 A  
HETATM   28  H   UNL     1     -11.818  15.985  63.452  1.00  0.00     0.000 HD 
HETATM   29  O   UNL     1     -12.382  12.341  64.144  1.00  0.00    -0.437 OA 
HETATM   30  O   UNL     1     -12.437  14.329  63.090  1.00  0.00    -0.612 OA 
ENDBRANCH  18  20
ENDBRANCH  16  18
ENDBRANCH  13  16
ENDBRANCH   7  10
ENDBRANCH   5   6
ENDBRANCH   4   5
TORSDOF 6
ENDMDL
MODEL       61
REMARK 921   NORMALIZED FREE ENERGY PREDICTED BY IDOCK:   -6.23 KCAL/MOL
REMARK 922        TOTAL FREE ENERGY PREDICTED BY IDOCK:   -9.40 KCAL/MOL
REMARK 923 INTER-LIGAND FREE ENERGY PREDICTED BY IDOCK:   -8.25 KCAL/MOL
REMARK 924 INTRA-LIGAND FREE ENERGY PREDICTED BY IDOCK:   -1.15 KCAL/MOL
REMARK 927      BINDING AFFINITY PREDICTED BY RF-SCORE:    0.00 PKD
ROOT
HETATM    1  O   UNL     1      -8.956   7.811  68.877  1.00  0.00    -0.141 OA 
HETATM    2  C   UNL     1     -10.286   7.768  68.645  1.00  0.00    -0.201 C  
HETATM    3  O   UNL     1     -10.778   8.101  67.576  1.00  0.00    -0.242 OA 
HETATM    4  C   UNL     1     -11.097   7.277  69.812  1.00  0.00    -0.203 C  
ENDROOT
BRANCH   4   5
HETATM    5  C   UNL     1     -11.468   8.418  70.743  1.00  0.00    -0.255 C  
BRANCH   5   6
HETATM    6  N   UNL     1     -11.046   9.711  70.244  1.00  0.00    -0.259 N  
HETATM    7  C   UNL     1     -11.948  10.737  70.038  1.00  0.00    -0.347 C  
HETATM    8  H   UNL     1     -10.059   9.867  70.040  1.00  0.00     0.000 HD 
HETATM    9  O   UNL     1     -13.145  10.636  70.279  1.00  0.00    -0.223 OA 
BRANCH   7  10
HETATM   10  C   UNL     1     -11.400  11.990  69.439  1.00  0.00    -0.317 A  
HETATM   11  C   UNL     1     -11.914  13.218  69.870  1.00  0.00    -0.400 A  
HETATM   12  C   UNL     1     -11.480  14.414  69.281  1.00  0.00    -0.323 A  
HETATM   13  C   UNL     1     -10.517  14.414  68.262  1.00  0.00    -0.245 A  
HETATM   14  C   UNL     1     -10.404  11.977  68.456  1.00  0.00    -0.228 A  
HETATM   15  C   UNL     1      -9.979  13.178  67.867  1.00  0.00    -0.233 A  
BRANCH  13  16
HETATM   16  N   UNL     1     -10.203  15.647  67.646  1.00  0.00    -0.256 NA 
HETATM   17  H   UNL     1      -9.513  15.745  66.901  1.00  0.00     0.000 HD 
BRANCH  16  18
HETATM   18  N   UNL     1     -10.859  16.603  68.110  1.00  0.00    -0.349 NA 
HETATM   19  H   UNL     1     -11.757  16.495  68.582  1.00  0.00     0.000 HD 
BRANCH  18  20
HETATM   20  C   UNL     1     -10.225  17.850  67.911  1.00  0.00    -0.371 A  
HETATM   21  C   UNL     1     -10.761  18.875  67.116  1.00  0.00    -0.506 A  
HETATM   22  C   UNL     1     -10.051  20.058  66.883  1.00  0.00    -0.601 A  
HETATM   23  C   UNL     1      -8.783  20.224  67.439  1.00  0.00    -0.341 A  
HETATM   24  O   UNL     1      -8.085  21.376  67.184  1.00  0.00    -0.655 OA 
HETATM   25  C   UNL     1      -8.221  19.222  68.241  1.00  0.00    -0.372 A  
HETATM   26  C   UNL     1      -6.870  19.313  68.866  1.00  0.00    -0.331 C  
HETATM   27  C   UNL     1      -8.954  18.041  68.466  1.00  0.00    -0.297 A  
HETATM   28  H   UNL     1      -7.221  21.489  67.563  1.00  0.00     0.000 HD 
HETATM   29  O   UNL     1      -6.412  18.422  69.567  1.00  0.00    -0.261 OA 
HETATM   30  O   UNL     1      -6.181  20.443  68.602  1.00  0.00    -0.292 OA 
ENDBRANCH  18  20
ENDBRANCH  16  18
ENDBRANCH  13  16
ENDBRANCH   7  10
ENDBRANCH   5   6
ENDBRANCH   4   5
TORSDOF 6
ENDMDL
MODEL       62
REMARK 921   NORMALIZED FREE ENERGY PREDICTED BY IDOCK:   -6.18 KCAL/MOL
REMARK 922        TOTAL FREE ENERGY PREDICTED BY IDOCK:   -9.34 KCAL/MOL
REMARK 923 INTER-LIGAND FREE ENERGY PREDICTED BY IDOCK:   -8.27 KCAL/MOL
REMARK 924 INTRA-LIGAND FREE ENERGY PREDICTED BY IDOCK:   -1.07 KCAL/MOL
REMARK 927      BINDING AFFINITY PREDICTED BY RF-SCORE:    0.00 PKD
ROOT
HETATM    1  O   UNL     1     -11.902   9.084  72.244  1.00  0.00    -0.334 OA 
HETATM    2  C   UNL     1     -10.701   8.609  71.848  1.00  0.00    -0.344 C  
HETATM    3  O   UNL     1      -9.644   9.068  72.257  1.00  0.00    -0.287 OA 
HETATM    4  C   UNL     1     -10.784   7.472  70.868  1.00  0.00    -0.244 C  
ENDROOT
BRANCH   4   5
HETATM    5  C   UNL     1     -10.863   7.982  69.439  1.00  0.00    -0.094 C  
BRANCH   5   6
HETATM    6  N   UNL     1     -11.215   9.385  69.362  1.00  0.00    -0.436 N  
HETATM    7  C   UNL     1     -10.999  10.124  68.214  1.00  0.00    -0.248 C  
HETATM    8  H   UNL     1     -11.632   9.839  70.174  1.00  0.00     0.000 HD 
HETATM    9  O   UNL     1     -10.521   9.648  67.191  1.00  0.00    -0.247 OA 
BRANCH   7  10
HETATM   10  C   UNL     1     -11.324  11.578  68.292  1.00  0.00    -0.352 A  
HETATM   11  C   UNL     1     -11.646  12.256  67.110  1.00  0.00    -0.423 A  
HETATM   12  C   UNL     1     -11.886  13.637  67.129  1.00  0.00    -0.435 A  
HETATM   13  C   UNL     1     -11.824  14.369  68.322  1.00  0.00    -0.326 A  
HETATM   14  C   UNL     1     -11.304  12.287  69.499  1.00  0.00    -0.258 A  
HETATM   15  C   UNL     1     -11.540  13.671  69.507  1.00  0.00    -0.361 A  
BRANCH  13  16
HETATM   16  N   UNL     1     -11.977  15.772  68.248  1.00  0.00    -0.380 NA 
HETATM   17  H   UNL     1     -12.749  16.230  67.764  1.00  0.00     0.000 HD 
BRANCH  16  18
HETATM   18  N   UNL     1     -11.068  16.392  68.838  1.00  0.00    -0.335 NA 
HETATM   19  H   UNL     1     -10.755  16.170  69.784  1.00  0.00     0.000 HD 
BRANCH  18  20
HETATM   20  C   UNL     1     -10.519  17.434  68.058  1.00  0.00    -0.383 A  
HETATM   21  C   UNL     1     -10.962  17.753  66.766  1.00  0.00     0.160 A  
HETATM   22  C   UNL     1     -10.326  18.739  66.003  1.00  0.00    -0.467 A  
HETATM   23  C   UNL     1      -9.224  19.413  66.527  1.00  0.00    -0.356 A  
HETATM   24  O   UNL     1      -8.592  20.360  65.762  1.00  0.00    -0.536 OA 
HETATM   25  C   UNL     1      -8.758  19.122  67.816  1.00  0.00    -0.336 A  
HETATM   26  C   UNL     1      -7.583  19.787  68.449  1.00  0.00    -0.301 C  
HETATM   27  C   UNL     1      -9.415  18.129  68.567  1.00  0.00    -0.339 A  
HETATM   28  H   UNL     1      -7.840  20.819  66.119  1.00  0.00     0.000 HD 
HETATM   29  O   UNL     1      -7.206  19.514  69.579  1.00  0.00    -0.309 OA 
HETATM   30  O   UNL     1      -6.955  20.709  67.687  1.00  0.00    -0.302 OA 
ENDBRANCH  18  20
ENDBRANCH  16  18
ENDBRANCH  13  16
ENDBRANCH   7  10
ENDBRANCH   5   6
ENDBRANCH   4   5
TORSDOF 6
ENDMDL
MODEL       63
REMARK 921   NORMALIZED FREE ENERGY PREDICTED BY IDOCK:   -6.17 KCAL/MOL
REMARK 922        TOTAL FREE ENERGY PREDICTED BY IDOCK:   -9.32 KCAL/MOL
REMARK 923 INTER-LIGAND FREE ENERGY PREDICTED BY IDOCK:   -8.30 KCAL/MOL
REMARK 924 INTRA-LIGAND FREE ENERGY PREDICTED BY IDOCK:   -1.02 KCAL/MOL
REMARK 927      BINDING AFFINITY PREDICTED BY RF-SCORE:    0.00 PKD
ROOT
HETATM    1  O   UNL     1     -10.654  19.096  65.804  1.00  0.00    -0.478 OA 
HETATM    2  C   UNL     1      -9.548  19.577  66.411  1.00  0.00    -0.390 C  
HETATM    3  O   UNL     1      -8.425  19.424  65.951  1.00  0.00    -0.433 OA 
HETATM    4  C   UNL     1      -9.822  20.312  67.694  1.00  0.00    -0.563 C  
ENDROOT
BRANCH   4   5
HETATM    5  C   UNL     1      -9.852  19.361  68.878  1.00  0.00    -0.453 C  
BRANCH   5   6
HETATM    6  N   UNL     1     -10.323  18.037  68.524  1.00  0.00    -0.372 N  
HETATM    7  C   UNL     1      -9.466  16.955  68.467  1.00  0.00    -0.266 C  
HETATM    8  H   UNL     1     -11.311  17.901  68.311  1.00  0.00     0.000 HD 
HETATM    9  O   UNL     1      -8.271  17.032  68.727  1.00  0.00    -0.253 OA 
BRANCH   7  10
HETATM   10  C   UNL     1     -10.058  15.665  68.005  1.00  0.00    -0.224 A  
HETATM   11  C   UNL     1     -11.424  15.442  68.214  1.00  0.00    -0.362 A  
HETATM   12  C   UNL     1     -12.003  14.216  67.862  1.00  0.00    -0.378 A  
HETATM   13  C   UNL     1     -11.242  13.192  67.282  1.00  0.00    -0.287 A  
HETATM   14  C   UNL     1      -9.294  14.670  67.384  1.00  0.00    -0.196 A  
HETATM   15  C   UNL     1      -9.882  13.443  67.039  1.00  0.00    -0.250 A  
BRANCH  13  16
HETATM   16  N   UNL     1     -11.872  11.949  67.047  1.00  0.00    -0.613 NA 
HETATM   17  H   UNL     1     -12.137  11.618  66.120  1.00  0.00     0.000 HD 
BRANCH  16  18
HETATM   18  N   UNL     1     -12.068  11.298  68.095  1.00  0.00    -0.667 NA 
HETATM   19  H   UNL     1     -12.792  11.528  68.775  1.00  0.00     0.000 HD 
BRANCH  18  20
HETATM   20  C   UNL     1     -11.179  10.208  68.237  1.00  0.00    -0.183 A  
HETATM   21  C   UNL     1     -10.631   9.506  67.153  1.00  0.00    -0.295 A  
HETATM   22  C   UNL     1      -9.823   8.381  67.352  1.00  0.00    -0.249 A  
HETATM   23  C   UNL     1      -9.564   7.937  68.648  1.00  0.00    -0.155 A  
HETATM   24  O   UNL     1      -8.792   6.818  68.831  1.00  0.00    -0.129 OA 
HETATM   25  C   UNL     1     -10.093   8.617  69.753  1.00  0.00    -0.199 A  
HETATM   26  C   UNL     1      -9.873   8.207  71.169  1.00  0.00    -0.169 C  
HETATM   27  C   UNL     1     -10.899   9.750  69.530  1.00  0.00    -0.264 A  
HETATM   28  H   UNL     1      -8.616   6.515  69.714  1.00  0.00     0.000 HD 
HETATM   29  O   UNL     1     -10.343   8.827  72.111  1.00  0.00    -0.331 OA 
HETATM   30  O   UNL     1      -9.124   7.097  71.345  1.00  0.00    -0.143 OA 
ENDBRANCH  18  20
ENDBRANCH  16  18
ENDBRANCH  13  16
ENDBRANCH   7  10
ENDBRANCH   5   6
ENDBRANCH   4   5
TORSDOF 6
ENDMDL
MODEL       64
REMARK 921   NORMALIZED FREE ENERGY PREDICTED BY IDOCK:   -6.17 KCAL/MOL
REMARK 922        TOTAL FREE ENERGY PREDICTED BY IDOCK:   -9.32 KCAL/MOL
REMARK 923 INTER-LIGAND FREE ENERGY PREDICTED BY IDOCK:   -8.64 KCAL/MOL
REMARK 924 INTRA-LIGAND FREE ENERGY PREDICTED BY IDOCK:   -0.68 KCAL/MOL
REMARK 927      BINDING AFFINITY PREDICTED BY RF-SCORE:    0.00 PKD
ROOT
HETATM    1  O   UNL     1     -12.882  15.313  63.736  1.00  0.00    -0.580 OA 
HETATM    2  C   UNL     1     -11.767  15.761  64.353  1.00  0.00    -0.201 C  
HETATM    3  O   UNL     1     -11.262  16.845  64.094  1.00  0.00    -1.176 OA 
HETATM    4  C   UNL     1     -11.209  14.813  65.378  1.00  0.00    -0.347 C  
ENDROOT
BRANCH   4   5
HETATM    5  C   UNL     1     -10.254  13.817  64.745  1.00  0.00    -0.335 C  
BRANCH   5   6
HETATM    6  N   UNL     1      -9.932  12.711  65.624  1.00  0.00    -0.311 N  
HETATM    7  C   UNL     1      -9.745  11.431  65.138  1.00  0.00    -0.244 C  
HETATM    8  H   UNL     1      -9.842  12.881  66.625  1.00  0.00     0.000 HD 
HETATM    9  O   UNL     1      -9.816  11.149  63.947  1.00  0.00    -0.252 OA 
BRANCH   7  10
HETATM   10  C   UNL     1      -9.506  10.364  66.154  1.00  0.00    -0.227 A  
HETATM   11  C   UNL     1     -10.472   9.364  66.316  1.00  0.00    -0.112 A  
HETATM   12  C   UNL     1     -10.320   8.387  67.309  1.00  0.00    -0.369 A  
HETATM   13  C   UNL     1      -9.200   8.375  68.152  1.00  0.00    -0.137 A  
HETATM   14  C   UNL     1      -8.359  10.338  66.957  1.00  0.00    -0.126 A  
HETATM   15  C   UNL     1      -8.218   9.359  67.952  1.00  0.00    -0.115 A  
BRANCH  13  16
HETATM   16  N   UNL     1      -9.165   7.422  69.195  1.00  0.00    -0.147 NA 
HETATM   17  H   UNL     1      -9.360   6.430  69.059  1.00  0.00     0.000 HD 
BRANCH  16  18
HETATM   18  N   UNL     1      -8.870   7.922  70.300  1.00  0.00    -0.139 NA 
HETATM   19  H   UNL     1      -7.911   8.087  70.607  1.00  0.00     0.000 HD 
BRANCH  18  20
HETATM   20  C   UNL     1     -10.005   8.235  71.081  1.00  0.00    -0.185 A  
HETATM   21  C   UNL     1     -10.579   7.349  72.005  1.00  0.00    -0.241 A  
HETATM   22  C   UNL     1     -11.754   7.678  72.691  1.00  0.00    -0.323 A  
HETATM   23  C   UNL     1     -12.377   8.901  72.448  1.00  0.00    -0.315 A  
HETATM   24  O   UNL     1     -13.541   9.203  73.105  1.00  0.00    -0.931 OA 
HETATM   25  C   UNL     1     -11.827   9.810  71.533  1.00  0.00    -0.476 A  
HETATM   26  C   UNL     1     -12.431  11.134  71.207  1.00  0.00    -0.360 C  
HETATM   27  C   UNL     1     -10.642   9.461  70.858  1.00  0.00    -0.390 A  
HETATM   28  H   UNL     1     -13.966  10.037  72.939  1.00  0.00     0.000 HD 
HETATM   29  O   UNL     1     -11.922  11.907  70.409  1.00  0.00    -0.351 OA 
HETATM   30  O   UNL     1     -13.585  11.421  71.847  1.00  0.00    -0.251 OA 
ENDBRANCH  18  20
ENDBRANCH  16  18
ENDBRANCH  13  16
ENDBRANCH   7  10
ENDBRANCH   5   6
ENDBRANCH   4   5
TORSDOF 6
ENDMDL
MODEL       65
REMARK 921   NORMALIZED FREE ENERGY PREDICTED BY IDOCK:   -6.16 KCAL/MOL
REMARK 922        TOTAL FREE ENERGY PREDICTED BY IDOCK:   -9.30 KCAL/MOL
REMARK 923 INTER-LIGAND FREE ENERGY PREDICTED BY IDOCK:   -8.18 KCAL/MOL
REMARK 924 INTRA-LIGAND FREE ENERGY PREDICTED BY IDOCK:   -1.12 KCAL/MOL
REMARK 927      BINDING AFFINITY PREDICTED BY RF-SCORE:    0.00 PKD
ROOT
HETATM    1  O   UNL     1     -11.635  14.804  66.837  1.00  0.00    -0.359 OA 
HETATM    2  C   UNL     1     -10.454  15.452  66.933  1.00  0.00    -0.295 C  
HETATM    3  O   UNL     1      -9.502  15.195  66.210  1.00  0.00    -0.269 OA 
HETATM    4  C   UNL     1     -10.419  16.510  68.001  1.00  0.00    -0.313 C  
ENDROOT
BRANCH   4   5
HETATM    5  C   UNL     1     -10.013  15.926  69.343  1.00  0.00    -0.274 C  
BRANCH   5   6
HETATM    6  N   UNL     1     -10.577  14.612  69.576  1.00  0.00    -0.381 N  
HETATM    7  C   UNL     1     -11.789  14.447  70.220  1.00  0.00    -0.313 C  
HETATM    8  H   UNL     1     -10.067  13.788  69.258  1.00  0.00     0.000 HD 
HETATM    9  O   UNL     1     -12.472  15.386  70.613  1.00  0.00    -0.370 OA 
BRANCH   7  10
HETATM   10  C   UNL     1     -12.217  13.040  70.476  1.00  0.00    -0.392 A  
HETATM   11  C   UNL     1     -13.034  12.781  71.582  1.00  0.00    -0.402 A  
HETATM   12  C   UNL     1     -13.398  11.466  71.901  1.00  0.00    -0.409 A  
HETATM   13  C   UNL     1     -12.971  10.384  71.120  1.00  0.00    -0.412 A  
HETATM   14  C   UNL     1     -11.820  11.976  69.659  1.00  0.00    -0.401 A  
HETATM   15  C   UNL     1     -12.185  10.661  69.989  1.00  0.00    -0.373 A  
BRANCH  13  16
HETATM   16  N   UNL     1     -13.292   9.080  71.559  1.00  0.00    -0.414 NA 
HETATM   17  H   UNL     1     -13.948   8.467  71.074  1.00  0.00     0.000 HD 
BRANCH  16  18
HETATM   18  N   UNL     1     -12.689   8.756  72.604  1.00  0.00    -0.505 NA 
HETATM   19  H   UNL     1     -12.877   9.172  73.516  1.00  0.00     0.000 HD 
BRANCH  18  20
HETATM   20  C   UNL     1     -11.718   7.753  72.387  1.00  0.00    -0.341 A  
HETATM   21  C   UNL     1     -12.031   6.401  72.178  1.00  0.00    -0.346 A  
HETATM   22  C   UNL     1     -11.026   5.435  72.053  1.00  0.00    -0.244 A  
HETATM   23  C   UNL     1      -9.688   5.813  72.149  1.00  0.00    -0.152 A  
HETATM   24  O   UNL     1      -8.712   4.855  72.052  1.00  0.00    -0.125 OA 
HETATM   25  C   UNL     1      -9.341   7.155  72.354  1.00  0.00    -0.155 A  
HETATM   26  C   UNL     1      -7.938   7.645  72.478  1.00  0.00    -0.108 C  
HETATM   27  C   UNL     1     -10.367   8.112  72.472  1.00  0.00    -0.401 A  
HETATM   28  H   UNL     1      -7.800   5.113  72.118  1.00  0.00     0.000 HD 
HETATM   29  O   UNL     1      -7.669   8.825  72.649  1.00  0.00    -0.361 OA 
HETATM   30  O   UNL     1      -6.980   6.697  72.395  1.00  0.00    -0.067 OA 
ENDBRANCH  18  20
ENDBRANCH  16  18
ENDBRANCH  13  16
ENDBRANCH   7  10
ENDBRANCH   5   6
ENDBRANCH   4   5
TORSDOF 6
ENDMDL
MODEL       66
REMARK 921   NORMALIZED FREE ENERGY PREDICTED BY IDOCK:   -6.15 KCAL/MOL
REMARK 922        TOTAL FREE ENERGY PREDICTED BY IDOCK:   -9.30 KCAL/MOL
REMARK 923 INTER-LIGAND FREE ENERGY PREDICTED BY IDOCK:   -7.99 KCAL/MOL
REMARK 924 INTRA-LIGAND FREE ENERGY PREDICTED BY IDOCK:   -1.31 KCAL/MOL
REMARK 927      BINDING AFFINITY PREDICTED BY RF-SCORE:    0.00 PKD
ROOT
HETATM    1  O   UNL     1     -10.411  10.563  64.405  1.00  0.00    -0.341 OA 
HETATM    2  C   UNL     1     -10.696  11.660  63.671  1.00  0.00    -0.435 C  
HETATM    3  O   UNL     1      -9.833  12.313  63.102  1.00  0.00    -0.373 OA 
HETATM    4  C   UNL     1     -12.160  12.000  63.619  1.00  0.00    -0.627 C  
ENDROOT
BRANCH   4   5
HETATM    5  C   UNL     1     -12.562  12.885  64.786  1.00  0.00    -0.425 C  
BRANCH   5   6
HETATM    6  N   UNL     1     -11.426  13.350  65.555  1.00  0.00    -0.301 N  
HETATM    7  C   UNL     1     -11.200  12.917  66.848  1.00  0.00    -0.291 C  
HETATM    8  H   UNL     1     -10.776  14.014  65.133  1.00  0.00     0.000 HD 
HETATM    9  O   UNL     1     -11.921  12.106  67.418  1.00  0.00    -0.563 OA 
BRANCH   7  10
HETATM   10  C   UNL     1     -10.046  13.537  67.563  1.00  0.00    -0.234 A  
HETATM   11  C   UNL     1     -10.307  14.476  68.567  1.00  0.00    -0.242 A  
HETATM   12  C   UNL     1      -9.252  15.135  69.212  1.00  0.00    -0.205 A  
HETATM   13  C   UNL     1      -7.917  14.865  68.883  1.00  0.00    -0.163 A  
HETATM   14  C   UNL     1      -8.717  13.222  67.255  1.00  0.00    -0.214 A  
HETATM   15  C   UNL     1      -7.666  13.891  67.902  1.00  0.00    -0.161 A  
BRANCH  13  16
HETATM   16  N   UNL     1      -6.910  15.641  69.502  1.00  0.00    -0.181 NA 
HETATM   17  H   UNL     1      -6.869  15.813  70.506  1.00  0.00     0.000 HD 
BRANCH  16  18
HETATM   18  N   UNL     1      -6.076  16.093  68.690  1.00  0.00    -0.110 NA 
HETATM   19  H   UNL     1      -5.309  15.543  68.303  1.00  0.00     0.000 HD 
BRANCH  18  20
HETATM   20  C   UNL     1      -6.308  17.448  68.363  1.00  0.00    -0.175 A  
HETATM   21  C   UNL     1      -6.724  18.411  69.295  1.00  0.00    -0.248 A  
HETATM   22  C   UNL     1      -7.021  19.721  68.902  1.00  0.00    -0.367 A  
HETATM   23  C   UNL     1      -6.914  20.079  67.558  1.00  0.00    -0.249 A  
HETATM   24  O   UNL     1      -7.232  21.358  67.179  1.00  0.00    -0.789 OA 
HETATM   25  C   UNL     1      -6.498  19.143  66.603  1.00  0.00    -0.199 A  
HETATM   26  C   UNL     1      -6.365  19.438  65.147  1.00  0.00    -0.274 C  
HETATM   27  C   UNL     1      -6.199  17.832  67.021  1.00  0.00    -0.188 A  
HETATM   28  H   UNL     1      -7.160  21.602  66.263  1.00  0.00     0.000 HD 
HETATM   29  O   UNL     1      -5.991  18.600  64.340  1.00  0.00    -0.351 OA 
HETATM   30  O   UNL     1      -6.692  20.695  64.776  1.00  0.00    -0.284 OA 
ENDBRANCH  18  20
ENDBRANCH  16  18
ENDBRANCH  13  16
ENDBRANCH   7  10
ENDBRANCH   5   6
ENDBRANCH   4   5
TORSDOF 6
ENDMDL
MODEL       67
REMARK 921   NORMALIZED FREE ENERGY PREDICTED BY IDOCK:   -6.15 KCAL/MOL
REMARK 922        TOTAL FREE ENERGY PREDICTED BY IDOCK:   -9.29 KCAL/MOL
REMARK 923 INTER-LIGAND FREE ENERGY PREDICTED BY IDOCK:   -8.40 KCAL/MOL
REMARK 924 INTRA-LIGAND FREE ENERGY PREDICTED BY IDOCK:   -0.89 KCAL/MOL
REMARK 927      BINDING AFFINITY PREDICTED BY RF-SCORE:    0.00 PKD
ROOT
HETATM    1  O   UNL     1     -12.783  14.847  73.707  1.00  0.00    -0.517 OA 
HETATM    2  C   UNL     1     -13.523  14.480  72.639  1.00  0.00    -0.493 C  
HETATM    3  O   UNL     1     -14.068  13.388  72.560  1.00  0.00    -0.726 OA 
HETATM    4  C   UNL     1     -13.614  15.529  71.565  1.00  0.00    -0.571 C  
ENDROOT
BRANCH   4   5
HETATM    5  C   UNL     1     -12.457  15.418  70.588  1.00  0.00    -0.428 C  
BRANCH   5   6
HETATM    6  N   UNL     1     -12.033  14.050  70.371  1.00  0.00    -0.352 N  
HETATM    7  C   UNL     1     -11.909  13.523  69.100  1.00  0.00    -0.340 C  
HETATM    8  H   UNL     1     -11.821  13.461  71.177  1.00  0.00     0.000 HD 
HETATM    9  O   UNL     1     -12.125  14.170  68.081  1.00  0.00    -0.343 OA 
BRANCH   7  10
HETATM   10  C   UNL     1     -11.550  12.077  69.014  1.00  0.00    -0.370 A  
HETATM   11  C   UNL     1     -11.556  11.315  70.188  1.00  0.00    -0.393 A  
HETATM   12  C   UNL     1     -11.155   9.973  70.164  1.00  0.00    -0.371 A  
HETATM   13  C   UNL     1     -10.752   9.356  68.972  1.00  0.00    -0.187 A  
HETATM   14  C   UNL     1     -11.195  11.463  67.807  1.00  0.00    -0.346 A  
HETATM   15  C   UNL     1     -10.789  10.119  67.793  1.00  0.00    -0.346 A  
BRANCH  13  16
HETATM   16  N   UNL     1     -10.264   8.032  69.041  1.00  0.00    -0.207 NA 
HETATM   17  H   UNL     1      -9.280   7.787  68.930  1.00  0.00     0.000 HD 
BRANCH  16  18
HETATM   18  N   UNL     1     -11.164   7.192  69.253  1.00  0.00    -0.472 NA 
HETATM   19  H   UNL     1     -12.158   7.386  69.125  1.00  0.00     0.000 HD 
BRANCH  18  20
HETATM   20  C   UNL     1     -10.661   5.946  69.688  1.00  0.00    -0.345 A  
HETATM   21  C   UNL     1     -10.585   5.568  71.037  1.00  0.00    -0.300 A  
HETATM   22  C   UNL     1      -9.999   4.356  71.419  1.00  0.00    -0.248 A  
HETATM   23  C   UNL     1      -9.468   3.509  70.447  1.00  0.00    -0.183 A  
HETATM   24  O   UNL     1      -8.873   2.336  70.833  1.00  0.00    -0.060 OA 
HETATM   25  C   UNL     1      -9.532   3.855  69.090  1.00  0.00    -0.246 A  
HETATM   26  C   UNL     1      -8.982   3.014  67.988  1.00  0.00    -0.151 C  
HETATM   27  C   UNL     1     -10.130   5.077  68.728  1.00  0.00    -0.200 A  
HETATM   28  H   UNL     1      -8.511   1.758  70.170  1.00  0.00     0.000 HD 
HETATM   29  O   UNL     1      -9.061   3.341  66.813  1.00  0.00    -0.147 OA 
HETATM   30  O   UNL     1      -8.385   1.866  68.374  1.00  0.00    -0.056 OA 
ENDBRANCH  18  20
ENDBRANCH  16  18
ENDBRANCH  13  16
ENDBRANCH   7  10
ENDBRANCH   5   6
ENDBRANCH   4   5
TORSDOF 6
ENDMDL
MODEL       68
REMARK 921   NORMALIZED FREE ENERGY PREDICTED BY IDOCK:   -6.14 KCAL/MOL
REMARK 922        TOTAL FREE ENERGY PREDICTED BY IDOCK:   -9.28 KCAL/MOL
REMARK 923 INTER-LIGAND FREE ENERGY PREDICTED BY IDOCK:   -8.23 KCAL/MOL
REMARK 924 INTRA-LIGAND FREE ENERGY PREDICTED BY IDOCK:   -1.06 KCAL/MOL
REMARK 927      BINDING AFFINITY PREDICTED BY RF-SCORE:    0.00 PKD
ROOT
HETATM    1  O   UNL     1     -10.721  18.961  65.662  1.00  0.00    -0.532 OA 
HETATM    2  C   UNL     1      -9.629  19.484  66.258  1.00  0.00    -0.392 C  
HETATM    3  O   UNL     1      -8.500  19.333  65.813  1.00  0.00    -0.415 OA 
HETATM    4  C   UNL     1      -9.927  20.263  67.510  1.00  0.00    -0.557 C  
ENDROOT
BRANCH   4   5
HETATM    5  C   UNL     1      -9.950  19.358  68.729  1.00  0.00    -0.444 C  
BRANCH   5   6
HETATM    6  N   UNL     1     -10.381  18.010  68.420  1.00  0.00    -0.380 N  
HETATM    7  C   UNL     1      -9.492  16.952  68.403  1.00  0.00    -0.258 C  
HETATM    8  H   UNL     1     -11.364  17.837  68.211  1.00  0.00     0.000 HD 
HETATM    9  O   UNL     1      -8.300  17.073  68.663  1.00  0.00    -0.250 OA 
BRANCH   7  10
HETATM   10  C   UNL     1     -10.045  15.630  67.985  1.00  0.00    -0.224 A  
HETATM   11  C   UNL     1     -11.419  15.404  68.126  1.00  0.00    -0.352 A  
HETATM   12  C   UNL     1     -11.966  14.152  67.814  1.00  0.00    -0.389 A  
HETATM   13  C   UNL     1     -11.163  13.105  67.343  1.00  0.00    -0.287 A  
HETATM   14  C   UNL     1      -9.236  14.609  67.471  1.00  0.00    -0.192 A  
HETATM   15  C   UNL     1      -9.792  13.357  67.166  1.00  0.00    -0.237 A  
BRANCH  13  16
HETATM   16  N   UNL     1     -11.766  11.842  67.146  1.00  0.00    -0.593 NA 
HETATM   17  H   UNL     1     -11.852  11.394  66.234  1.00  0.00     0.000 HD 
BRANCH  16  18
HETATM   18  N   UNL     1     -12.183  11.331  68.207  1.00  0.00    -0.635 NA 
HETATM   19  H   UNL     1     -13.062  11.595  68.653  1.00  0.00     0.000 HD 
BRANCH  18  20
HETATM   20  C   UNL     1     -11.307  10.351  68.725  1.00  0.00    -0.214 A  
HETATM   21  C   UNL     1     -11.078  10.160  70.096  1.00  0.00    -0.378 A  
HETATM   22  C   UNL     1     -10.135   9.231  70.551  1.00  0.00    -0.313 A  
HETATM   23  C   UNL     1      -9.399   8.487  69.631  1.00  0.00    -0.157 A  
HETATM   24  O   UNL     1      -8.459   7.598  70.087  1.00  0.00    -0.134 OA 
HETATM   25  C   UNL     1      -9.605   8.650  68.255  1.00  0.00    -0.160 A  
HETATM   26  C   UNL     1      -8.856   7.903  67.204  1.00  0.00    -0.132 C  
HETATM   27  C   UNL     1     -10.562   9.587  67.818  1.00  0.00    -0.318 A  
HETATM   28  H   UNL     1      -7.957   7.091  69.460  1.00  0.00     0.000 HD 
HETATM   29  O   UNL     1      -9.066   8.065  66.011  1.00  0.00    -0.173 OA 
HETATM   30  O   UNL     1      -7.923   7.039  67.657  1.00  0.00    -0.111 OA 
ENDBRANCH  18  20
ENDBRANCH  16  18
ENDBRANCH  13  16
ENDBRANCH   7  10
ENDBRANCH   5   6
ENDBRANCH   4   5
TORSDOF 6
ENDMDL
MODEL       69
REMARK 921   NORMALIZED FREE ENERGY PREDICTED BY IDOCK:   -6.14 KCAL/MOL
REMARK 922        TOTAL FREE ENERGY PREDICTED BY IDOCK:   -9.28 KCAL/MOL
REMARK 923 INTER-LIGAND FREE ENERGY PREDICTED BY IDOCK:   -8.13 KCAL/MOL
REMARK 924 INTRA-LIGAND FREE ENERGY PREDICTED BY IDOCK:   -1.15 KCAL/MOL
REMARK 927      BINDING AFFINITY PREDICTED BY RF-SCORE:    0.00 PKD
ROOT
HETATM    1  O   UNL     1     -11.678   6.378  69.948  1.00  0.00    -0.426 OA 
HETATM    2  C   UNL     1     -10.434   6.603  69.474  1.00  0.00    -0.218 C  
HETATM    3  O   UNL     1      -9.680   7.427  69.971  1.00  0.00    -0.174 OA 
HETATM    4  C   UNL     1     -10.066   5.754  68.289  1.00  0.00    -0.208 C  
ENDROOT
BRANCH   4   5
HETATM    5  C   UNL     1     -10.497   6.408  66.987  1.00  0.00    -0.282 C  
BRANCH   5   6
HETATM    6  N   UNL     1     -10.962   7.768  67.169  1.00  0.00    -0.498 N  
HETATM    7  C   UNL     1     -10.228   8.850  66.725  1.00  0.00    -0.278 C  
HETATM    8  H   UNL     1     -11.854   7.930  67.637  1.00  0.00     0.000 HD 
HETATM    9  O   UNL     1      -9.158   8.739  66.136  1.00  0.00    -0.174 OA 
BRANCH   7  10
HETATM   10  C   UNL     1     -10.774  10.201  67.051  1.00  0.00    -0.264 A  
HETATM   11  C   UNL     1     -10.853  11.155  66.030  1.00  0.00    -0.230 A  
HETATM   12  C   UNL     1     -11.291  12.457  66.310  1.00  0.00    -0.388 A  
HETATM   13  C   UNL     1     -11.673  12.832  67.604  1.00  0.00    -0.367 A  
HETATM   14  C   UNL     1     -11.196  10.547  68.340  1.00  0.00    -0.339 A  
HETATM   15  C   UNL     1     -11.628  11.854  68.612  1.00  0.00    -0.366 A  
BRANCH  13  16
HETATM   16  N   UNL     1     -12.006  14.187  67.831  1.00  0.00    -0.477 NA 
HETATM   17  H   UNL     1     -12.558  14.506  68.628  1.00  0.00     0.000 HD 
BRANCH  16  18
HETATM   18  N   UNL     1     -11.553  14.953  66.955  1.00  0.00    -0.343 NA 
HETATM   19  H   UNL     1     -11.800  14.889  65.967  1.00  0.00     0.000 HD 
BRANCH  18  20
HETATM   20  C   UNL     1     -10.661  15.916  67.477  1.00  0.00    -0.318 A  
HETATM   21  C   UNL     1      -9.844  15.693  68.595  1.00  0.00    -0.210 A  
HETATM   22  C   UNL     1      -9.041  16.711  69.122  1.00  0.00    -0.157 A  
HETATM   23  C   UNL     1      -9.057  17.976  68.536  1.00  0.00    -0.284 A  
HETATM   24  O   UNL     1      -8.287  18.974  69.075  1.00  0.00    -0.292 OA 
HETATM   25  C   UNL     1      -9.860  18.232  67.416  1.00  0.00    -0.323 A  
HETATM   26  C   UNL     1      -9.944  19.555  66.734  1.00  0.00    -0.395 C  
HETATM   27  C   UNL     1     -10.656  17.192  66.899  1.00  0.00    -0.209 A  
HETATM   28  H   UNL     1      -8.299  19.837  68.676  1.00  0.00     0.000 HD 
HETATM   29  O   UNL     1     -10.649  19.743  65.753  1.00  0.00    -0.523 OA 
HETATM   30  O   UNL     1      -9.194  20.539  67.276  1.00  0.00    -0.387 OA 
ENDBRANCH  18  20
ENDBRANCH  16  18
ENDBRANCH  13  16
ENDBRANCH   7  10
ENDBRANCH   5   6
ENDBRANCH   4   5
TORSDOF 6
ENDMDL
MODEL       70
REMARK 921   NORMALIZED FREE ENERGY PREDICTED BY IDOCK:   -6.14 KCAL/MOL
REMARK 922        TOTAL FREE ENERGY PREDICTED BY IDOCK:   -9.28 KCAL/MOL
REMARK 923 INTER-LIGAND FREE ENERGY PREDICTED BY IDOCK:   -8.37 KCAL/MOL
REMARK 924 INTRA-LIGAND FREE ENERGY PREDICTED BY IDOCK:   -0.91 KCAL/MOL
REMARK 927      BINDING AFFINITY PREDICTED BY RF-SCORE:    0.00 PKD
ROOT
HETATM    1  O   UNL     1     -10.236   7.603  72.397  1.00  0.00    -0.199 OA 
HETATM    2  C   UNL     1     -10.796   7.578  71.168  1.00  0.00    -0.238 C  
HETATM    3  O   UNL     1     -10.157   7.801  70.149  1.00  0.00    -0.193 OA 
HETATM    4  C   UNL     1     -12.264   7.252  71.169  1.00  0.00    -0.376 C  
ENDROOT
BRANCH   4   5
HETATM    5  C   UNL     1     -13.106   8.504  71.341  1.00  0.00    -0.230 C  
BRANCH   5   6
HETATM    6  N   UNL     1     -12.553   9.652  70.651  1.00  0.00    -0.507 N  
HETATM    7  C   UNL     1     -12.750  10.939  71.114  1.00  0.00    -0.429 C  
HETATM    8  H   UNL     1     -12.004   9.506  69.804  1.00  0.00     0.000 HD 
HETATM    9  O   UNL     1     -13.378  11.195  72.135  1.00  0.00    -0.452 OA 
BRANCH   7  10
HETATM   10  C   UNL     1     -12.202  12.039  70.266  1.00  0.00    -0.348 A  
HETATM   11  C   UNL     1     -11.482  11.701  69.115  1.00  0.00    -0.364 A  
HETATM   12  C   UNL     1     -10.889  12.701  68.332  1.00  0.00    -0.268 A  
HETATM   13  C   UNL     1     -11.012  14.055  68.668  1.00  0.00    -0.263 A  
HETATM   14  C   UNL     1     -12.374  13.390  70.590  1.00  0.00    -0.423 A  
HETATM   15  C   UNL     1     -11.772  14.384  69.803  1.00  0.00    -0.361 A  
BRANCH  13  16
HETATM   16  N   UNL     1     -10.303  14.999  67.890  1.00  0.00    -0.239 NA 
HETATM   17  H   UNL     1     -10.478  15.156  66.897  1.00  0.00     0.000 HD 
BRANCH  16  18
HETATM   18  N   UNL     1      -9.442  15.621  68.546  1.00  0.00    -0.195 NA 
HETATM   19  H   UNL     1      -8.877  15.196  69.282  1.00  0.00     0.000 HD 
BRANCH  18  20
HETATM   20  C   UNL     1      -9.333  16.977  68.162  1.00  0.00    -0.254 A  
HETATM   21  C   UNL     1     -10.217  17.978  68.592  1.00  0.00    -0.385 A  
HETATM   22  C   UNL     1     -10.115  19.290  68.114  1.00  0.00    -0.507 A  
HETATM   23  C   UNL     1      -9.126  19.611  67.184  1.00  0.00    -0.315 A  
HETATM   24  O   UNL     1      -9.050  20.892  66.702  1.00  0.00    -0.562 OA 
HETATM   25  C   UNL     1      -8.225  18.635  66.738  1.00  0.00    -0.276 A  
HETATM   26  C   UNL     1      -7.146  18.890  65.741  1.00  0.00    -0.239 C  
HETATM   27  C   UNL     1      -8.343  17.323  67.235  1.00  0.00    -0.216 A  
HETATM   28  H   UNL     1      -8.377  21.111  66.069  1.00  0.00     0.000 HD 
HETATM   29  O   UNL     1      -6.371  18.017  65.378  1.00  0.00    -0.215 OA 
HETATM   30  O   UNL     1      -7.083  20.149  65.259  1.00  0.00    -0.314 OA 
ENDBRANCH  18  20
ENDBRANCH  16  18
ENDBRANCH  13  16
ENDBRANCH   7  10
ENDBRANCH   5   6
ENDBRANCH   4   5
TORSDOF 6
ENDMDL
MODEL       71
REMARK 921   NORMALIZED FREE ENERGY PREDICTED BY IDOCK:   -6.10 KCAL/MOL
REMARK 922        TOTAL FREE ENERGY PREDICTED BY IDOCK:   -9.23 KCAL/MOL
REMARK 923 INTER-LIGAND FREE ENERGY PREDICTED BY IDOCK:   -8.56 KCAL/MOL
REMARK 924 INTRA-LIGAND FREE ENERGY PREDICTED BY IDOCK:   -0.67 KCAL/MOL
REMARK 927      BINDING AFFINITY PREDICTED BY RF-SCORE:    0.00 PKD
ROOT
HETATM    1  O   UNL     1     -11.896  15.713  71.210  1.00  0.00    -0.339 OA 
HETATM    2  C   UNL     1     -12.727  15.803  72.271  1.00  0.00    -0.446 C  
HETATM    3  O   UNL     1     -12.401  16.348  73.316  1.00  0.00    -0.489 OA 
HETATM    4  C   UNL     1     -14.076  15.178  72.050  1.00  0.00    -0.659 C  
ENDROOT
BRANCH   4   5
HETATM    5  C   UNL     1     -14.063  13.701  72.401  1.00  0.00    -0.484 C  
BRANCH   5   6
HETATM    6  N   UNL     1     -13.148  12.936  71.579  1.00  0.00    -0.351 N  
HETATM    7  C   UNL     1     -13.122  11.555  71.616  1.00  0.00    -0.373 C  
HETATM    8  H   UNL     1     -12.507  13.429  70.957  1.00  0.00     0.000 HD 
HETATM    9  O   UNL     1     -13.873  10.889  72.319  1.00  0.00     0.010 OA 
BRANCH   7  10
HETATM   10  C   UNL     1     -12.074  10.890  70.787  1.00  0.00    -0.469 A  
HETATM   11  C   UNL     1     -11.544  11.585  69.694  1.00  0.00    -0.403 A  
HETATM   12  C   UNL     1     -10.612  10.969  68.848  1.00  0.00    -0.239 A  
HETATM   13  C   UNL     1     -10.177   9.657  69.078  1.00  0.00    -0.199 A  
HETATM   14  C   UNL     1     -11.615   9.595  71.058  1.00  0.00    -0.436 A  
HETATM   15  C   UNL     1     -10.685   8.984  70.202  1.00  0.00    -0.258 A  
BRANCH  13  16
HETATM   16  N   UNL     1      -9.314   9.067  68.126  1.00  0.00    -0.141 NA 
HETATM   17  H   UNL     1      -8.297   9.083  68.201  1.00  0.00     0.000 HD 
BRANCH  16  18
HETATM   18  N   UNL     1      -9.928   8.522  67.185  1.00  0.00    -0.213 NA 
HETATM   19  H   UNL     1     -10.479   7.669  67.289  1.00  0.00     0.000 HD 
BRANCH  18  20
HETATM   20  C   UNL     1      -9.780   9.212  65.961  1.00  0.00    -0.287 A  
HETATM   21  C   UNL     1      -8.730   8.978  65.060  1.00  0.00    -0.217 A  
HETATM   22  C   UNL     1      -8.582   9.749  63.902  1.00  0.00    -0.208 A  
HETATM   23  C   UNL     1      -9.485  10.778  63.638  1.00  0.00    -0.291 A  
HETATM   24  O   UNL     1      -9.317  11.545  62.514  1.00  0.00    -0.444 OA 
HETATM   25  C   UNL     1     -10.547  11.036  64.515  1.00  0.00    -0.383 A  
HETATM   26  C   UNL     1     -11.551  12.121  64.315  1.00  0.00    -0.370 C  
HETATM   27  C   UNL     1     -10.679  10.245  65.672  1.00  0.00     0.082 A  
HETATM   28  H   UNL     1      -9.932  12.247  62.334  1.00  0.00     0.000 HD 
HETATM   29  O   UNL     1     -12.470  12.314  65.096  1.00  0.00    -0.563 OA 
HETATM   30  O   UNL     1     -11.374  12.882  63.213  1.00  0.00    -0.392 OA 
ENDBRANCH  18  20
ENDBRANCH  16  18
ENDBRANCH  13  16
ENDBRANCH   7  10
ENDBRANCH   5   6
ENDBRANCH   4   5
TORSDOF 6
ENDMDL
MODEL       72
REMARK 921   NORMALIZED FREE ENERGY PREDICTED BY IDOCK:   -6.10 KCAL/MOL
REMARK 922        TOTAL FREE ENERGY PREDICTED BY IDOCK:   -9.23 KCAL/MOL
REMARK 923 INTER-LIGAND FREE ENERGY PREDICTED BY IDOCK:   -8.10 KCAL/MOL
REMARK 924 INTRA-LIGAND FREE ENERGY PREDICTED BY IDOCK:   -1.13 KCAL/MOL
REMARK 927      BINDING AFFINITY PREDICTED BY RF-SCORE:    0.00 PKD
ROOT
HETATM    1  O   UNL     1     -12.237   8.787  71.746  1.00  0.00    -0.306 OA 
HETATM    2  C   UNL     1     -10.979   8.484  71.359  1.00  0.00    -0.264 C  
HETATM    3  O   UNL     1      -9.995   9.036  71.830  1.00  0.00    -0.325 OA 
HETATM    4  C   UNL     1     -10.902   7.413  70.306  1.00  0.00    -0.260 C  
ENDROOT
BRANCH   4   5
HETATM    5  C   UNL     1     -11.007   8.005  68.911  1.00  0.00     0.149 C  
BRANCH   5   6
HETATM    6  N   UNL     1     -11.288   9.426  68.923  1.00  0.00    -0.433 N  
HETATM    7  C   UNL     1     -10.993  10.232  67.840  1.00  0.00    -0.292 C  
HETATM    8  H   UNL     1     -11.716   9.841  69.751  1.00  0.00     0.000 HD 
HETATM    9  O   UNL     1     -10.499   9.806  66.802  1.00  0.00    -0.231 OA 
BRANCH   7  10
HETATM   10  C   UNL     1     -11.252  11.692  68.011  1.00  0.00    -0.327 A  
HETATM   11  C   UNL     1     -11.635  12.439  66.892  1.00  0.00    -0.437 A  
HETATM   12  C   UNL     1     -11.816  13.825  66.994  1.00  0.00    -0.445 A  
HETATM   13  C   UNL     1     -11.634  14.494  68.212  1.00  0.00    -0.329 A  
HETATM   14  C   UNL     1     -11.111  12.338  69.245  1.00  0.00    -0.220 A  
HETATM   15  C   UNL     1     -11.289  13.727  69.337  1.00  0.00    -0.306 A  
BRANCH  13  16
HETATM   16  N   UNL     1     -11.734  15.904  68.216  1.00  0.00    -0.327 NA 
HETATM   17  H   UNL     1     -12.513  16.415  67.799  1.00  0.00     0.000 HD 
BRANCH  16  18
HETATM   18  N   UNL     1     -10.771  16.458  68.785  1.00  0.00    -0.300 NA 
HETATM   19  H   UNL     1     -10.414  16.174  69.698  1.00  0.00     0.000 HD 
BRANCH  18  20
HETATM   20  C   UNL     1     -10.227  17.522  68.031  1.00  0.00    -0.354 A  
HETATM   21  C   UNL     1     -10.891  18.740  67.816  1.00  0.00    -0.333 A  
HETATM   22  C   UNL     1     -10.343  19.728  66.990  1.00  0.00    -0.593 A  
HETATM   23  C   UNL     1      -9.121  19.501  66.358  1.00  0.00    -0.370 A  
HETATM   24  O   UNL     1      -8.606  20.465  65.530  1.00  0.00    -0.423 OA 
HETATM   25  C   UNL     1      -8.431  18.297  66.554  1.00  0.00    -0.287 A  
HETATM   26  C   UNL     1      -7.127  17.969  65.911  1.00  0.00    -0.267 C  
HETATM   27  C   UNL     1      -8.998  17.318  67.393  1.00  0.00    -0.224 A  
HETATM   28  H   UNL     1      -7.773  20.310  65.099  1.00  0.00     0.000 HD 
HETATM   29  O   UNL     1      -6.546  16.911  66.110  1.00  0.00    -0.153 OA 
HETATM   30  O   UNL     1      -6.629  18.915  65.087  1.00  0.00    -0.441 OA 
ENDBRANCH  18  20
ENDBRANCH  16  18
ENDBRANCH  13  16
ENDBRANCH   7  10
ENDBRANCH   5   6
ENDBRANCH   4   5
TORSDOF 6
ENDMDL
MODEL       73
REMARK 921   NORMALIZED FREE ENERGY PREDICTED BY IDOCK:   -6.08 KCAL/MOL
REMARK 922        TOTAL FREE ENERGY PREDICTED BY IDOCK:   -9.20 KCAL/MOL
REMARK 923 INTER-LIGAND FREE ENERGY PREDICTED BY IDOCK:   -8.16 KCAL/MOL
REMARK 924 INTRA-LIGAND FREE ENERGY PREDICTED BY IDOCK:   -1.04 KCAL/MOL
REMARK 927      BINDING AFFINITY PREDICTED BY RF-SCORE:    0.00 PKD
ROOT
HETATM    1  O   UNL     1     -12.711   8.632  72.337  1.00  0.00    -0.383 OA 
HETATM    2  C   UNL     1     -11.754   7.680  72.303  1.00  0.00    -0.324 C  
HETATM    3  O   UNL     1     -10.999   7.472  73.242  1.00  0.00    -0.393 OA 
HETATM    4  C   UNL     1     -11.704   6.905  71.015  1.00  0.00    -0.392 C  
ENDROOT
BRANCH   4   5
HETATM    5  C   UNL     1     -10.816   7.593  69.993  1.00  0.00    -0.243 C  
BRANCH   5   6
HETATM    6  N   UNL     1     -11.210   8.964  69.739  1.00  0.00    -0.430 N  
HETATM    7  C   UNL     1     -10.861   9.613  68.570  1.00  0.00    -0.161 C  
HETATM    8  H   UNL     1     -11.758   9.462  70.440  1.00  0.00     0.000 HD 
HETATM    9  O   UNL     1     -10.222   9.078  67.671  1.00  0.00    -0.211 OA 
BRANCH   7  10
HETATM   10  C   UNL     1     -11.253  11.050  68.469  1.00  0.00    -0.329 A  
HETATM   11  C   UNL     1     -11.251  11.657  67.207  1.00  0.00    -0.365 A  
HETATM   12  C   UNL     1     -11.541  13.022  67.077  1.00  0.00    -0.413 A  
HETATM   13  C   UNL     1     -11.852  13.808  68.194  1.00  0.00    -0.376 A  
HETATM   14  C   UNL     1     -11.607  11.811  69.589  1.00  0.00    -0.393 A  
HETATM   15  C   UNL     1     -11.890  13.179  69.450  1.00  0.00    -0.383 A  
BRANCH  13  16
HETATM   16  N   UNL     1     -12.033  15.196  67.999  1.00  0.00    -0.493 NA 
HETATM   17  H   UNL     1     -12.419  15.600  67.146  1.00  0.00     0.000 HD 
BRANCH  16  18
HETATM   18  N   UNL     1     -11.671  15.876  68.982  1.00  0.00    -0.390 NA 
HETATM   19  H   UNL     1     -12.183  15.911  69.864  1.00  0.00     0.000 HD 
BRANCH  18  20
HETATM   20  C   UNL     1     -10.477  16.593  68.743  1.00  0.00    -0.324 A  
HETATM   21  C   UNL     1     -10.421  17.780  67.997  1.00  0.00    -0.399 A  
HETATM   22  C   UNL     1      -9.200  18.405  67.718  1.00  0.00    -0.287 A  
HETATM   23  C   UNL     1      -8.013  17.836  68.178  1.00  0.00    -0.263 A  
HETATM   24  O   UNL     1      -6.820  18.441  67.878  1.00  0.00    -0.211 OA 
HETATM   25  C   UNL     1      -8.034  16.653  68.929  1.00  0.00    -0.236 A  
HETATM   26  C   UNL     1      -6.814  15.974  69.450  1.00  0.00    -0.215 C  
HETATM   27  C   UNL     1      -9.274  16.044  69.201  1.00  0.00    -0.247 A  
HETATM   28  H   UNL     1      -6.010  18.053  68.190  1.00  0.00     0.000 HD 
HETATM   29  O   UNL     1      -6.868  14.945  70.109  1.00  0.00    -0.178 OA 
HETATM   30  O   UNL     1      -5.640  16.566  69.141  1.00  0.00    -0.126 OA 
ENDBRANCH  18  20
ENDBRANCH  16  18
ENDBRANCH  13  16
ENDBRANCH   7  10
ENDBRANCH   5   6
ENDBRANCH   4   5
TORSDOF 6
ENDMDL
MODEL       74
REMARK 921   NORMALIZED FREE ENERGY PREDICTED BY IDOCK:   -6.08 KCAL/MOL
REMARK 922        TOTAL FREE ENERGY PREDICTED BY IDOCK:   -9.20 KCAL/MOL
REMARK 923 INTER-LIGAND FREE ENERGY PREDICTED BY IDOCK:   -8.56 KCAL/MOL
REMARK 924 INTRA-LIGAND FREE ENERGY PREDICTED BY IDOCK:   -0.64 KCAL/MOL
REMARK 927      BINDING AFFINITY PREDICTED BY RF-SCORE:    0.00 PKD
ROOT
HETATM    1  O   UNL     1     -10.338  17.224  66.619  1.00  0.00    -0.317 OA 
HETATM    2  C   UNL     1     -10.577  16.126  65.870  1.00  0.00    -0.312 C  
HETATM    3  O   UNL     1     -10.853  16.189  64.680  1.00  0.00    -0.650 OA 
HETATM    4  C   UNL     1     -10.472  14.831  66.627  1.00  0.00    -0.286 C  
ENDROOT
BRANCH   4   5
HETATM    5  C   UNL     1     -11.795  14.466  67.278  1.00  0.00    -0.405 C  
BRANCH   5   6
HETATM    6  N   UNL     1     -11.643  13.516  68.362  1.00  0.00    -0.319 N  
HETATM    7  C   UNL     1     -11.696  12.153  68.142  1.00  0.00    -0.341 C  
HETATM    8  H   UNL     1     -11.494  13.862  69.309  1.00  0.00     0.000 HD 
HETATM    9  O   UNL     1     -11.851  11.658  67.032  1.00  0.00    -0.591 OA 
BRANCH   7  10
HETATM   10  C   UNL     1     -11.614  11.283  69.353  1.00  0.00    -0.390 A  
HETATM   11  C   UNL     1     -10.444  10.546  69.569  1.00  0.00    -0.265 A  
HETATM   12  C   UNL     1     -10.354   9.662  70.653  1.00  0.00    -0.365 A  
HETATM   13  C   UNL     1     -11.417   9.504  71.552  1.00  0.00    -0.395 A  
HETATM   14  C   UNL     1     -12.667  11.171  70.268  1.00  0.00    -0.213 A  
HETATM   15  C   UNL     1     -12.570  10.280  71.348  1.00  0.00    -0.539 A  
BRANCH  13  16
HETATM   16  N   UNL     1     -11.293   8.522  72.560  1.00  0.00    -0.346 NA 
HETATM   17  H   UNL     1     -10.655   8.604  73.352  1.00  0.00     0.000 HD 
BRANCH  16  18
HETATM   18  N   UNL     1     -12.048   7.543  72.381  1.00  0.00    -0.495 NA 
HETATM   19  H   UNL     1     -13.060   7.580  72.505  1.00  0.00     0.000 HD 
BRANCH  18  20
HETATM   20  C   UNL     1     -11.351   6.378  71.989  1.00  0.00    -0.294 A  
HETATM   21  C   UNL     1     -10.832   5.442  72.896  1.00  0.00    -0.318 A  
HETATM   22  C   UNL     1     -10.075   4.349  72.458  1.00  0.00    -0.237 A  
HETATM   23  C   UNL     1      -9.819   4.188  71.097  1.00  0.00    -0.174 A  
HETATM   24  O   UNL     1      -9.055   3.129  70.679  1.00  0.00    -0.096 OA 
HETATM   25  C   UNL     1     -10.326   5.103  70.164  1.00  0.00    -0.340 A  
HETATM   26  C   UNL     1     -10.092   5.012  68.694  1.00  0.00    -0.121 C  
HETATM   27  C   UNL     1     -11.088   6.193  70.627  1.00  0.00    -0.384 A  
HETATM   28  H   UNL     1      -8.880   3.020  69.752  1.00  0.00     0.000 HD 
HETATM   29  O   UNL     1     -10.555   5.824  67.906  1.00  0.00    -0.230 OA 
HETATM   30  O   UNL     1      -9.329   3.975  68.289  1.00  0.00    -0.139 OA 
ENDBRANCH  18  20
ENDBRANCH  16  18
ENDBRANCH  13  16
ENDBRANCH   7  10
ENDBRANCH   5   6
ENDBRANCH   4   5
TORSDOF 6
ENDMDL
MODEL       75
REMARK 921   NORMALIZED FREE ENERGY PREDICTED BY IDOCK:   -6.08 KCAL/MOL
REMARK 922        TOTAL FREE ENERGY PREDICTED BY IDOCK:   -9.19 KCAL/MOL
REMARK 923 INTER-LIGAND FREE ENERGY PREDICTED BY IDOCK:   -7.71 KCAL/MOL
REMARK 924 INTRA-LIGAND FREE ENERGY PREDICTED BY IDOCK:   -1.48 KCAL/MOL
REMARK 927      BINDING AFFINITY PREDICTED BY RF-SCORE:    0.00 PKD
ROOT
HETATM    1  O   UNL     1     -11.310  14.379  66.389  1.00  0.00    -0.333 OA 
HETATM    2  C   UNL     1     -11.884  13.384  65.678  1.00  0.00    -0.370 C  
HETATM    3  O   UNL     1     -12.588  12.528  66.194  1.00  0.00    -0.397 OA 
HETATM    4  C   UNL     1     -11.581  13.428  64.206  1.00  0.00    -0.442 C  
ENDROOT
BRANCH   4   5
HETATM    5  C   UNL     1     -10.296  12.684  63.886  1.00  0.00    -0.377 C  
BRANCH   5   6
HETATM    6  N   UNL     1      -9.682  12.094  65.058  1.00  0.00    -0.431 N  
HETATM    7  C   UNL     1      -9.546  10.725  65.192  1.00  0.00    -0.245 C  
HETATM    8  H   UNL     1      -9.341  12.703  65.802  1.00  0.00     0.000 HD 
HETATM    9  O   UNL     1      -9.910   9.928  64.335  1.00  0.00    -0.236 OA 
BRANCH   7  10
HETATM   10  C   UNL     1      -8.977  10.240  66.484  1.00  0.00    -0.161 A  
HETATM   11  C   UNL     1      -8.941   8.861  66.723  1.00  0.00    -0.155 A  
HETATM   12  C   UNL     1      -8.482   8.368  67.952  1.00  0.00    -0.131 A  
HETATM   13  C   UNL     1      -8.037   9.231  68.962  1.00  0.00    -0.106 A  
HETATM   14  C   UNL     1      -8.492  11.113  67.464  1.00  0.00    -0.126 A  
HETATM   15  C   UNL     1      -8.039  10.611  68.694  1.00  0.00    -0.132 A  
BRANCH  13  16
HETATM   16  N   UNL     1      -7.685   8.669  70.209  1.00  0.00    -0.078 NA 
HETATM   17  H   UNL     1      -7.001   7.919  70.317  1.00  0.00     0.000 HD 
BRANCH  16  18
HETATM   18  N   UNL     1      -8.299   9.185  71.166  1.00  0.00    -0.304 NA 
HETATM   19  H   UNL     1      -7.989  10.031  71.645  1.00  0.00     0.000 HD 
BRANCH  18  20
HETATM   20  C   UNL     1      -9.469   8.473  71.516  1.00  0.00    -0.222 A  
HETATM   21  C   UNL     1      -9.519   7.077  71.645  1.00  0.00    -0.160 A  
HETATM   22  C   UNL     1     -10.723   6.416  71.910  1.00  0.00    -0.262 A  
HETATM   23  C   UNL     1     -11.901   7.151  72.037  1.00  0.00    -0.295 A  
HETATM   24  O   UNL     1     -13.080   6.491  72.271  1.00  0.00    -0.548 OA 
HETATM   25  C   UNL     1     -11.885   8.547  71.917  1.00  0.00    -0.407 A  
HETATM   26  C   UNL     1     -13.098   9.408  72.030  1.00  0.00    -0.433 C  
HETATM   27  C   UNL     1     -10.662   9.192  71.656  1.00  0.00    -0.441 A  
HETATM   28  H   UNL     1     -13.883   6.992  72.357  1.00  0.00     0.000 HD 
HETATM   29  O   UNL     1     -13.049  10.625  71.928  1.00  0.00    -0.469 OA 
HETATM   30  O   UNL     1     -14.259   8.753  72.247  1.00  0.00    -0.449 OA 
ENDBRANCH  18  20
ENDBRANCH  16  18
ENDBRANCH  13  16
ENDBRANCH   7  10
ENDBRANCH   5   6
ENDBRANCH   4   5
TORSDOF 6
ENDMDL
MODEL       76
REMARK 921   NORMALIZED FREE ENERGY PREDICTED BY IDOCK:   -6.05 KCAL/MOL
REMARK 922        TOTAL FREE ENERGY PREDICTED BY IDOCK:   -9.17 KCAL/MOL
REMARK 923 INTER-LIGAND FREE ENERGY PREDICTED BY IDOCK:   -8.00 KCAL/MOL
REMARK 924 INTRA-LIGAND FREE ENERGY PREDICTED BY IDOCK:   -1.17 KCAL/MOL
REMARK 927      BINDING AFFINITY PREDICTED BY RF-SCORE:    0.00 PKD
ROOT
HETATM    1  O   UNL     1      -6.216   6.903  63.821  1.00  0.00    -0.041 OA 
HETATM    2  C   UNL     1      -7.305   6.450  63.165  1.00  0.00    -0.065 C  
HETATM    3  O   UNL     1      -7.941   7.147  62.386  1.00  0.00    -0.125 OA 
HETATM    4  C   UNL     1      -7.661   5.023  63.477  1.00  0.00    -0.075 C  
ENDROOT
BRANCH   4   5
HETATM    5  C   UNL     1      -8.567   4.934  64.692  1.00  0.00    -0.149 C  
BRANCH   5   6
HETATM    6  N   UNL     1      -9.079   6.225  65.107  1.00  0.00    -0.346 N  
HETATM    7  C   UNL     1      -8.740   6.781  66.325  1.00  0.00    -0.146 C  
HETATM    8  H   UNL     1      -9.705   6.735  64.484  1.00  0.00     0.000 HD 
HETATM    9  O   UNL     1      -7.978   6.241  67.120  1.00  0.00    -0.106 OA 
BRANCH   7  10
HETATM   10  C   UNL     1      -9.402   8.073  66.671  1.00  0.00    -0.249 A  
HETATM   11  C   UNL     1      -9.056   9.218  65.944  1.00  0.00    -0.246 A  
HETATM   12  C   UNL     1      -9.600  10.464  66.285  1.00  0.00    -0.230 A  
HETATM   13  C   UNL     1     -10.508  10.596  67.343  1.00  0.00    -0.235 A  
HETATM   14  C   UNL     1     -10.344   8.180  67.701  1.00  0.00    -0.313 A  
HETATM   15  C   UNL     1     -10.880   9.433  68.039  1.00  0.00    -0.197 A  
BRANCH  13  16
HETATM   16  N   UNL     1     -10.936  11.897  67.693  1.00  0.00    -0.222 NA 
HETATM   17  H   UNL     1     -10.389  12.533  68.273  1.00  0.00     0.000 HD 
BRANCH  16  18
HETATM   18  N   UNL     1     -12.054  12.185  67.218  1.00  0.00    -0.525 NA 
HETATM   19  H   UNL     1     -12.912  11.680  67.446  1.00  0.00     0.000 HD 
BRANCH  18  20
HETATM   20  C   UNL     1     -12.007  13.283  66.331  1.00  0.00    -0.410 A  
HETATM   21  C   UNL     1     -12.503  13.244  65.019  1.00  0.00    -0.498 A  
HETATM   22  C   UNL     1     -12.353  14.334  64.153  1.00  0.00    -0.361 A  
HETATM   23  C   UNL     1     -11.690  15.478  64.593  1.00  0.00    -0.226 A  
HETATM   24  O   UNL     1     -11.526  16.531  63.730  1.00  0.00    -1.615 OA 
HETATM   25  C   UNL     1     -11.186  15.552  65.899  1.00  0.00    -0.120 A  
HETATM   26  C   UNL     1     -10.458  16.732  66.447  1.00  0.00    -0.269 C  
HETATM   27  C   UNL     1     -11.352  14.446  66.754  1.00  0.00    -0.360 A  
HETATM   28  H   UNL     1     -11.073  17.311  64.030  1.00  0.00     0.000 HD 
HETATM   29  O   UNL     1     -10.037  16.767  67.594  1.00  0.00    -0.260 OA 
HETATM   30  O   UNL     1     -10.287  17.761  65.589  1.00  0.00    -0.612 OA 
ENDBRANCH  18  20
ENDBRANCH  16  18
ENDBRANCH  13  16
ENDBRANCH   7  10
ENDBRANCH   5   6
ENDBRANCH   4   5
TORSDOF 6
ENDMDL
MODEL       77
REMARK 921   NORMALIZED FREE ENERGY PREDICTED BY IDOCK:   -6.04 KCAL/MOL
REMARK 922        TOTAL FREE ENERGY PREDICTED BY IDOCK:   -9.15 KCAL/MOL
REMARK 923 INTER-LIGAND FREE ENERGY PREDICTED BY IDOCK:   -8.14 KCAL/MOL
REMARK 924 INTRA-LIGAND FREE ENERGY PREDICTED BY IDOCK:   -1.01 KCAL/MOL
REMARK 927      BINDING AFFINITY PREDICTED BY RF-SCORE:    0.00 PKD
ROOT
HETATM    1  O   UNL     1      -5.305  18.000  67.197  1.00  0.00    -0.124 OA 
HETATM    2  C   UNL     1      -5.733  18.803  68.195  1.00  0.00    -0.189 C  
HETATM    3  O   UNL     1      -5.993  18.381  69.313  1.00  0.00    -0.216 OA 
HETATM    4  C   UNL     1      -5.859  20.250  67.808  1.00  0.00    -0.238 C  
ENDROOT
BRANCH   4   5
HETATM    5  C   UNL     1      -7.226  20.545  67.213  1.00  0.00    -0.319 C  
BRANCH   5   6
HETATM    6  N   UNL     1      -8.051  19.360  67.089  1.00  0.00    -0.261 N  
HETATM    7  C   UNL     1      -9.322  19.303  67.630  1.00  0.00    -0.307 C  
HETATM    8  H   UNL     1      -7.686  18.549  66.590  1.00  0.00     0.000 HD 
HETATM    9  O   UNL     1      -9.840  20.241  68.224  1.00  0.00    -0.321 OA 
BRANCH   7  10
HETATM   10  C   UNL     1     -10.035  17.997  67.509  1.00  0.00    -0.330 A  
HETATM   11  C   UNL     1     -10.529  17.395  68.671  1.00  0.00    -0.355 A  
HETATM   12  C   UNL     1     -11.140  16.135  68.611  1.00  0.00    -0.356 A  
HETATM   13  C   UNL     1     -11.285  15.455  67.395  1.00  0.00    -0.287 A  
HETATM   14  C   UNL     1     -10.214  17.352  66.279  1.00  0.00    -0.344 A  
HETATM   15  C   UNL     1     -10.822  16.088  66.229  1.00  0.00    -0.166 A  
BRANCH  13  16
HETATM   16  N   UNL     1     -11.818  14.147  67.425  1.00  0.00    -0.396 NA 
HETATM   17  H   UNL     1     -11.577  13.456  68.136  1.00  0.00     0.000 HD 
BRANCH  16  18
HETATM   18  N   UNL     1     -12.615  13.925  66.489  1.00  0.00    -0.463 NA 
HETATM   19  H   UNL     1     -13.571  14.279  66.467  1.00  0.00     0.000 HD 
BRANCH  18  20
HETATM   20  C   UNL     1     -12.052  13.130  65.466  1.00  0.00    -0.442 A  
HETATM   21  C   UNL     1     -12.465  13.182  64.126  1.00  0.00    -0.348 A  
HETATM   22  C   UNL     1     -11.933  12.312  63.168  1.00  0.00    -0.342 A  
HETATM   23  C   UNL     1     -10.982  11.365  63.548  1.00  0.00    -0.324 A  
HETATM   24  O   UNL     1     -10.485  10.500  62.608  1.00  0.00    -0.668 OA 
HETATM   25  C   UNL     1     -10.544  11.289  64.877  1.00  0.00    -0.364 A  
HETATM   26  C   UNL     1      -9.540  10.304  65.370  1.00  0.00    -0.251 C  
HETATM   27  C   UNL     1     -11.090  12.178  65.824  1.00  0.00    -0.362 A  
HETATM   28  H   UNL     1      -9.837   9.855  62.866  1.00  0.00     0.000 HD 
HETATM   29  O   UNL     1      -9.174  10.269  66.536  1.00  0.00    -0.149 OA 
HETATM   30  O   UNL     1      -9.063   9.445  64.444  1.00  0.00    -0.217 OA 
ENDBRANCH  18  20
ENDBRANCH  16  18
ENDBRANCH  13  16
ENDBRANCH   7  10
ENDBRANCH   5   6
ENDBRANCH   4   5
TORSDOF 6
ENDMDL
MODEL       78
REMARK 921   NORMALIZED FREE ENERGY PREDICTED BY IDOCK:   -6.03 KCAL/MOL
REMARK 922        TOTAL FREE ENERGY PREDICTED BY IDOCK:   -9.14 KCAL/MOL
REMARK 923 INTER-LIGAND FREE ENERGY PREDICTED BY IDOCK:   -8.21 KCAL/MOL
REMARK 924 INTRA-LIGAND FREE ENERGY PREDICTED BY IDOCK:   -0.93 KCAL/MOL
REMARK 927      BINDING AFFINITY PREDICTED BY RF-SCORE:    0.00 PKD
ROOT
HETATM    1  O   UNL     1      -7.735  17.947  68.690  1.00  0.00    -0.284 OA 
HETATM    2  C   UNL     1      -7.981  18.901  67.766  1.00  0.00    -0.251 C  
HETATM    3  O   UNL     1      -7.739  20.084  67.962  1.00  0.00    -0.299 OA 
HETATM    4  C   UNL     1      -8.572  18.379  66.486  1.00  0.00    -0.287 C  
ENDROOT
BRANCH   4   5
HETATM    5  C   UNL     1     -10.087  18.308  66.567  1.00  0.00    -0.385 C  
BRANCH   5   6
HETATM    6  N   UNL     1     -10.576  16.958  66.761  1.00  0.00    -0.253 N  
HETATM    7  C   UNL     1     -10.886  16.473  68.017  1.00  0.00    -0.337 C  
HETATM    8  H   UNL     1     -10.696  16.351  65.950  1.00  0.00     0.000 HD 
HETATM    9  O   UNL     1     -10.789  17.146  69.038  1.00  0.00    -0.274 OA 
BRANCH   7  10
HETATM   10  C   UNL     1     -11.296  15.040  68.092  1.00  0.00    -0.343 A  
HETATM   11  C   UNL     1     -11.598  14.495  69.345  1.00  0.00    -0.343 A  
HETATM   12  C   UNL     1     -11.917  13.135  69.467  1.00  0.00    -0.354 A  
HETATM   13  C   UNL     1     -11.956  12.294  68.347  1.00  0.00    -0.210 A  
HETATM   14  C   UNL     1     -11.377  14.224  66.957  1.00  0.00    -0.354 A  
HETATM   15  C   UNL     1     -11.692  12.863  67.090  1.00  0.00    -0.437 A  
BRANCH  13  16
HETATM   16  N   UNL     1     -12.185  10.916  68.560  1.00  0.00    -0.809 NA 
HETATM   17  H   UNL     1     -13.020  10.547  69.014  1.00  0.00     0.000 HD 
BRANCH  16  18
HETATM   18  N   UNL     1     -11.257  10.198  68.132  1.00  0.00    -0.482 NA 
HETATM   19  H   UNL     1     -11.137   9.959  67.147  1.00  0.00     0.000 HD 
BRANCH  18  20
HETATM   20  C   UNL     1     -10.393   9.751  69.156  1.00  0.00    -0.211 A  
HETATM   21  C   UNL     1      -8.997   9.695  69.025  1.00  0.00    -0.148 A  
HETATM   22  C   UNL     1      -8.194   9.164  70.041  1.00  0.00    -0.146 A  
HETATM   23  C   UNL     1      -8.786   8.668  71.201  1.00  0.00    -0.197 A  
HETATM   24  O   UNL     1      -7.992   8.125  72.179  1.00  0.00    -0.108 OA 
HETATM   25  C   UNL     1     -10.177   8.711  71.365  1.00  0.00    -0.324 A  
HETATM   26  C   UNL     1     -10.892   8.196  72.568  1.00  0.00    -0.361 C  
HETATM   27  C   UNL     1     -10.966   9.255  70.333  1.00  0.00    -0.302 A  
HETATM   28  H   UNL     1      -8.396   7.787  72.970  1.00  0.00     0.000 HD 
HETATM   29  O   UNL     1     -12.107   8.256  72.683  1.00  0.00    -0.384 OA 
HETATM   30  O   UNL     1     -10.108   7.651  73.523  1.00  0.00    -0.325 OA 
ENDBRANCH  18  20
ENDBRANCH  16  18
ENDBRANCH  13  16
ENDBRANCH   7  10
ENDBRANCH   5   6
ENDBRANCH   4   5
TORSDOF 6
ENDMDL
MODEL       79
REMARK 921   NORMALIZED FREE ENERGY PREDICTED BY IDOCK:   -6.03 KCAL/MOL
REMARK 922        TOTAL FREE ENERGY PREDICTED BY IDOCK:   -9.13 KCAL/MOL
REMARK 923 INTER-LIGAND FREE ENERGY PREDICTED BY IDOCK:   -8.29 KCAL/MOL
REMARK 924 INTRA-LIGAND FREE ENERGY PREDICTED BY IDOCK:   -0.83 KCAL/MOL
REMARK 927      BINDING AFFINITY PREDICTED BY RF-SCORE:    0.00 PKD
ROOT
HETATM    1  O   UNL     1     -10.706  16.974  67.498  1.00  0.00    -0.330 OA 
HETATM    2  C   UNL     1     -10.247  17.070  66.232  1.00  0.00    -0.329 C  
HETATM    3  O   UNL     1     -10.578  17.975  65.478  1.00  0.00    -0.639 OA 
HETATM    4  C   UNL     1      -9.299  15.971  65.838  1.00  0.00    -0.335 C  
ENDROOT
BRANCH   4   5
HETATM    5  C   UNL     1     -10.047  14.766  65.295  1.00  0.00    -0.354 C  
BRANCH   5   6
HETATM    6  N   UNL     1     -10.270  13.745  66.297  1.00  0.00    -0.290 N  
HETATM    7  C   UNL     1     -11.539  13.439  66.751  1.00  0.00    -0.365 C  
HETATM    8  H   UNL     1      -9.470  13.238  66.678  1.00  0.00     0.000 HD 
HETATM    9  O   UNL     1     -12.551  13.987  66.329  1.00  0.00    -0.451 OA 
BRANCH   7  10
HETATM   10  C   UNL     1     -11.626  12.430  67.847  1.00  0.00    -0.415 A  
HETATM   11  C   UNL     1     -11.970  12.866  69.132  1.00  0.00    -0.308 A  
HETATM   12  C   UNL     1     -11.991  11.963  70.204  1.00  0.00    -0.413 A  
HETATM   13  C   UNL     1     -11.685  10.608  70.019  1.00  0.00    -0.324 A  
HETATM   14  C   UNL     1     -11.364  11.071  67.637  1.00  0.00    -0.355 A  
HETATM   15  C   UNL     1     -11.383  10.175  68.717  1.00  0.00    -0.172 A  
BRANCH  13  16
HETATM   16  N   UNL     1     -11.628   9.779  71.162  1.00  0.00    -0.362 NA 
HETATM   17  H   UNL     1     -11.056   9.985  71.980  1.00  0.00     0.000 HD 
BRANCH  16  18
HETATM   18  N   UNL     1     -12.353   8.766  71.064  1.00  0.00    -0.458 NA 
HETATM   19  H   UNL     1     -13.335   8.799  70.790  1.00  0.00     0.000 HD 
BRANCH  18  20
HETATM   20  C   UNL     1     -11.668   7.570  71.374  1.00  0.00    -0.283 A  
HETATM   21  C   UNL     1     -11.351   7.173  72.682  1.00  0.00    -0.306 A  
HETATM   22  C   UNL     1     -10.596   6.020  72.928  1.00  0.00    -0.262 A  
HETATM   23  C   UNL     1     -10.137   5.254  71.857  1.00  0.00    -0.197 A  
HETATM   24  O   UNL     1      -9.377   4.141  72.107  1.00  0.00    -0.119 OA 
HETATM   25  C   UNL     1     -10.439   5.621  70.539  1.00  0.00    -0.347 A  
HETATM   26  C   UNL     1      -9.982   4.865  69.337  1.00  0.00    -0.212 C  
HETATM   27  C   UNL     1     -11.204   6.781  70.314  1.00  0.00    -0.385 A  
HETATM   28  H   UNL     1      -9.064   3.619  71.378  1.00  0.00     0.000 HD 
HETATM   29  O   UNL     1     -10.269   5.207  68.200  1.00  0.00    -0.163 OA 
HETATM   30  O   UNL     1      -9.222   3.777  69.588  1.00  0.00    -0.119 OA 
ENDBRANCH  18  20
ENDBRANCH  16  18
ENDBRANCH  13  16
ENDBRANCH   7  10
ENDBRANCH   5   6
ENDBRANCH   4   5
TORSDOF 6
ENDMDL
MODEL       80
REMARK 921   NORMALIZED FREE ENERGY PREDICTED BY IDOCK:   -6.00 KCAL/MOL
REMARK 922        TOTAL FREE ENERGY PREDICTED BY IDOCK:   -9.09 KCAL/MOL
REMARK 923 INTER-LIGAND FREE ENERGY PREDICTED BY IDOCK:   -8.88 KCAL/MOL
REMARK 924 INTRA-LIGAND FREE ENERGY PREDICTED BY IDOCK:   -0.21 KCAL/MOL
REMARK 927      BINDING AFFINITY PREDICTED BY RF-SCORE:    0.00 PKD
ROOT
HETATM    1  O   UNL     1      -5.175  19.203  66.536  1.00  0.00    -0.153 OA 
HETATM    2  C   UNL     1      -5.573  19.791  67.684  1.00  0.00    -0.185 C  
HETATM    3  O   UNL     1      -5.253  19.368  68.786  1.00  0.00    -0.188 OA 
HETATM    4  C   UNL     1      -6.439  21.004  67.485  1.00  0.00    -0.420 C  
ENDROOT
BRANCH   4   5
HETATM    5  C   UNL     1      -7.905  20.623  67.371  1.00  0.00    -0.283 C  
BRANCH   5   6
HETATM    6  N   UNL     1      -8.125  19.196  67.495  1.00  0.00    -0.269 N  
HETATM    7  C   UNL     1      -8.917  18.669  68.497  1.00  0.00    -0.334 C  
HETATM    8  H   UNL     1      -7.684  18.565  66.825  1.00  0.00     0.000 HD 
HETATM    9  O   UNL     1      -9.497  19.361  69.326  1.00  0.00    -0.319 OA 
BRANCH   7  10
HETATM   10  C   UNL     1      -8.993  17.180  68.568  1.00  0.00    -0.265 A  
HETATM   11  C   UNL     1      -7.863  16.435  68.213  1.00  0.00    -0.168 A  
HETATM   12  C   UNL     1      -7.915  15.035  68.196  1.00  0.00    -0.131 A  
HETATM   13  C   UNL     1      -9.085  14.347  68.544  1.00  0.00    -0.193 A  
HETATM   14  C   UNL     1     -10.155  16.508  68.964  1.00  0.00    -0.279 A  
HETATM   15  C   UNL     1     -10.200  15.105  68.938  1.00  0.00    -0.236 A  
BRANCH  13  16
HETATM   16  N   UNL     1      -9.094  12.940  68.406  1.00  0.00    -0.322 NA 
HETATM   17  H   UNL     1      -9.321  12.300  69.167  1.00  0.00     0.000 HD 
BRANCH  16  18
HETATM   18  N   UNL     1      -8.796  12.563  67.253  1.00  0.00    -0.187 NA 
HETATM   19  H   UNL     1      -7.913  12.109  67.018  1.00  0.00     0.000 HD 
BRANCH  18  20
HETATM   20  C   UNL     1      -9.811  12.833  66.308  1.00  0.00    -0.267 A  
HETATM   21  C   UNL     1     -10.536  11.834  65.641  1.00  0.00    -0.308 A  
HETATM   22  C   UNL     1     -11.472  12.155  64.651  1.00  0.00    -0.388 A  
HETATM   23  C   UNL     1     -11.686  13.490  64.310  1.00  0.00    -0.416 A  
HETATM   24  O   UNL     1     -12.586  13.793  63.322  1.00  0.00    -1.005 OA 
HETATM   25  C   UNL     1     -10.981  14.512  64.960  1.00  0.00    -0.408 A  
HETATM   26  C   UNL     1     -11.141  15.962  64.651  1.00  0.00    -0.354 C  
HETATM   27  C   UNL     1     -10.048  14.167  65.956  1.00  0.00    -0.330 A  
HETATM   28  H   UNL     1     -12.731  14.703  63.088  1.00  0.00     0.000 HD 
HETATM   29  O   UNL     1     -10.516  16.830  65.243  1.00  0.00    -0.630 OA 
HETATM   30  O   UNL     1     -12.019  16.255  63.669  1.00  0.00    -0.840 OA 
ENDBRANCH  18  20
ENDBRANCH  16  18
ENDBRANCH  13  16
ENDBRANCH   7  10
ENDBRANCH   5   6
ENDBRANCH   4   5
TORSDOF 6
ENDMDL
MODEL       81
REMARK 921   NORMALIZED FREE ENERGY PREDICTED BY IDOCK:   -5.97 KCAL/MOL
REMARK 922        TOTAL FREE ENERGY PREDICTED BY IDOCK:   -9.05 KCAL/MOL
REMARK 923 INTER-LIGAND FREE ENERGY PREDICTED BY IDOCK:   -8.01 KCAL/MOL
REMARK 924 INTRA-LIGAND FREE ENERGY PREDICTED BY IDOCK:   -1.04 KCAL/MOL
REMARK 927      BINDING AFFINITY PREDICTED BY RF-SCORE:    0.00 PKD
ROOT
HETATM    1  O   UNL     1      -9.471   5.062  71.157  1.00  0.00    -0.143 OA 
HETATM    2  C   UNL     1     -10.692   5.634  71.088  1.00  0.00    -0.241 C  
HETATM    3  O   UNL     1     -11.214   5.946  70.026  1.00  0.00    -0.364 OA 
HETATM    4  C   UNL     1     -11.346   5.848  72.425  1.00  0.00    -0.358 C  
ENDROOT
BRANCH   4   5
HETATM    5  C   UNL     1     -10.943   7.183  73.028  1.00  0.00    -0.317 C  
BRANCH   5   6
HETATM    6  N   UNL     1     -10.660   8.190  72.025  1.00  0.00    -0.247 N  
HETATM    7  C   UNL     1     -11.642   9.043  71.559  1.00  0.00    -0.343 C  
HETATM    8  H   UNL     1      -9.714   8.270  71.654  1.00  0.00     0.000 HD 
HETATM    9  O   UNL     1     -12.797   9.024  71.969  1.00  0.00    -0.343 OA 
BRANCH   7  10
HETATM   10  C   UNL     1     -11.243   9.977  70.464  1.00  0.00    -0.408 A  
HETATM   11  C   UNL     1     -12.198  10.870  69.965  1.00  0.00    -0.422 A  
HETATM   12  C   UNL     1     -11.886  11.711  68.889  1.00  0.00    -0.392 A  
HETATM   13  C   UNL     1     -10.617  11.693  68.296  1.00  0.00    -0.205 A  
HETATM   14  C   UNL     1      -9.956   9.979  69.914  1.00  0.00    -0.280 A  
HETATM   15  C   UNL     1      -9.654  10.822  68.833  1.00  0.00    -0.204 A  
BRANCH  13  16
HETATM   16  N   UNL     1     -10.407  12.495  67.152  1.00  0.00    -0.220 NA 
HETATM   17  H   UNL     1     -11.132  12.695  66.462  1.00  0.00     0.000 HD 
BRANCH  16  18
HETATM   18  N   UNL     1      -9.240  12.935  67.074  1.00  0.00    -0.220 NA 
HETATM   19  H   UNL     1      -8.412  12.339  67.075  1.00  0.00     0.000 HD 
BRANCH  18  20
HETATM   20  C   UNL     1      -9.190  14.344  66.984  1.00  0.00    -0.234 A  
HETATM   21  C   UNL     1      -8.450  15.152  67.860  1.00  0.00    -0.152 A  
HETATM   22  C   UNL     1      -8.503  16.548  67.778  1.00  0.00    -0.180 A  
HETATM   23  C   UNL     1      -9.313  17.154  66.819  1.00  0.00    -0.254 A  
HETATM   24  O   UNL     1      -9.378  18.522  66.764  1.00  0.00    -0.279 OA 
HETATM   25  C   UNL     1     -10.062  16.376  65.926  1.00  0.00    -0.370 A  
HETATM   26  C   UNL     1     -10.959  16.940  64.877  1.00  0.00    -0.001 C  
HETATM   27  C   UNL     1      -9.990  14.973  66.022  1.00  0.00    -0.334 A  
HETATM   28  H   UNL     1      -9.930  18.935  66.110  1.00  0.00     0.000 HD 
HETATM   29  O   UNL     1     -11.594  16.232  64.108  1.00  0.00    -0.838 OA 
HETATM   30  O   UNL     1     -11.030  18.288  64.835  1.00  0.00    -0.660 OA 
ENDBRANCH  18  20
ENDBRANCH  16  18
ENDBRANCH  13  16
ENDBRANCH   7  10
ENDBRANCH   5   6
ENDBRANCH   4   5
TORSDOF 6
ENDMDL
MODEL       82
REMARK 921   NORMALIZED FREE ENERGY PREDICTED BY IDOCK:   -5.94 KCAL/MOL
REMARK 922        TOTAL FREE ENERGY PREDICTED BY IDOCK:   -9.01 KCAL/MOL
REMARK 923 INTER-LIGAND FREE ENERGY PREDICTED BY IDOCK:   -7.92 KCAL/MOL
REMARK 924 INTRA-LIGAND FREE ENERGY PREDICTED BY IDOCK:   -1.10 KCAL/MOL
REMARK 927      BINDING AFFINITY PREDICTED BY RF-SCORE:    0.00 PKD
ROOT
HETATM    1  O   UNL     1      -6.528   9.238  73.164  1.00  0.00    -0.304 OA 
HETATM    2  C   UNL     1      -6.239   7.985  72.751  1.00  0.00    -0.071 C  
HETATM    3  O   UNL     1      -5.807   7.744  71.632  1.00  0.00    -0.035 OA 
HETATM    4  C   UNL     1      -6.494   6.924  73.785  1.00  0.00    -0.067 C  
ENDROOT
BRANCH   4   5
HETATM    5  C   UNL     1      -7.929   6.430  73.725  1.00  0.00    -0.101 C  
BRANCH   5   6
HETATM    6  N   UNL     1      -8.769   7.246  72.872  1.00  0.00    -0.120 N  
HETATM    7  C   UNL     1     -10.100   7.469  73.166  1.00  0.00    -0.308 C  
HETATM    8  H   UNL     1      -8.367   7.667  72.034  1.00  0.00     0.000 HD 
HETATM    9  O   UNL     1     -10.651   7.017  74.164  1.00  0.00    -0.274 OA 
BRANCH   7  10
HETATM   10  C   UNL     1     -10.878   8.255  72.163  1.00  0.00    -0.390 A  
HETATM   11  C   UNL     1     -10.311   8.479  70.903  1.00  0.00    -0.245 A  
HETATM   12  C   UNL     1     -10.976   9.273  69.959  1.00  0.00    -0.254 A  
HETATM   13  C   UNL     1     -12.222   9.848  70.241  1.00  0.00    -0.047 A  
HETATM   14  C   UNL     1     -12.143   8.784  72.444  1.00  0.00    -0.379 A  
HETATM   15  C   UNL     1     -12.799   9.583  71.494  1.00  0.00    -0.464 A  
BRANCH  13  16
HETATM   16  N   UNL     1     -12.784  10.718  69.280  1.00  0.00    -0.590 NA 
HETATM   17  H   UNL     1     -13.754  11.033  69.303  1.00  0.00     0.000 HD 
BRANCH  16  18
HETATM   18  N   UNL     1     -11.969  11.061  68.398  1.00  0.00    -0.737 NA 
HETATM   19  H   UNL     1     -11.523  10.406  67.755  1.00  0.00     0.000 HD 
BRANCH  18  20
HETATM   20  C   UNL     1     -11.728  12.453  68.386  1.00  0.00    -0.336 A  
HETATM   21  C   UNL     1     -11.890  13.279  69.509  1.00  0.00    -0.388 A  
HETATM   22  C   UNL     1     -11.719  14.666  69.420  1.00  0.00    -0.355 A  
HETATM   23  C   UNL     1     -11.394  15.245  68.194  1.00  0.00    -0.338 A  
HETATM   24  O   UNL     1     -11.255  16.606  68.112  1.00  0.00    -0.339 OA 
HETATM   25  C   UNL     1     -11.221  14.448  67.054  1.00  0.00    -0.336 A  
HETATM   26  C   UNL     1     -10.882  14.984  65.705  1.00  0.00    -0.349 C  
HETATM   27  C   UNL     1     -11.393  13.055  67.167  1.00  0.00    -0.348 A  
HETATM   28  H   UNL     1     -11.033  17.001  67.276  1.00  0.00     0.000 HD 
HETATM   29  O   UNL     1     -10.731  14.260  64.731  1.00  0.00    -0.407 OA 
HETATM   30  O   UNL     1     -10.759  16.326  65.625  1.00  0.00    -0.338 OA 
ENDBRANCH  18  20
ENDBRANCH  16  18
ENDBRANCH  13  16
ENDBRANCH   7  10
ENDBRANCH   5   6
ENDBRANCH   4   5
TORSDOF 6
ENDMDL
MODEL       83
REMARK 921   NORMALIZED FREE ENERGY PREDICTED BY IDOCK:   -5.94 KCAL/MOL
REMARK 922        TOTAL FREE ENERGY PREDICTED BY IDOCK:   -9.01 KCAL/MOL
REMARK 923 INTER-LIGAND FREE ENERGY PREDICTED BY IDOCK:   -7.97 KCAL/MOL
REMARK 924 INTRA-LIGAND FREE ENERGY PREDICTED BY IDOCK:   -1.05 KCAL/MOL
REMARK 927      BINDING AFFINITY PREDICTED BY RF-SCORE:    0.00 PKD
ROOT
HETATM    1  O   UNL     1      -6.894  18.693  66.632  1.00  0.00    -0.189 OA 
HETATM    2  C   UNL     1      -7.440  19.417  67.632  1.00  0.00    -0.252 C  
HETATM    3  O   UNL     1      -7.134  19.254  68.805  1.00  0.00    -0.309 OA 
HETATM    4  C   UNL     1      -8.449  20.433  67.175  1.00  0.00    -0.393 C  
ENDROOT
BRANCH   4   5
HETATM    5  C   UNL     1      -9.839  19.827  67.084  1.00  0.00    -0.386 C  
BRANCH   5   6
HETATM    6  N   UNL     1      -9.872  18.436  67.488  1.00  0.00    -0.304 N  
HETATM    7  C   UNL     1     -10.254  17.437  66.613  1.00  0.00    -0.324 C  
HETATM    8  H   UNL     1      -9.607  18.188  68.441  1.00  0.00     0.000 HD 
HETATM    9  O   UNL     1     -10.567  17.651  65.447  1.00  0.00    -0.657 OA 
BRANCH   7  10
HETATM   10  C   UNL     1     -10.330  16.057  67.176  1.00  0.00    -0.295 A  
HETATM   11  C   UNL     1      -9.481  15.718  68.236  1.00  0.00    -0.200 A  
HETATM   12  C   UNL     1      -9.470  14.412  68.744  1.00  0.00    -0.161 A  
HETATM   13  C   UNL     1     -10.310  13.421  68.221  1.00  0.00    -0.249 A  
HETATM   14  C   UNL     1     -11.209  15.090  66.673  1.00  0.00    -0.311 A  
HETATM   15  C   UNL     1     -11.187  13.783  67.185  1.00  0.00    -0.327 A  
BRANCH  13  16
HETATM   16  N   UNL     1     -10.171  12.104  68.714  1.00  0.00    -0.381 NA 
HETATM   17  H   UNL     1      -9.435  11.464  68.414  1.00  0.00     0.000 HD 
BRANCH  16  18
HETATM   18  N   UNL     1     -11.043  11.806  69.557  1.00  0.00    -0.439 NA 
HETATM   19  H   UNL     1     -11.812  12.425  69.816  1.00  0.00     0.000 HD 
BRANCH  18  20
HETATM   20  C   UNL     1     -10.852  10.522  70.114  1.00  0.00    -0.227 A  
HETATM   21  C   UNL     1      -9.621   9.847  70.106  1.00  0.00    -0.237 A  
HETATM   22  C   UNL     1      -9.507   8.541  70.595  1.00  0.00    -0.203 A  
HETATM   23  C   UNL     1     -10.635   7.888  71.091  1.00  0.00    -0.213 A  
HETATM   24  O   UNL     1     -10.518   6.599  71.544  1.00  0.00    -0.212 OA 
HETATM   25  C   UNL     1     -11.878   8.535  71.116  1.00  0.00    -0.322 A  
HETATM   26  C   UNL     1     -13.134   7.908  71.620  1.00  0.00    -0.332 C  
HETATM   27  C   UNL     1     -11.969   9.850  70.623  1.00  0.00    -0.361 A  
HETATM   28  H   UNL     1     -11.287   6.154  71.881  1.00  0.00     0.000 HD 
HETATM   29  O   UNL     1     -14.202   8.503  71.635  1.00  0.00    -0.415 OA 
HETATM   30  O   UNL     1     -13.017   6.635  72.053  1.00  0.00    -0.267 OA 
ENDBRANCH  18  20
ENDBRANCH  16  18
ENDBRANCH  13  16
ENDBRANCH   7  10
ENDBRANCH   5   6
ENDBRANCH   4   5
TORSDOF 6
ENDMDL
MODEL       84
REMARK 921   NORMALIZED FREE ENERGY PREDICTED BY IDOCK:   -5.93 KCAL/MOL
REMARK 922        TOTAL FREE ENERGY PREDICTED BY IDOCK:   -9.00 KCAL/MOL
REMARK 923 INTER-LIGAND FREE ENERGY PREDICTED BY IDOCK:   -8.39 KCAL/MOL
REMARK 924 INTRA-LIGAND FREE ENERGY PREDICTED BY IDOCK:   -0.61 KCAL/MOL
REMARK 927      BINDING AFFINITY PREDICTED BY RF-SCORE:    0.00 PKD
ROOT
HETATM    1  O   UNL     1     -11.118   9.583  71.676  1.00  0.00    -0.371 OA 
HETATM    2  C   UNL     1     -10.101   8.695  71.680  1.00  0.00    -0.294 C  
HETATM    3  O   UNL     1      -8.939   9.026  71.868  1.00  0.00    -0.364 OA 
HETATM    4  C   UNL     1     -10.526   7.274  71.435  1.00  0.00    -0.219 C  
ENDROOT
BRANCH   4   5
HETATM    5  C   UNL     1     -10.569   6.960  69.950  1.00  0.00    -0.228 C  
BRANCH   5   6
HETATM    6  N   UNL     1     -10.701   8.146  69.129  1.00  0.00    -0.380 N  
HETATM    7  C   UNL     1     -10.311   8.156  67.803  1.00  0.00    -0.233 C  
HETATM    8  H   UNL     1     -11.092   8.994  69.539  1.00  0.00     0.000 HD 
HETATM    9  O   UNL     1      -9.852   7.174  67.232  1.00  0.00    -0.146 OA 
BRANCH   7  10
HETATM   10  C   UNL     1     -10.417   9.464  67.091  1.00  0.00    -0.315 A  
HETATM   11  C   UNL     1      -9.714   9.633  65.894  1.00  0.00    -0.343 A  
HETATM   12  C   UNL     1      -9.728  10.869  65.232  1.00  0.00    -0.296 A  
HETATM   13  C   UNL     1     -10.452  11.956  65.739  1.00  0.00    -0.256 A  
HETATM   14  C   UNL     1     -11.184  10.526  67.586  1.00  0.00    -0.338 A  
HETATM   15  C   UNL     1     -11.188  11.761  66.920  1.00  0.00    -0.387 A  
BRANCH  13  16
HETATM   16  N   UNL     1     -10.339  13.198  65.074  1.00  0.00    -0.363 NA 
HETATM   17  H   UNL     1      -9.520  13.474  64.532  1.00  0.00     0.000 HD 
BRANCH  16  18
HETATM   18  N   UNL     1     -11.346  13.921  65.219  1.00  0.00    -0.306 NA 
HETATM   19  H   UNL     1     -12.224  13.772  64.722  1.00  0.00     0.000 HD 
BRANCH  18  20
HETATM   20  C   UNL     1     -11.140  14.968  66.146  1.00  0.00    -0.329 A  
HETATM   21  C   UNL     1     -10.403  16.126  65.857  1.00  0.00    -0.384 A  
HETATM   22  C   UNL     1     -10.158  17.094  66.839  1.00  0.00    -0.298 A  
HETATM   23  C   UNL     1     -10.644  16.903  68.132  1.00  0.00    -0.360 A  
HETATM   24  O   UNL     1     -10.377  17.844  69.093  1.00  0.00    -0.416 OA 
HETATM   25  C   UNL     1     -11.387  15.759  68.452  1.00  0.00    -0.372 A  
HETATM   26  C   UNL     1     -11.934  15.473  69.809  1.00  0.00    -0.364 C  
HETATM   27  C   UNL     1     -11.625  14.801  67.448  1.00  0.00    -0.377 A  
HETATM   28  H   UNL     1     -10.707  17.714  69.975  1.00  0.00     0.000 HD 
HETATM   29  O   UNL     1     -12.586  14.468  70.054  1.00  0.00    -0.318 OA 
HETATM   30  O   UNL     1     -11.658  16.395  70.756  1.00  0.00    -0.334 OA 
ENDBRANCH  18  20
ENDBRANCH  16  18
ENDBRANCH  13  16
ENDBRANCH   7  10
ENDBRANCH   5   6
ENDBRANCH   4   5
TORSDOF 6
ENDMDL
MODEL       85
REMARK 921   NORMALIZED FREE ENERGY PREDICTED BY IDOCK:   -5.91 KCAL/MOL
REMARK 922        TOTAL FREE ENERGY PREDICTED BY IDOCK:   -8.97 KCAL/MOL
REMARK 923 INTER-LIGAND FREE ENERGY PREDICTED BY IDOCK:   -7.88 KCAL/MOL
REMARK 924 INTRA-LIGAND FREE ENERGY PREDICTED BY IDOCK:   -1.09 KCAL/MOL
REMARK 927      BINDING AFFINITY PREDICTED BY RF-SCORE:    0.00 PKD
ROOT
HETATM    1  O   UNL     1     -10.245   7.143  71.094  1.00  0.00    -0.192 OA 
HETATM    2  C   UNL     1     -11.388   6.567  70.661  1.00  0.00    -0.351 C  
HETATM    3  O   UNL     1     -11.521   6.144  69.522  1.00  0.00    -0.429 OA 
HETATM    4  C   UNL     1     -12.471   6.494  71.702  1.00  0.00    -0.271 C  
ENDROOT
BRANCH   4   5
HETATM    5  C   UNL     1     -13.312   7.759  71.711  1.00  0.00    -0.319 C  
BRANCH   5   6
HETATM    6  N   UNL     1     -12.748   8.814  70.894  1.00  0.00    -0.492 N  
HETATM    7  C   UNL     1     -12.876  10.146  71.242  1.00  0.00    -0.410 C  
HETATM    8  H   UNL     1     -12.245   8.569  70.042  1.00  0.00     0.000 HD 
HETATM    9  O   UNL     1     -13.447  10.521  72.260  1.00  0.00    -0.340 OA 
BRANCH   7  10
HETATM   10  C   UNL     1     -12.327  11.139  70.272  1.00  0.00    -0.397 A  
HETATM   11  C   UNL     1     -12.332  12.493  70.627  1.00  0.00    -0.369 A  
HETATM   12  C   UNL     1     -11.894  13.465  69.717  1.00  0.00    -0.393 A  
HETATM   13  C   UNL     1     -11.429  13.111  68.443  1.00  0.00    -0.315 A  
HETATM   14  C   UNL     1     -11.821  10.765  69.022  1.00  0.00    -0.325 A  
HETATM   15  C   UNL     1     -11.389  11.745  68.115  1.00  0.00    -0.348 A  
BRANCH  13  16
HETATM   16  N   UNL     1     -11.099  14.150  67.544  1.00  0.00    -0.283 NA 
HETATM   17  H   UNL     1     -10.870  13.995  66.562  1.00  0.00     0.000 HD 
BRANCH  16  18
HETATM   18  N   UNL     1     -11.118  15.279  68.078  1.00  0.00    -0.300 NA 
HETATM   19  H   UNL     1     -11.713  15.518  68.872  1.00  0.00     0.000 HD 
BRANCH  18  20
HETATM   20  C   UNL     1     -10.230  16.190  67.465  1.00  0.00    -0.267 A  
HETATM   21  C   UNL     1     -10.646  17.364  66.818  1.00  0.00    -0.194 A  
HETATM   22  C   UNL     1      -9.732  18.189  66.153  1.00  0.00    -0.217 A  
HETATM   23  C   UNL     1      -8.383  17.838  66.119  1.00  0.00    -0.136 A  
HETATM   24  O   UNL     1      -7.499  18.639  65.443  1.00  0.00    -0.473 OA 
HETATM   25  C   UNL     1      -7.934  16.674  66.757  1.00  0.00    -0.284 A  
HETATM   26  C   UNL     1      -6.513  16.220  66.762  1.00  0.00     0.075 C  
HETATM   27  C   UNL     1      -8.870  15.861  67.425  1.00  0.00    -0.201 A  
HETATM   28  H   UNL     1      -6.579  18.399  65.419  1.00  0.00     0.000 HD 
HETATM   29  O   UNL     1      -6.153  15.202  67.336  1.00  0.00    -0.325 OA 
HETATM   30  O   UNL     1      -5.649  17.004  66.084  1.00  0.00    -0.321 OA 
ENDBRANCH  18  20
ENDBRANCH  16  18
ENDBRANCH  13  16
ENDBRANCH   7  10
ENDBRANCH   5   6
ENDBRANCH   4   5
TORSDOF 6
ENDMDL
MODEL       86
REMARK 921   NORMALIZED FREE ENERGY PREDICTED BY IDOCK:   -5.89 KCAL/MOL
REMARK 922        TOTAL FREE ENERGY PREDICTED BY IDOCK:   -8.94 KCAL/MOL
REMARK 923 INTER-LIGAND FREE ENERGY PREDICTED BY IDOCK:   -8.06 KCAL/MOL
REMARK 924 INTRA-LIGAND FREE ENERGY PREDICTED BY IDOCK:   -0.88 KCAL/MOL
REMARK 927      BINDING AFFINITY PREDICTED BY RF-SCORE:    0.00 PKD
ROOT
HETATM    1  O   UNL     1      -6.137  21.111  65.491  1.00  0.00    -0.251 OA 
HETATM    2  C   UNL     1      -6.032  19.795  65.772  1.00  0.00    -0.177 C  
HETATM    3  O   UNL     1      -6.295  18.925  64.953  1.00  0.00    -0.425 OA 
HETATM    4  C   UNL     1      -5.566  19.500  67.170  1.00  0.00    -0.171 C  
ENDROOT
BRANCH   4   5
HETATM    5  C   UNL     1      -6.733  19.439  68.139  1.00  0.00    -0.259 C  
BRANCH   5   6
HETATM    6  N   UNL     1      -7.696  18.412  67.795  1.00  0.00    -0.230 N  
HETATM    7  C   UNL     1      -9.048  18.580  68.025  1.00  0.00    -0.301 C  
HETATM    8  H   UNL     1      -7.367  17.544  67.372  1.00  0.00     0.000 HD 
HETATM    9  O   UNL     1      -9.524  19.601  68.509  1.00  0.00    -0.355 OA 
BRANCH   7  10
HETATM   10  C   UNL     1      -9.924  17.414  67.706  1.00  0.00    -0.301 A  
HETATM   11  C   UNL     1     -10.522  16.719  68.763  1.00  0.00    -0.338 A  
HETATM   12  C   UNL     1     -11.293  15.575  68.512  1.00  0.00    -0.356 A  
HETATM   13  C   UNL     1     -11.496  15.108  67.207  1.00  0.00    -0.279 A  
HETATM   14  C   UNL     1     -10.156  16.988  66.393  1.00  0.00    -0.325 A  
HETATM   15  C   UNL     1     -10.924  15.839  66.151  1.00  0.00    -0.169 A  
BRANCH  13  16
HETATM   16  N   UNL     1     -12.198  13.893  67.038  1.00  0.00    -0.474 NA 
HETATM   17  H   UNL     1     -12.909  13.748  66.320  1.00  0.00     0.000 HD 
BRANCH  16  18
HETATM   18  N   UNL     1     -11.857  13.016  67.859  1.00  0.00    -0.353 NA 
HETATM   19  H   UNL     1     -11.957  13.119  68.869  1.00  0.00     0.000 HD 
BRANCH  18  20
HETATM   20  C   UNL     1     -11.317  11.867  67.240  1.00  0.00    -0.329 A  
HETATM   21  C   UNL     1     -11.143  10.640  67.898  1.00  0.00    -0.371 A  
HETATM   22  C   UNL     1     -10.524   9.557  67.263  1.00  0.00    -0.328 A  
HETATM   23  C   UNL     1     -10.059   9.697  65.956  1.00  0.00    -0.248 A  
HETATM   24  O   UNL     1      -9.432   8.638  65.352  1.00  0.00    -0.446 OA 
HETATM   25  C   UNL     1     -10.220  10.907  65.269  1.00  0.00    -0.351 A  
HETATM   26  C   UNL     1      -9.745  11.145  63.876  1.00  0.00    -0.286 C  
HETATM   27  C   UNL     1     -10.849  11.982  65.925  1.00  0.00    -0.329 A  
HETATM   28  H   UNL     1      -9.114   8.733  64.461  1.00  0.00     0.000 HD 
HETATM   29  O   UNL     1      -9.908  12.212  63.302  1.00  0.00    -0.385 OA 
HETATM   30  O   UNL     1      -9.116  10.105  63.289  1.00  0.00    -0.226 OA 
ENDBRANCH  18  20
ENDBRANCH  16  18
ENDBRANCH  13  16
ENDBRANCH   7  10
ENDBRANCH   5   6
ENDBRANCH   4   5
TORSDOF 6
ENDMDL
MODEL       87
REMARK 921   NORMALIZED FREE ENERGY PREDICTED BY IDOCK:   -5.87 KCAL/MOL
REMARK 922        TOTAL FREE ENERGY PREDICTED BY IDOCK:   -8.91 KCAL/MOL
REMARK 923 INTER-LIGAND FREE ENERGY PREDICTED BY IDOCK:   -7.96 KCAL/MOL
REMARK 924 INTRA-LIGAND FREE ENERGY PREDICTED BY IDOCK:   -0.95 KCAL/MOL
REMARK 927      BINDING AFFINITY PREDICTED BY RF-SCORE:    0.00 PKD
ROOT
HETATM    1  O   UNL     1     -10.982  19.722  65.403  1.00  0.00    -0.414 OA 
HETATM    2  C   UNL     1      -9.787  19.697  66.032  1.00  0.00    -0.381 C  
HETATM    3  O   UNL     1      -8.843  19.037  65.623  1.00  0.00    -0.294 OA 
HETATM    4  C   UNL     1      -9.726  20.550  67.269  1.00  0.00    -0.600 C  
ENDROOT
BRANCH   4   5
HETATM    5  C   UNL     1     -10.194  19.780  68.492  1.00  0.00    -0.433 C  
BRANCH   5   6
HETATM    6  N   UNL     1     -10.600  18.424  68.181  1.00  0.00    -0.324 N  
HETATM    7  C   UNL     1      -9.756  17.350  68.390  1.00  0.00    -0.304 C  
HETATM    8  H   UNL     1     -11.531  18.259  67.799  1.00  0.00     0.000 HD 
HETATM    9  O   UNL     1      -8.631  17.463  68.864  1.00  0.00    -0.246 OA 
BRANCH   7  10
HETATM   10  C   UNL     1     -10.260  16.016  67.948  1.00  0.00    -0.258 A  
HETATM   11  C   UNL     1     -11.606  15.703  68.169  1.00  0.00    -0.290 A  
HETATM   12  C   UNL     1     -12.101  14.435  67.835  1.00  0.00    -0.280 A  
HETATM   13  C   UNL     1     -11.274  13.459  67.264  1.00  0.00    -0.295 A  
HETATM   14  C   UNL     1      -9.432  15.069  67.334  1.00  0.00    -0.202 A  
HETATM   15  C   UNL     1      -9.935  13.800  67.009  1.00  0.00    -0.251 A  
BRANCH  13  16
HETATM   16  N   UNL     1     -11.817  12.172  67.048  1.00  0.00    -0.594 NA 
HETATM   17  H   UNL     1     -11.867  11.453  67.770  1.00  0.00     0.000 HD 
BRANCH  16  18
HETATM   18  N   UNL     1     -12.230  12.007  65.881  1.00  0.00    -0.430 NA 
HETATM   19  H   UNL     1     -13.181  12.226  65.583  1.00  0.00     0.000 HD 
BRANCH  18  20
HETATM   20  C   UNL     1     -11.241  11.486  65.018  1.00  0.00    -0.157 A  
HETATM   21  C   UNL     1     -11.115  11.852  63.669  1.00  0.00    -0.517 A  
HETATM   22  C   UNL     1     -10.171  11.241  62.836  1.00  0.00    -0.201 A  
HETATM   23  C   UNL     1      -9.345  10.241  63.346  1.00  0.00    -0.303 A  
HETATM   24  O   UNL     1      -8.440   9.630  62.516  1.00  0.00    -0.147 OA 
HETATM   25  C   UNL     1      -9.442   9.854  64.690  1.00  0.00    -0.343 A  
HETATM   26  C   UNL     1      -8.605   8.789  65.314  1.00  0.00    -0.187 C  
HETATM   27  C   UNL     1     -10.395  10.485  65.511  1.00  0.00    -0.287 A  
HETATM   28  H   UNL     1      -7.878   8.948  62.864  1.00  0.00     0.000 HD 
HETATM   29  O   UNL     1      -8.710   8.480  66.492  1.00  0.00    -0.122 OA 
HETATM   30  O   UNL     1      -7.726   8.181  64.489  1.00  0.00    -0.105 OA 
ENDBRANCH  18  20
ENDBRANCH  16  18
ENDBRANCH  13  16
ENDBRANCH   7  10
ENDBRANCH   5   6
ENDBRANCH   4   5
TORSDOF 6
ENDMDL
MODEL       88
REMARK 921   NORMALIZED FREE ENERGY PREDICTED BY IDOCK:   -5.86 KCAL/MOL
REMARK 922        TOTAL FREE ENERGY PREDICTED BY IDOCK:   -8.90 KCAL/MOL
REMARK 923 INTER-LIGAND FREE ENERGY PREDICTED BY IDOCK:   -8.21 KCAL/MOL
REMARK 924 INTRA-LIGAND FREE ENERGY PREDICTED BY IDOCK:   -0.69 KCAL/MOL
REMARK 927      BINDING AFFINITY PREDICTED BY RF-SCORE:    0.00 PKD
ROOT
HETATM    1  O   UNL     1     -12.164  14.845  74.326  1.00  0.00    -0.568 OA 
HETATM    2  C   UNL     1     -12.500  15.993  73.699  1.00  0.00    -0.589 C  
HETATM    3  O   UNL     1     -13.215  16.840  74.216  1.00  0.00    -0.231 OA 
HETATM    4  C   UNL     1     -11.918  16.133  72.320  1.00  0.00    -0.637 C  
ENDROOT
BRANCH   4   5
HETATM    5  C   UNL     1     -12.819  15.498  71.275  1.00  0.00    -0.475 C  
BRANCH   5   6
HETATM    6  N   UNL     1     -12.454  14.128  70.976  1.00  0.00    -0.345 N  
HETATM    7  C   UNL     1     -13.069  13.062  71.604  1.00  0.00    -0.347 C  
HETATM    8  H   UNL     1     -11.726  13.946  70.285  1.00  0.00     0.000 HD 
HETATM    9  O   UNL     1     -13.965  13.196  72.429  1.00  0.00    -0.586 OA 
BRANCH   7  10
HETATM   10  C   UNL     1     -12.542  11.705  71.273  1.00  0.00    -0.425 A  
HETATM   11  C   UNL     1     -11.766  11.551  70.119  1.00  0.00    -0.395 A  
HETATM   12  C   UNL     1     -11.314  10.282  69.733  1.00  0.00    -0.334 A  
HETATM   13  C   UNL     1     -11.611   9.143  70.492  1.00  0.00    -0.197 A  
HETATM   14  C   UNL     1     -12.808  10.584  72.068  1.00  0.00    -0.419 A  
HETATM   15  C   UNL     1     -12.356   9.315  71.671  1.00  0.00    -0.450 A  
BRANCH  13  16
HETATM   16  N   UNL     1     -11.209   7.885  69.988  1.00  0.00    -0.429 NA 
HETATM   17  H   UNL     1     -11.862   7.172  69.665  1.00  0.00     0.000 HD 
BRANCH  16  18
HETATM   18  N   UNL     1      -9.969   7.739  69.980  1.00  0.00    -0.185 NA 
HETATM   19  H   UNL     1      -9.314   8.485  69.743  1.00  0.00     0.000 HD 
BRANCH  18  20
HETATM   20  C   UNL     1      -9.568   6.431  70.334  1.00  0.00    -0.165 A  
HETATM   21  C   UNL     1      -8.619   5.688  69.616  1.00  0.00    -0.110 A  
HETATM   22  C   UNL     1      -8.322   4.365  69.960  1.00  0.00    -0.075 A  
HETATM   23  C   UNL     1      -8.985   3.763  71.029  1.00  0.00    -0.098 A  
HETATM   24  O   UNL     1      -8.706   2.458  71.342  1.00  0.00    -0.062 OA 
HETATM   25  C   UNL     1      -9.936   4.479  71.769  1.00  0.00    -0.264 A  
HETATM   26  C   UNL     1     -10.697   3.911  72.919  1.00  0.00    -0.120 C  
HETATM   27  C   UNL     1     -10.217   5.810  71.409  1.00  0.00    -0.269 A  
HETATM   28  H   UNL     1      -9.159   2.048  72.070  1.00  0.00     0.000 HD 
HETATM   29  O   UNL     1     -11.515   4.565  73.550  1.00  0.00    -0.303 OA 
HETATM   30  O   UNL     1     -10.429   2.621  73.216  1.00  0.00    -0.133 OA 
ENDBRANCH  18  20
ENDBRANCH  16  18
ENDBRANCH  13  16
ENDBRANCH   7  10
ENDBRANCH   5   6
ENDBRANCH   4   5
TORSDOF 6
ENDMDL
MODEL       89
REMARK 921   NORMALIZED FREE ENERGY PREDICTED BY IDOCK:   -5.85 KCAL/MOL
REMARK 922        TOTAL FREE ENERGY PREDICTED BY IDOCK:   -8.89 KCAL/MOL
REMARK 923 INTER-LIGAND FREE ENERGY PREDICTED BY IDOCK:   -7.73 KCAL/MOL
REMARK 924 INTRA-LIGAND FREE ENERGY PREDICTED BY IDOCK:   -1.16 KCAL/MOL
REMARK 927      BINDING AFFINITY PREDICTED BY RF-SCORE:    0.00 PKD
ROOT
HETATM    1  O   UNL     1      -7.840   4.311  68.106  1.00  0.00    -0.078 OA 
HETATM    2  C   UNL     1      -9.078   3.786  68.222  1.00  0.00    -0.143 C  
HETATM    3  O   UNL     1      -9.972   4.026  67.422  1.00  0.00    -0.131 OA 
HETATM    4  C   UNL     1      -9.255   2.887  69.414  1.00  0.00    -0.212 C  
ENDROOT
BRANCH   4   5
HETATM    5  C   UNL     1      -9.661   3.678  70.646  1.00  0.00    -0.183 C  
BRANCH   5   6
HETATM    6  N   UNL     1      -9.790   5.097  70.384  1.00  0.00    -0.200 N  
HETATM    7  C   UNL     1     -10.379   5.950  71.297  1.00  0.00    -0.221 C  
HETATM    8  H   UNL     1      -9.437   5.475  69.505  1.00  0.00     0.000 HD 
HETATM    9  O   UNL     1     -10.809   5.578  72.383  1.00  0.00    -0.227 OA 
BRANCH   7  10
HETATM   10  C   UNL     1     -10.530   7.373  70.871  1.00  0.00    -0.225 A  
HETATM   11  C   UNL     1     -11.136   8.275  71.754  1.00  0.00    -0.342 A  
HETATM   12  C   UNL     1     -11.363   9.602  71.365  1.00  0.00    -0.444 A  
HETATM   13  C   UNL     1     -10.981  10.064  70.099  1.00  0.00    -0.310 A  
HETATM   14  C   UNL     1     -10.100   7.831  69.620  1.00  0.00    -0.196 A  
HETATM   15  C   UNL     1     -10.337   9.160  69.237  1.00  0.00    -0.223 A  
BRANCH  13  16
HETATM   16  N   UNL     1     -11.333  11.385  69.739  1.00  0.00    -0.403 NA 
HETATM   17  H   UNL     1     -10.966  12.213  70.208  1.00  0.00     0.000 HD 
BRANCH  16  18
HETATM   18  N   UNL     1     -12.140  11.431  68.788  1.00  0.00    -0.514 NA 
HETATM   19  H   UNL     1     -13.020  10.916  68.768  1.00  0.00     0.000 HD 
BRANCH  18  20
HETATM   20  C   UNL     1     -11.704  12.272  67.740  1.00  0.00    -0.337 A  
HETATM   21  C   UNL     1     -11.791  13.672  67.780  1.00  0.00    -0.403 A  
HETATM   22  C   UNL     1     -11.423  14.454  66.679  1.00  0.00    -0.372 A  
HETATM   23  C   UNL     1     -10.971  13.836  65.513  1.00  0.00    -0.299 A  
HETATM   24  O   UNL     1     -10.638  14.609  64.432  1.00  0.00    -0.574 OA 
HETATM   25  C   UNL     1     -10.869  12.440  65.441  1.00  0.00    -0.320 A  
HETATM   26  C   UNL     1     -10.405  11.699  64.233  1.00  0.00    -0.322 C  
HETATM   27  C   UNL     1     -11.240  11.673  66.562  1.00  0.00    -0.356 A  
HETATM   28  H   UNL     1     -10.330  14.188  63.637  1.00  0.00     0.000 HD 
HETATM   29  O   UNL     1     -10.320  10.480  64.206  1.00  0.00    -0.332 OA 
HETATM   30  O   UNL     1     -10.090  12.463  63.166  1.00  0.00    -0.359 OA 
ENDBRANCH  18  20
ENDBRANCH  16  18
ENDBRANCH  13  16
ENDBRANCH   7  10
ENDBRANCH   5   6
ENDBRANCH   4   5
TORSDOF 6
ENDMDL
MODEL       90
REMARK 921   NORMALIZED FREE ENERGY PREDICTED BY IDOCK:   -5.84 KCAL/MOL
REMARK 922        TOTAL FREE ENERGY PREDICTED BY IDOCK:   -8.88 KCAL/MOL
REMARK 923 INTER-LIGAND FREE ENERGY PREDICTED BY IDOCK:   -7.99 KCAL/MOL
REMARK 924 INTRA-LIGAND FREE ENERGY PREDICTED BY IDOCK:   -0.89 KCAL/MOL
REMARK 927      BINDING AFFINITY PREDICTED BY RF-SCORE:    0.00 PKD
ROOT
HETATM    1  O   UNL     1      -8.158   3.159  62.989  1.00  0.00    -0.071 OA 
HETATM    2  C   UNL     1      -8.976   4.228  63.092  1.00  0.00    -0.123 C  
HETATM    3  O   UNL     1      -8.554   5.369  63.217  1.00  0.00    -0.104 OA 
HETATM    4  C   UNL     1     -10.440   3.889  63.038  1.00  0.00    -0.184 C  
ENDROOT
BRANCH   4   5
HETATM    5  C   UNL     1     -10.980   3.558  64.418  1.00  0.00     0.171 C  
BRANCH   5   6
HETATM    6  N   UNL     1     -11.027   4.710  65.294  1.00  0.00    -0.858 N  
HETATM    7  C   UNL     1     -10.337   4.738  66.491  1.00  0.00    -0.244 C  
HETATM    8  H   UNL     1     -11.583   5.521  65.021  1.00  0.00     0.000 HD 
HETATM    9  O   UNL     1      -9.632   3.814  66.880  1.00  0.00    -0.205 OA 
BRANCH   7  10
HETATM   10  C   UNL     1     -10.538   5.947  67.343  1.00  0.00    -0.356 A  
HETATM   11  C   UNL     1     -10.361   7.210  66.766  1.00  0.00    -0.297 A  
HETATM   12  C   UNL     1     -10.468   8.368  67.548  1.00  0.00    -0.328 A  
HETATM   13  C   UNL     1     -10.766   8.296  68.915  1.00  0.00    -0.062 A  
HETATM   14  C   UNL     1     -10.882   5.861  68.697  1.00  0.00    -0.333 A  
HETATM   15  C   UNL     1     -10.982   7.025  69.474  1.00  0.00    -0.251 A  
BRANCH  13  16
HETATM   16  N   UNL     1     -10.758   9.497  69.660  1.00  0.00    -0.231 NA 
HETATM   17  H   UNL     1      -9.905   9.957  69.978  1.00  0.00     0.000 HD 
BRANCH  16  18
HETATM   18  N   UNL     1     -11.905   9.935  69.889  1.00  0.00    -0.456 NA 
HETATM   19  H   UNL     1     -12.677   9.354  70.217  1.00  0.00     0.000 HD 
BRANCH  18  20
HETATM   20  C   UNL     1     -12.021  11.322  69.643  1.00  0.00    -0.353 A  
HETATM   21  C   UNL     1     -11.586  11.940  68.461  1.00  0.00    -0.375 A  
HETATM   22  C   UNL     1     -11.647  13.330  68.304  1.00  0.00    -0.369 A  
HETATM   23  C   UNL     1     -12.137  14.121  69.343  1.00  0.00    -0.328 A  
HETATM   24  O   UNL     1     -12.169  15.483  69.189  1.00  0.00    -0.565 OA 
HETATM   25  C   UNL     1     -12.583  13.535  70.535  1.00  0.00    -0.311 A  
HETATM   26  C   UNL     1     -13.112  14.305  71.697  1.00  0.00    -0.346 C  
HETATM   27  C   UNL     1     -12.517  12.135  70.670  1.00  0.00    -0.330 A  
HETATM   28  H   UNL     1     -12.502  16.022  69.897  1.00  0.00     0.000 HD 
HETATM   29  O   UNL     1     -13.500  13.762  72.721  1.00  0.00    -0.616 OA 
HETATM   30  O   UNL     1     -13.129  15.647  71.547  1.00  0.00    -0.467 OA 
ENDBRANCH  18  20
ENDBRANCH  16  18
ENDBRANCH  13  16
ENDBRANCH   7  10
ENDBRANCH   5   6
ENDBRANCH   4   5
TORSDOF 6
ENDMDL
MODEL       91
REMARK 921   NORMALIZED FREE ENERGY PREDICTED BY IDOCK:   -5.84 KCAL/MOL
REMARK 922        TOTAL FREE ENERGY PREDICTED BY IDOCK:   -8.88 KCAL/MOL
REMARK 923 INTER-LIGAND FREE ENERGY PREDICTED BY IDOCK:   -8.14 KCAL/MOL
REMARK 924 INTRA-LIGAND FREE ENERGY PREDICTED BY IDOCK:   -0.74 KCAL/MOL
REMARK 927      BINDING AFFINITY PREDICTED BY RF-SCORE:    0.00 PKD
ROOT
HETATM    1  O   UNL     1      -9.992  18.606  68.984  1.00  0.00    -0.385 OA 
HETATM    2  C   UNL     1      -9.902  19.180  67.765  1.00  0.00    -0.335 C  
HETATM    3  O   UNL     1     -10.320  20.307  67.535  1.00  0.00    -0.364 OA 
HETATM    4  C   UNL     1      -9.245  18.315  66.725  1.00  0.00    -0.288 C  
ENDROOT
BRANCH   4   5
HETATM    5  C   UNL     1     -10.257  17.415  66.038  1.00  0.00    -0.300 C  
BRANCH   5   6
HETATM    6  N   UNL     1     -10.447  16.154  66.728  1.00  0.00    -0.298 N  
HETATM    7  C   UNL     1     -10.819  15.008  66.052  1.00  0.00    -0.334 C  
HETATM    8  H   UNL     1     -10.301  16.112  67.736  1.00  0.00     0.000 HD 
HETATM    9  O   UNL     1     -10.992  14.972  64.839  1.00  0.00    -0.388 OA 
BRANCH   7  10
HETATM   10  C   UNL     1     -11.066  13.797  66.888  1.00  0.00    -0.311 A  
HETATM   11  C   UNL     1     -11.059  12.542  66.267  1.00  0.00    -0.336 A  
HETATM   12  C   UNL     1     -11.359  11.387  67.002  1.00  0.00    -0.309 A  
HETATM   13  C   UNL     1     -11.657  11.452  68.369  1.00  0.00    -0.315 A  
HETATM   14  C   UNL     1     -11.316  13.874  68.263  1.00  0.00    -0.325 A  
HETATM   15  C   UNL     1     -11.620  12.712  68.990  1.00  0.00    -0.367 A  
BRANCH  13  16
HETATM   16  N   UNL     1     -12.048  10.261  69.021  1.00  0.00    -0.614 NA 
HETATM   17  H   UNL     1     -12.397   9.438  68.530  1.00  0.00     0.000 HD 
BRANCH  16  18
HETATM   18  N   UNL     1     -11.921  10.321  70.262  1.00  0.00    -0.345 NA 
HETATM   19  H   UNL     1     -12.038  11.180  70.800  1.00  0.00     0.000 HD 
BRANCH  18  20
HETATM   20  C   UNL     1     -11.598   9.074  70.841  1.00  0.00    -0.290 A  
HETATM   21  C   UNL     1     -11.563   8.847  72.225  1.00  0.00    -0.332 A  
HETATM   22  C   UNL     1     -11.153   7.615  72.748  1.00  0.00    -0.437 A  
HETATM   23  C   UNL     1     -10.760   6.594  71.883  1.00  0.00    -0.223 A  
HETATM   24  O   UNL     1     -10.335   5.400  72.406  1.00  0.00    -0.195 OA 
HETATM   25  C   UNL     1     -10.786   6.788  70.496  1.00  0.00    -0.277 A  
HETATM   26  C   UNL     1     -10.374   5.755  69.502  1.00  0.00    -0.263 C  
HETATM   27  C   UNL     1     -11.206   8.033  69.991  1.00  0.00    -0.091 A  
HETATM   28  H   UNL     1     -10.067   4.704  71.817  1.00  0.00     0.000 HD 
HETATM   29  O   UNL     1     -10.416   5.953  68.296  1.00  0.00    -0.193 OA 
HETATM   30  O   UNL     1      -9.944   4.585  70.021  1.00  0.00    -0.220 OA 
ENDBRANCH  18  20
ENDBRANCH  16  18
ENDBRANCH  13  16
ENDBRANCH   7  10
ENDBRANCH   5   6
ENDBRANCH   4   5
TORSDOF 6
ENDMDL
MODEL       92
REMARK 921   NORMALIZED FREE ENERGY PREDICTED BY IDOCK:   -5.84 KCAL/MOL
REMARK 922        TOTAL FREE ENERGY PREDICTED BY IDOCK:   -8.87 KCAL/MOL
REMARK 923 INTER-LIGAND FREE ENERGY PREDICTED BY IDOCK:   -8.12 KCAL/MOL
REMARK 924 INTRA-LIGAND FREE ENERGY PREDICTED BY IDOCK:   -0.75 KCAL/MOL
REMARK 927      BINDING AFFINITY PREDICTED BY RF-SCORE:    0.00 PKD
ROOT
HETATM    1  O   UNL     1      -6.553  18.911  65.773  1.00  0.00    -0.216 OA 
HETATM    2  C   UNL     1      -6.972  20.148  66.118  1.00  0.00    -0.257 C  
HETATM    3  O   UNL     1      -6.241  20.961  66.666  1.00  0.00    -0.223 OA 
HETATM    4  C   UNL     1      -8.407  20.430  65.768  1.00  0.00     0.180 C  
ENDROOT
BRANCH   4   5
HETATM    5  C   UNL     1      -9.342  19.988  66.879  1.00  0.00    -0.393 C  
BRANCH   5   6
HETATM    6  N   UNL     1      -9.430  18.547  67.000  1.00  0.00    -0.281 N  
HETATM    7  C   UNL     1     -10.238  17.798  66.166  1.00  0.00    -0.339 C  
HETATM    8  H   UNL     1      -8.882  18.074  67.718  1.00  0.00     0.000 HD 
HETATM    9  O   UNL     1     -10.910  18.289  65.266  1.00  0.00    -0.629 OA 
BRANCH   7  10
HETATM   10  C   UNL     1     -10.307  16.334  66.449  1.00  0.00    -0.319 A  
HETATM   11  C   UNL     1     -11.159  15.542  65.672  1.00  0.00    -0.235 A  
HETATM   12  C   UNL     1     -11.309  14.177  65.953  1.00  0.00    -0.323 A  
HETATM   13  C   UNL     1     -10.605  13.569  67.001  1.00  0.00    -0.269 A  
HETATM   14  C   UNL     1      -9.561  15.733  67.470  1.00  0.00    -0.224 A  
HETATM   15  C   UNL     1      -9.721  14.366  67.747  1.00  0.00    -0.221 A  
BRANCH  13  16
HETATM   16  N   UNL     1     -10.882  12.214  67.288  1.00  0.00    -0.235 NA 
HETATM   17  H   UNL     1     -11.556  11.653  66.767  1.00  0.00     0.000 HD 
BRANCH  16  18
HETATM   18  N   UNL     1     -10.215  11.774  68.248  1.00  0.00    -0.199 NA 
HETATM   19  H   UNL     1      -9.202  11.652  68.223  1.00  0.00     0.000 HD 
BRANCH  18  20
HETATM   20  C   UNL     1     -11.011  11.463  69.373  1.00  0.00    -0.205 A  
HETATM   21  C   UNL     1     -11.190  10.160  69.862  1.00  0.00    -0.343 A  
HETATM   22  C   UNL     1     -12.058   9.898  70.928  1.00  0.00    -0.431 A  
HETATM   23  C   UNL     1     -12.770  10.945  71.512  1.00  0.00    -0.428 A  
HETATM   24  O   UNL     1     -13.637  10.675  72.539  1.00  0.00    -0.518 OA 
HETATM   25  C   UNL     1     -12.611  12.259  71.051  1.00  0.00    -0.352 A  
HETATM   26  C   UNL     1     -13.339  13.434  71.611  1.00  0.00    -0.338 C  
HETATM   27  C   UNL     1     -11.729  12.501  69.980  1.00  0.00    -0.297 A  
HETATM   28  H   UNL     1     -14.123  11.388  72.937  1.00  0.00     0.000 HD 
HETATM   29  O   UNL     1     -13.172  14.569  71.190  1.00  0.00    -0.346 OA 
HETATM   30  O   UNL     1     -14.202  13.161  72.613  1.00  0.00    -0.677 OA 
ENDBRANCH  18  20
ENDBRANCH  16  18
ENDBRANCH  13  16
ENDBRANCH   7  10
ENDBRANCH   5   6
ENDBRANCH   4   5
TORSDOF 6
ENDMDL
MODEL       93
REMARK 921   NORMALIZED FREE ENERGY PREDICTED BY IDOCK:   -5.82 KCAL/MOL
REMARK 922        TOTAL FREE ENERGY PREDICTED BY IDOCK:   -8.85 KCAL/MOL
REMARK 923 INTER-LIGAND FREE ENERGY PREDICTED BY IDOCK:   -8.26 KCAL/MOL
REMARK 924 INTRA-LIGAND FREE ENERGY PREDICTED BY IDOCK:   -0.59 KCAL/MOL
REMARK 927      BINDING AFFINITY PREDICTED BY RF-SCORE:    0.00 PKD
ROOT
HETATM    1  O   UNL     1     -11.821  16.496  72.553  1.00  0.00    -0.534 OA 
HETATM    2  C   UNL     1     -12.692  15.914  73.405  1.00  0.00    -0.562 C  
HETATM    3  O   UNL     1     -12.371  15.551  74.528  1.00  0.00    -0.658 OA 
HETATM    4  C   UNL     1     -14.081  15.756  72.851  1.00  0.00    -0.312 C  
ENDROOT
BRANCH   4   5
HETATM    5  C   UNL     1     -14.224  14.453  72.084  1.00  0.00    -0.538 C  
BRANCH   5   6
HETATM    6  N   UNL     1     -13.504  14.460  70.827  1.00  0.00    -0.420 N  
HETATM    7  C   UNL     1     -12.656  13.428  70.473  1.00  0.00    -0.211 C  
HETATM    8  H   UNL     1     -13.626  15.245  70.188  1.00  0.00     0.000 HD 
HETATM    9  O   UNL     1     -12.472  12.440  71.175  1.00  0.00    -0.343 OA 
BRANCH   7  10
HETATM   10  C   UNL     1     -11.908  13.596  69.192  1.00  0.00    -0.394 A  
HETATM   11  C   UNL     1     -10.722  12.874  69.010  1.00  0.00    -0.132 A  
HETATM   12  C   UNL     1      -9.952  13.058  67.854  1.00  0.00    -0.230 A  
HETATM   13  C   UNL     1     -10.349  13.950  66.850  1.00  0.00    -0.266 A  
HETATM   14  C   UNL     1     -12.342  14.456  68.177  1.00  0.00    -0.001 A  
HETATM   15  C   UNL     1     -11.562  14.638  67.025  1.00  0.00    -0.385 A  
BRANCH  13  16
HETATM   16  N   UNL     1      -9.472  14.159  65.762  1.00  0.00    -0.526 NA 
HETATM   17  H   UNL     1      -9.661  13.832  64.814  1.00  0.00     0.000 HD 
BRANCH  16  18
HETATM   18  N   UNL     1      -8.441  14.786  66.082  1.00  0.00    -0.218 NA 
HETATM   19  H   UNL     1      -7.506  14.376  66.078  1.00  0.00     0.000 HD 
BRANCH  18  20
HETATM   20  C   UNL     1      -8.705  16.124  66.452  1.00  0.00    -0.325 A  
HETATM   21  C   UNL     1      -9.656  16.933  65.811  1.00  0.00    -0.077 A  
HETATM   22  C   UNL     1      -9.818  18.278  66.162  1.00  0.00    -0.264 A  
HETATM   23  C   UNL     1      -9.015  18.834  67.157  1.00  0.00    -0.281 A  
HETATM   24  O   UNL     1      -9.164  20.159  67.475  1.00  0.00    -0.344 OA 
HETATM   25  C   UNL     1      -8.058  18.053  67.819  1.00  0.00    -0.237 A  
HETATM   26  C   UNL     1      -7.154  18.568  68.886  1.00  0.00    -0.282 C  
HETATM   27  C   UNL     1      -7.915  16.700  67.454  1.00  0.00    -0.186 A  
HETATM   28  H   UNL     1      -8.616  20.538  68.153  1.00  0.00     0.000 HD 
HETATM   29  O   UNL     1      -6.334  17.857  69.450  1.00  0.00    -0.239 OA 
HETATM   30  O   UNL     1      -7.294  19.877  69.188  1.00  0.00    -0.295 OA 
ENDBRANCH  18  20
ENDBRANCH  16  18
ENDBRANCH  13  16
ENDBRANCH   7  10
ENDBRANCH   5   6
ENDBRANCH   4   5
TORSDOF 6
ENDMDL
MODEL       94
REMARK 921   NORMALIZED FREE ENERGY PREDICTED BY IDOCK:   -5.80 KCAL/MOL
REMARK 922        TOTAL FREE ENERGY PREDICTED BY IDOCK:   -8.82 KCAL/MOL
REMARK 923 INTER-LIGAND FREE ENERGY PREDICTED BY IDOCK:   -7.96 KCAL/MOL
REMARK 924 INTRA-LIGAND FREE ENERGY PREDICTED BY IDOCK:   -0.86 KCAL/MOL
REMARK 927      BINDING AFFINITY PREDICTED BY RF-SCORE:    0.00 PKD
ROOT
HETATM    1  O   UNL     1      -7.467   3.745  64.290  1.00  0.00    -0.068 OA 
HETATM    2  C   UNL     1      -8.499   4.564  63.997  1.00  0.00    -0.121 C  
HETATM    3  O   UNL     1      -8.345   5.646  63.447  1.00  0.00    -0.118 OA 
HETATM    4  C   UNL     1      -9.844   4.029  64.405  1.00  0.00    -0.183 C  
ENDROOT
BRANCH   4   5
HETATM    5  C   UNL     1     -10.174   4.405  65.839  1.00  0.00    -0.227 C  
BRANCH   5   6
HETATM    6  N   UNL     1     -10.334   5.833  66.023  1.00  0.00    -0.437 N  
HETATM    7  C   UNL     1      -9.400   6.584  66.711  1.00  0.00    -0.156 C  
HETATM    8  H   UNL     1     -11.155   6.296  65.635  1.00  0.00     0.000 HD 
HETATM    9  O   UNL     1      -8.377   6.106  67.190  1.00  0.00    -0.106 OA 
BRANCH   7  10
HETATM   10  C   UNL     1      -9.723   8.028  66.906  1.00  0.00    -0.291 A  
HETATM   11  C   UNL     1     -10.228   8.439  68.146  1.00  0.00    -0.253 A  
HETATM   12  C   UNL     1     -10.613   9.771  68.347  1.00  0.00    -0.264 A  
HETATM   13  C   UNL     1     -10.492  10.724  67.327  1.00  0.00    -0.237 A  
HETATM   14  C   UNL     1      -9.553   8.977  65.892  1.00  0.00    -0.317 A  
HETATM   15  C   UNL     1      -9.946  10.309  66.101  1.00  0.00    -0.300 A  
BRANCH  13  16
HETATM   16  N   UNL     1     -10.994  12.023  67.569  1.00  0.00    -0.240 NA 
HETATM   17  H   UNL     1     -10.672  12.854  67.072  1.00  0.00     0.000 HD 
BRANCH  16  18
HETATM   18  N   UNL     1     -11.874  12.047  68.454  1.00  0.00    -0.384 NA 
HETATM   19  H   UNL     1     -12.541  11.290  68.607  1.00  0.00     0.000 HD 
BRANCH  18  20
HETATM   20  C   UNL     1     -11.849  13.233  69.221  1.00  0.00    -0.331 A  
HETATM   21  C   UNL     1     -11.029  14.333  68.923  1.00  0.00    -0.275 A  
HETATM   22  C   UNL     1     -10.981  15.450  69.765  1.00  0.00    -0.294 A  
HETATM   23  C   UNL     1     -11.750  15.473  70.927  1.00  0.00    -0.375 A  
HETATM   24  O   UNL     1     -11.677  16.561  71.758  1.00  0.00    -0.635 OA 
HETATM   25  C   UNL     1     -12.583  14.393  71.251  1.00  0.00    -0.421 A  
HETATM   26  C   UNL     1     -13.430  14.331  72.477  1.00  0.00    -0.515 C  
HETATM   27  C   UNL     1     -12.619  13.281  70.389  1.00  0.00    -0.211 A  
HETATM   28  H   UNL     1     -12.201  16.576  72.551  1.00  0.00     0.000 HD 
HETATM   29  O   UNL     1     -14.151  13.376  72.727  1.00  0.00    -0.715 OA 
HETATM   30  O   UNL     1     -13.344  15.399  73.299  1.00  0.00    -0.486 OA 
ENDBRANCH  18  20
ENDBRANCH  16  18
ENDBRANCH  13  16
ENDBRANCH   7  10
ENDBRANCH   5   6
ENDBRANCH   4   5
TORSDOF 6
ENDMDL
MODEL       95
REMARK 921   NORMALIZED FREE ENERGY PREDICTED BY IDOCK:   -5.80 KCAL/MOL
REMARK 922        TOTAL FREE ENERGY PREDICTED BY IDOCK:   -8.82 KCAL/MOL
REMARK 923 INTER-LIGAND FREE ENERGY PREDICTED BY IDOCK:   -8.05 KCAL/MOL
REMARK 924 INTRA-LIGAND FREE ENERGY PREDICTED BY IDOCK:   -0.77 KCAL/MOL
REMARK 927      BINDING AFFINITY PREDICTED BY RF-SCORE:    0.00 PKD
ROOT
HETATM    1  O   UNL     1     -10.715   6.601  73.619  1.00  0.00    -0.301 OA 
HETATM    2  C   UNL     1     -11.306   6.864  72.434  1.00  0.00    -0.271 C  
HETATM    3  O   UNL     1     -11.572   5.989  71.622  1.00  0.00    -0.277 OA 
HETATM    4  C   UNL     1     -11.606   8.320  72.208  1.00  0.00    -0.449 C  
ENDROOT
BRANCH   4   5
HETATM    5  C   UNL     1     -10.422   9.036  71.583  1.00  0.00    -0.355 C  
BRANCH   5   6
HETATM    6  N   UNL     1     -10.818  10.133  70.723  1.00  0.00    -0.383 N  
HETATM    7  C   UNL     1     -10.900   9.985  69.352  1.00  0.00    -0.239 C  
HETATM    8  H   UNL     1     -11.043  11.036  71.141  1.00  0.00     0.000 HD 
HETATM    9  O   UNL     1     -10.667   8.928  68.776  1.00  0.00    -0.187 OA 
BRANCH   7  10
HETATM   10  C   UNL     1     -11.235  11.213  68.572  1.00  0.00    -0.318 A  
HETATM   11  C   UNL     1     -10.955  11.233  67.201  1.00  0.00    -0.348 A  
HETATM   12  C   UNL     1     -11.186  12.391  66.447  1.00  0.00    -0.365 A  
HETATM   13  C   UNL     1     -11.713  13.548  67.036  1.00  0.00    -0.383 A  
HETATM   14  C   UNL     1     -11.806  12.346  69.166  1.00  0.00    -0.352 A  
HETATM   15  C   UNL     1     -12.029  13.503  68.404  1.00  0.00    -0.378 A  
BRANCH  13  16
HETATM   16  N   UNL     1     -11.824  14.709  66.237  1.00  0.00    -0.336 NA 
HETATM   17  H   UNL     1     -12.656  15.299  66.213  1.00  0.00     0.000 HD 
BRANCH  16  18
HETATM   18  N   UNL     1     -10.797  14.936  65.564  1.00  0.00    -0.335 NA 
HETATM   19  H   UNL     1     -10.454  14.316  64.830  1.00  0.00     0.000 HD 
BRANCH  18  20
HETATM   20  C   UNL     1     -10.158  16.142  65.929  1.00  0.00    -0.354 A  
HETATM   21  C   UNL     1     -10.772  17.401  65.846  1.00  0.00    -0.123 A  
HETATM   22  C   UNL     1     -10.065  18.574  66.139  1.00  0.00    -0.391 A  
HETATM   23  C   UNL     1      -8.723  18.497  66.509  1.00  0.00    -0.286 A  
HETATM   24  O   UNL     1      -8.033  19.652  66.769  1.00  0.00    -0.267 OA 
HETATM   25  C   UNL     1      -8.082  17.255  66.605  1.00  0.00    -0.300 A  
HETATM   26  C   UNL     1      -6.650  17.083  66.984  1.00  0.00    -0.202 C  
HETATM   27  C   UNL     1      -8.812  16.088  66.310  1.00  0.00    -0.379 A  
HETATM   28  H   UNL     1      -7.118  19.600  67.021  1.00  0.00     0.000 HD 
HETATM   29  O   UNL     1      -6.122  15.983  67.066  1.00  0.00    -0.324 OA 
HETATM   30  O   UNL     1      -5.970  18.224  67.227  1.00  0.00    -0.147 OA 
ENDBRANCH  18  20
ENDBRANCH  16  18
ENDBRANCH  13  16
ENDBRANCH   7  10
ENDBRANCH   5   6
ENDBRANCH   4   5
TORSDOF 6
ENDMDL
MODEL       96
REMARK 921   NORMALIZED FREE ENERGY PREDICTED BY IDOCK:   -5.80 KCAL/MOL
REMARK 922        TOTAL FREE ENERGY PREDICTED BY IDOCK:   -8.82 KCAL/MOL
REMARK 923 INTER-LIGAND FREE ENERGY PREDICTED BY IDOCK:   -8.02 KCAL/MOL
REMARK 924 INTRA-LIGAND FREE ENERGY PREDICTED BY IDOCK:   -0.80 KCAL/MOL
REMARK 927      BINDING AFFINITY PREDICTED BY RF-SCORE:    0.00 PKD
ROOT
HETATM    1  O   UNL     1     -13.270  16.548  73.975  1.00  0.00    -0.591 OA 
HETATM    2  C   UNL     1     -12.803  15.435  73.370  1.00  0.00    -0.538 C  
HETATM    3  O   UNL     1     -11.631  15.092  73.438  1.00  0.00    -0.259 OA 
HETATM    4  C   UNL     1     -13.847  14.663  72.613  1.00  0.00    -0.490 C  
ENDROOT
BRANCH   4   5
HETATM    5  C   UNL     1     -13.985  15.174  71.189  1.00  0.00    -0.404 C  
BRANCH   5   6
HETATM    6  N   UNL     1     -13.157  14.446  70.249  1.00  0.00    -0.461 N  
HETATM    7  C   UNL     1     -11.996  14.990  69.734  1.00  0.00    -0.328 C  
HETATM    8  H   UNL     1     -13.438  13.508  69.961  1.00  0.00     0.000 HD 
HETATM    9  O   UNL     1     -11.580  16.100  70.046  1.00  0.00    -0.319 OA 
BRANCH   7  10
HETATM   10  C   UNL     1     -11.280  14.174  68.709  1.00  0.00    -0.294 A  
HETATM   11  C   UNL     1      -9.893  14.318  68.589  1.00  0.00    -0.228 A  
HETATM   12  C   UNL     1      -9.193  13.626  67.591  1.00  0.00    -0.213 A  
HETATM   13  C   UNL     1      -9.854  12.767  66.702  1.00  0.00    -0.250 A  
HETATM   14  C   UNL     1     -11.948  13.284  67.859  1.00  0.00    -0.349 A  
HETATM   15  C   UNL     1     -11.240  12.599  66.860  1.00  0.00    -0.348 A  
BRANCH  13  16
HETATM   16  N   UNL     1      -9.100  12.183  65.660  1.00  0.00    -0.429 NA 
HETATM   17  H   UNL     1      -9.225  12.415  64.674  1.00  0.00     0.000 HD 
BRANCH  16  18
HETATM   18  N   UNL     1      -8.263  11.352  66.071  1.00  0.00    -0.363 NA 
HETATM   19  H   UNL     1      -7.254  11.480  65.992  1.00  0.00     0.000 HD 
BRANCH  18  20
HETATM   20  C   UNL     1      -8.863  10.215  66.658  1.00  0.00    -0.132 A  
HETATM   21  C   UNL     1      -9.711   9.339  65.963  1.00  0.00    -0.359 A  
HETATM   22  C   UNL     1     -10.346   8.275  66.615  1.00  0.00    -0.293 A  
HETATM   23  C   UNL     1     -10.146   8.084  67.981  1.00  0.00    -0.194 A  
HETATM   24  O   UNL     1     -10.793   7.055  68.615  1.00  0.00    -0.328 OA 
HETATM   25  C   UNL     1      -9.302   8.938  68.703  1.00  0.00    -0.140 A  
HETATM   26  C   UNL     1      -9.040   8.811  70.166  1.00  0.00    -0.167 C  
HETATM   27  C   UNL     1      -8.670   9.999  68.027  1.00  0.00    -0.125 A  
HETATM   28  H   UNL     1     -10.657   6.925  69.547  1.00  0.00     0.000 HD 
HETATM   29  O   UNL     1      -8.292   9.570  70.765  1.00  0.00    -0.243 OA 
HETATM   30  O   UNL     1      -9.689   7.805  70.789  1.00  0.00    -0.173 OA 
ENDBRANCH  18  20
ENDBRANCH  16  18
ENDBRANCH  13  16
ENDBRANCH   7  10
ENDBRANCH   5   6
ENDBRANCH   4   5
TORSDOF 6
ENDMDL
MODEL       97
REMARK 921   NORMALIZED FREE ENERGY PREDICTED BY IDOCK:   -5.79 KCAL/MOL
REMARK 922        TOTAL FREE ENERGY PREDICTED BY IDOCK:   -8.81 KCAL/MOL
REMARK 923 INTER-LIGAND FREE ENERGY PREDICTED BY IDOCK:   -7.79 KCAL/MOL
REMARK 924 INTRA-LIGAND FREE ENERGY PREDICTED BY IDOCK:   -1.02 KCAL/MOL
REMARK 927      BINDING AFFINITY PREDICTED BY RF-SCORE:    0.00 PKD
ROOT
HETATM    1  O   UNL     1      -8.320   5.048  67.235  1.00  0.00    -0.107 OA 
HETATM    2  C   UNL     1      -9.516   4.464  67.462  1.00  0.00    -0.166 C  
HETATM    3  O   UNL     1     -10.565   4.925  67.034  1.00  0.00    -0.168 OA 
HETATM    4  C   UNL     1      -9.440   3.207  68.283  1.00  0.00    -0.215 C  
ENDROOT
BRANCH   4   5
HETATM    5  C   UNL     1      -9.499   3.514  69.769  1.00  0.00    -0.171 C  
BRANCH   5   6
HETATM    6  N   UNL     1     -10.048   4.826  70.050  1.00  0.00    -0.250 N  
HETATM    7  C   UNL     1     -10.482   5.173  71.315  1.00  0.00    -0.175 C  
HETATM    8  H   UNL     1     -10.115   5.509  69.296  1.00  0.00     0.000 HD 
HETATM    9  O   UNL     1     -10.416   4.417  72.278  1.00  0.00    -0.183 OA 
BRANCH   7  10
HETATM   10  C   UNL     1     -11.107   6.522  71.453  1.00  0.00    -0.315 A  
HETATM   11  C   UNL     1     -12.456   6.600  71.817  1.00  0.00    -0.360 A  
HETATM   12  C   UNL     1     -13.100   7.843  71.886  1.00  0.00    -0.316 A  
HETATM   13  C   UNL     1     -12.413   9.033  71.611  1.00  0.00    -0.351 A  
HETATM   14  C   UNL     1     -10.395   7.704  71.221  1.00  0.00    -0.215 A  
HETATM   15  C   UNL     1     -11.049   8.945  71.288  1.00  0.00    -0.367 A  
BRANCH  13  16
HETATM   16  N   UNL     1     -13.151  10.238  71.602  1.00  0.00    -0.428 NA 
HETATM   17  H   UNL     1     -13.833  10.487  72.319  1.00  0.00     0.000 HD 
BRANCH  16  18
HETATM   18  N   UNL     1     -12.881  10.967  70.625  1.00  0.00    -0.293 NA 
HETATM   19  H   UNL     1     -12.835  10.628  69.663  1.00  0.00     0.000 HD 
BRANCH  18  20
HETATM   20  C   UNL     1     -12.644  12.311  70.991  1.00  0.00    -0.257 A  
HETATM   21  C   UNL     1     -13.101  12.881  72.189  1.00  0.00    -0.466 A  
HETATM   22  C   UNL     1     -12.911  14.240  72.464  1.00  0.00    -0.444 A  
HETATM   23  C   UNL     1     -12.267  15.050  71.530  1.00  0.00    -0.337 A  
HETATM   24  O   UNL     1     -12.108  16.386  71.797  1.00  0.00    -0.627 OA 
HETATM   25  C   UNL     1     -11.794  14.511  70.325  1.00  0.00    -0.373 A  
HETATM   26  C   UNL     1     -11.104  15.306  69.269  1.00  0.00    -0.274 C  
HETATM   27  C   UNL     1     -11.992  13.141  70.071  1.00  0.00    -0.391 A  
HETATM   28  H   UNL     1     -11.670  16.938  71.160  1.00  0.00     0.000 HD 
HETATM   29  O   UNL     1     -10.697  14.803  68.232  1.00  0.00    -0.235 OA 
HETATM   30  O   UNL     1     -10.962  16.623  69.531  1.00  0.00    -0.307 OA 
ENDBRANCH  18  20
ENDBRANCH  16  18
ENDBRANCH  13  16
ENDBRANCH   7  10
ENDBRANCH   5   6
ENDBRANCH   4   5
TORSDOF 6
ENDMDL
MODEL       98
REMARK 921   NORMALIZED FREE ENERGY PREDICTED BY IDOCK:   -5.78 KCAL/MOL
REMARK 922        TOTAL FREE ENERGY PREDICTED BY IDOCK:   -8.80 KCAL/MOL
REMARK 923 INTER-LIGAND FREE ENERGY PREDICTED BY IDOCK:   -7.72 KCAL/MOL
REMARK 924 INTRA-LIGAND FREE ENERGY PREDICTED BY IDOCK:   -1.08 KCAL/MOL
REMARK 927      BINDING AFFINITY PREDICTED BY RF-SCORE:    0.00 PKD
ROOT
HETATM    1  O   UNL     1      -9.591  16.355  68.505  1.00  0.00    -0.215 OA 
HETATM    2  C   UNL     1     -10.044  17.154  67.515  1.00  0.00    -0.301 C  
HETATM    3  O   UNL     1     -10.883  18.023  67.704  1.00  0.00    -0.390 OA 
HETATM    4  C   UNL     1      -9.427  16.878  66.172  1.00  0.00    -0.274 C  
ENDROOT
BRANCH   4   5
HETATM    5  C   UNL     1     -10.195  15.801  65.424  1.00  0.00    -0.349 C  
BRANCH   5   6
HETATM    6  N   UNL     1      -9.815  14.461  65.822  1.00  0.00    -0.422 N  
HETATM    7  C   UNL     1     -10.694  13.626  66.485  1.00  0.00    -0.284 C  
HETATM    8  H   UNL     1      -8.876  14.126  65.608  1.00  0.00     0.000 HD 
HETATM    9  O   UNL     1     -11.845  13.947  66.760  1.00  0.00    -0.377 OA 
BRANCH   7  10
HETATM   10  C   UNL     1     -10.153  12.304  66.917  1.00  0.00    -0.224 A  
HETATM   11  C   UNL     1     -10.730  11.141  66.393  1.00  0.00    -0.303 A  
HETATM   12  C   UNL     1     -10.301   9.880  66.828  1.00  0.00    -0.285 A  
HETATM   13  C   UNL     1      -9.282   9.747  67.780  1.00  0.00    -0.130 A  
HETATM   14  C   UNL     1      -9.102  12.188  67.834  1.00  0.00    -0.185 A  
HETATM   15  C   UNL     1      -8.682  10.920  68.268  1.00  0.00    -0.140 A  
BRANCH  13  16
HETATM   16  N   UNL     1      -8.972   8.449  68.245  1.00  0.00    -0.139 NA 
HETATM   17  H   UNL     1      -8.924   7.630  67.639  1.00  0.00     0.000 HD 
BRANCH  16  18
HETATM   18  N   UNL     1      -8.764   8.410  69.476  1.00  0.00    -0.135 NA 
HETATM   19  H   UNL     1      -7.883   8.691  69.908  1.00  0.00     0.000 HD 
BRANCH  18  20
HETATM   20  C   UNL     1      -9.876   7.936  70.206  1.00  0.00    -0.184 A  
HETATM   21  C   UNL     1     -10.190   6.576  70.348  1.00  0.00    -0.227 A  
HETATM   22  C   UNL     1     -11.352   6.164  71.011  1.00  0.00    -0.348 A  
HETATM   23  C   UNL     1     -12.224   7.119  71.532  1.00  0.00    -0.360 A  
HETATM   24  O   UNL     1     -13.373   6.706  72.157  1.00  0.00    -0.536 OA 
HETATM   25  C   UNL     1     -11.939   8.485  71.411  1.00  0.00    -0.345 A  
HETATM   26  C   UNL     1     -12.820   9.571  71.931  1.00  0.00    -0.420 C  
HETATM   27  C   UNL     1     -10.762   8.877  70.745  1.00  0.00    -0.287 A  
HETATM   28  H   UNL     1     -13.968   7.357  72.512  1.00  0.00     0.000 HD 
HETATM   29  O   UNL     1     -12.538  10.754  71.815  1.00  0.00    -0.376 OA 
HETATM   30  O   UNL     1     -13.956   9.160  72.533  1.00  0.00    -0.479 OA 
ENDBRANCH  18  20
ENDBRANCH  16  18
ENDBRANCH  13  16
ENDBRANCH   7  10
ENDBRANCH   5   6
ENDBRANCH   4   5
TORSDOF 6
ENDMDL
MODEL       99
REMARK 921   NORMALIZED FREE ENERGY PREDICTED BY IDOCK:   -5.78 KCAL/MOL
REMARK 922        TOTAL FREE ENERGY PREDICTED BY IDOCK:   -8.80 KCAL/MOL
REMARK 923 INTER-LIGAND FREE ENERGY PREDICTED BY IDOCK:   -7.72 KCAL/MOL
REMARK 924 INTRA-LIGAND FREE ENERGY PREDICTED BY IDOCK:   -1.08 KCAL/MOL
REMARK 927      BINDING AFFINITY PREDICTED BY RF-SCORE:    0.00 PKD
ROOT
HETATM    1  O   UNL     1     -11.158  15.531  66.058  1.00  0.00    -0.289 OA 
HETATM    2  C   UNL     1     -10.080  15.837  66.812  1.00  0.00    -0.271 C  
HETATM    3  O   UNL     1      -9.102  15.106  66.888  1.00  0.00    -0.216 OA 
HETATM    4  C   UNL     1     -10.191  17.146  67.542  1.00  0.00    -0.323 C  
ENDROOT
BRANCH   4   5
HETATM    5  C   UNL     1     -10.871  16.971  68.888  1.00  0.00    -0.228 C  
BRANCH   5   6
HETATM    6  N   UNL     1     -11.315  15.611  69.120  1.00  0.00    -0.313 N  
HETATM    7  C   UNL     1     -11.853  15.222  70.332  1.00  0.00    -0.324 C  
HETATM    8  H   UNL     1     -11.229  14.925  68.370  1.00  0.00     0.000 HD 
HETATM    9  O   UNL     1     -12.008  15.990  71.274  1.00  0.00    -0.415 OA 
BRANCH   7  10
HETATM   10  C   UNL     1     -12.190  13.775  70.472  1.00  0.00    -0.440 A  
HETATM   11  C   UNL     1     -12.837  13.349  71.638  1.00  0.00    -0.414 A  
HETATM   12  C   UNL     1     -13.106  11.988  71.842  1.00  0.00    -0.475 A  
HETATM   13  C   UNL     1     -12.752  11.027  70.886  1.00  0.00    -0.358 A  
HETATM   14  C   UNL     1     -11.872  12.832  69.488  1.00  0.00    -0.379 A  
HETATM   15  C   UNL     1     -12.141  11.471  69.702  1.00  0.00    -0.363 A  
BRANCH  13  16
HETATM   16  N   UNL     1     -12.963   9.666  71.205  1.00  0.00    -0.458 NA 
HETATM   17  H   UNL     1     -13.841   9.176  71.033  1.00  0.00     0.000 HD 
BRANCH  16  18
HETATM   18  N   UNL     1     -11.961   9.125  71.717  1.00  0.00    -0.358 NA 
HETATM   19  H   UNL     1     -11.608   9.356  72.646  1.00  0.00     0.000 HD 
BRANCH  18  20
HETATM   20  C   UNL     1     -11.366   8.161  70.873  1.00  0.00    -0.268 A  
HETATM   21  C   UNL     1     -11.711   6.801  70.885  1.00  0.00    -0.424 A  
HETATM   22  C   UNL     1     -11.031   5.873  70.088  1.00  0.00    -0.412 A  
HETATM   23  C   UNL     1      -9.982   6.299  69.274  1.00  0.00    -0.155 A  
HETATM   24  O   UNL     1      -9.305   5.379  68.516  1.00  0.00    -0.111 OA 
HETATM   25  C   UNL     1      -9.615   7.651  69.236  1.00  0.00    -0.159 A  
HETATM   26  C   UNL     1      -8.502   8.190  68.402  1.00  0.00    -0.126 C  
HETATM   27  C   UNL     1     -10.316   8.568  70.042  1.00  0.00    -0.213 A  
HETATM   28  H   UNL     1      -8.590   5.669  67.962  1.00  0.00     0.000 HD 
HETATM   29  O   UNL     1      -8.212   9.378  68.386  1.00  0.00    -0.115 OA 
HETATM   30  O   UNL     1      -7.830   7.279  67.668  1.00  0.00    -0.109 OA 
ENDBRANCH  18  20
ENDBRANCH  16  18
ENDBRANCH  13  16
ENDBRANCH   7  10
ENDBRANCH   5   6
ENDBRANCH   4   5
TORSDOF 6
ENDMDL
MODEL      100
REMARK 921   NORMALIZED FREE ENERGY PREDICTED BY IDOCK:   -5.78 KCAL/MOL
REMARK 922        TOTAL FREE ENERGY PREDICTED BY IDOCK:   -8.80 KCAL/MOL
REMARK 923 INTER-LIGAND FREE ENERGY PREDICTED BY IDOCK:   -7.83 KCAL/MOL
REMARK 924 INTRA-LIGAND FREE ENERGY PREDICTED BY IDOCK:   -0.96 KCAL/MOL
REMARK 927      BINDING AFFINITY PREDICTED BY RF-SCORE:    0.00 PKD
ROOT
HETATM    1  O   UNL     1      -7.363   4.634  65.391  1.00  0.00    -0.073 OA 
HETATM    2  C   UNL     1      -8.330   5.545  65.151  1.00  0.00    -0.146 C  
HETATM    3  O   UNL     1      -8.170   6.742  65.350  1.00  0.00    -0.128 OA 
HETATM    4  C   UNL     1      -9.609   4.959  64.620  1.00  0.00     0.140 C  
ENDROOT
BRANCH   4   5
HETATM    5  C   UNL     1     -10.529   4.532  65.750  1.00  0.00    -0.233 C  
BRANCH   5   6
HETATM    6  N   UNL     1     -10.782   5.595  66.701  1.00  0.00    -0.482 N  
HETATM    7  C   UNL     1     -10.397   5.490  68.024  1.00  0.00    -0.177 C  
HETATM    8  H   UNL     1     -11.255   6.442  66.387  1.00  0.00     0.000 HD 
HETATM    9  O   UNL     1      -9.806   4.515  68.475  1.00  0.00    -0.150 OA 
BRANCH   7  10
HETATM   10  C   UNL     1     -10.792   6.615  68.921  1.00  0.00    -0.326 A  
HETATM   11  C   UNL     1     -10.354   7.907  68.607  1.00  0.00    -0.224 A  
HETATM   12  C   UNL     1     -10.641   8.980  69.462  1.00  0.00    -0.231 A  
HETATM   13  C   UNL     1     -11.382   8.794  70.637  1.00  0.00    -0.254 A  
HETATM   14  C   UNL     1     -11.573   6.422  70.067  1.00  0.00    -0.446 A  
HETATM   15  C   UNL     1     -11.852   7.501  70.920  1.00  0.00    -0.293 A  
BRANCH  13  16
HETATM   16  N   UNL     1     -11.546   9.901  71.500  1.00  0.00    -0.354 NA 
HETATM   17  H   UNL     1     -10.783  10.316  72.036  1.00  0.00     0.000 HD 
BRANCH  16  18
HETATM   18  N   UNL     1     -12.722  10.318  71.538  1.00  0.00    -0.414 NA 
HETATM   19  H   UNL     1     -13.533   9.711  71.657  1.00  0.00     0.000 HD 
BRANCH  18  20
HETATM   20  C   UNL     1     -12.812  11.721  71.397  1.00  0.00    -0.335 A  
HETATM   21  C   UNL     1     -13.582  12.539  72.237  1.00  0.00    -0.443 A  
HETATM   22  C   UNL     1     -13.703  13.913  72.001  1.00  0.00    -0.577 A  
HETATM   23  C   UNL     1     -13.058  14.485  70.905  1.00  0.00    -0.345 A  
HETATM   24  O   UNL     1     -13.203  15.827  70.667  1.00  0.00    -0.705 OA 
HETATM   25  C   UNL     1     -12.277  13.697  70.048  1.00  0.00    -0.395 A  
HETATM   26  C   UNL     1     -11.562  14.224  68.851  1.00  0.00    -0.305 C  
HETATM   27  C   UNL     1     -12.165  12.318  70.307  1.00  0.00    -0.342 A  
HETATM   28  H   UNL     1     -12.764  16.217  69.920  1.00  0.00     0.000 HD 
HETATM   29  O   UNL     1     -10.882  13.511  68.127  1.00  0.00    -0.241 OA 
HETATM   30  O   UNL     1     -11.718  15.544  68.613  1.00  0.00    -0.353 OA 
ENDBRANCH  18  20
ENDBRANCH  16  18
ENDBRANCH  13  16
ENDBRANCH   7  10
ENDBRANCH   5   6
ENDBRANCH   4   5
TORSDOF 6
ENDMDL
MODEL      101
REMARK 921   NORMALIZED FREE ENERGY PREDICTED BY IDOCK:   -5.76 KCAL/MOL
REMARK 922        TOTAL FREE ENERGY PREDICTED BY IDOCK:   -8.77 KCAL/MOL
REMARK 923 INTER-LIGAND FREE ENERGY PREDICTED BY IDOCK:   -7.67 KCAL/MOL
REMARK 924 INTRA-LIGAND FREE ENERGY PREDICTED BY IDOCK:   -1.10 KCAL/MOL
REMARK 927      BINDING AFFINITY PREDICTED BY RF-SCORE:    0.00 PKD
ROOT
HETATM    1  O   UNL     1      -6.528   9.237  73.164  1.00  0.00    -0.304 OA 
HETATM    2  C   UNL     1      -6.219   7.991  72.745  1.00  0.00    -0.071 C  
HETATM    3  O   UNL     1      -5.801   7.761  71.619  1.00  0.00    -0.035 OA 
HETATM    4  C   UNL     1      -6.433   6.923  73.782  1.00  0.00    -0.067 C  
ENDROOT
BRANCH   4   5
HETATM    5  C   UNL     1      -7.857   6.398  73.745  1.00  0.00    -0.091 C  
BRANCH   5   6
HETATM    6  N   UNL     1      -8.730   7.199  72.911  1.00  0.00    -0.120 N  
HETATM    7  C   UNL     1     -10.062   7.385  73.226  1.00  0.00    -0.316 C  
HETATM    8  H   UNL     1      -8.351   7.636  72.071  1.00  0.00     0.000 HD 
HETATM    9  O   UNL     1     -10.587   6.911  74.227  1.00  0.00    -0.232 OA 
BRANCH   7  10
HETATM   10  C   UNL     1     -10.874   8.158  72.240  1.00  0.00    -0.388 A  
HETATM   11  C   UNL     1     -10.328   8.413  70.977  1.00  0.00    -0.244 A  
HETATM   12  C   UNL     1     -11.027   9.196  70.048  1.00  0.00    -0.240 A  
HETATM   13  C   UNL     1     -12.287   9.730  70.350  1.00  0.00    -0.011 A  
HETATM   14  C   UNL     1     -12.152   8.644  72.539  1.00  0.00    -0.368 A  
HETATM   15  C   UNL     1     -12.843   9.433  71.606  1.00  0.00    -0.461 A  
BRANCH  13  16
HETATM   16  N   UNL     1     -12.886  10.593  69.405  1.00  0.00    -0.549 NA 
HETATM   17  H   UNL     1     -13.866  10.874  69.439  1.00  0.00     0.000 HD 
BRANCH  16  18
HETATM   18  N   UNL     1     -12.089  10.976  68.523  1.00  0.00    -0.770 NA 
HETATM   19  H   UNL     1     -11.620  10.344  67.873  1.00  0.00     0.000 HD 
BRANCH  18  20
HETATM   20  C   UNL     1     -11.905  12.377  68.520  1.00  0.00    -0.304 A  
HETATM   21  C   UNL     1     -11.518  13.107  67.387  1.00  0.00    -0.375 A  
HETATM   22  C   UNL     1     -11.267  14.482  67.460  1.00  0.00    -0.333 A  
HETATM   23  C   UNL     1     -11.392  15.142  68.682  1.00  0.00    -0.310 A  
HETATM   24  O   UNL     1     -11.119  16.484  68.750  1.00  0.00    -0.332 OA 
HETATM   25  C   UNL     1     -11.781  14.443  69.833  1.00  0.00    -0.363 A  
HETATM   26  C   UNL     1     -11.929  15.068  71.179  1.00  0.00    -0.323 C  
HETATM   27  C   UNL     1     -12.032  13.061  69.735  1.00  0.00    -0.377 A  
HETATM   28  H   UNL     1     -11.204  16.934  69.583  1.00  0.00     0.000 HD 
HETATM   29  O   UNL     1     -12.278  14.430  72.162  1.00  0.00    -0.271 OA 
HETATM   30  O   UNL     1     -11.647  16.386  71.243  1.00  0.00    -0.414 OA 
ENDBRANCH  18  20
ENDBRANCH  16  18
ENDBRANCH  13  16
ENDBRANCH   7  10
ENDBRANCH   5   6
ENDBRANCH   4   5
TORSDOF 6
ENDMDL
MODEL      102
REMARK 921   NORMALIZED FREE ENERGY PREDICTED BY IDOCK:   -5.76 KCAL/MOL
REMARK 922        TOTAL FREE ENERGY PREDICTED BY IDOCK:   -8.76 KCAL/MOL
REMARK 923 INTER-LIGAND FREE ENERGY PREDICTED BY IDOCK:   -7.64 KCAL/MOL
REMARK 924 INTRA-LIGAND FREE ENERGY PREDICTED BY IDOCK:   -1.13 KCAL/MOL
REMARK 927      BINDING AFFINITY PREDICTED BY RF-SCORE:    0.00 PKD
ROOT
HETATM    1  O   UNL     1      -8.140   4.223  66.988  1.00  0.00    -0.100 OA 
HETATM    2  C   UNL     1      -8.455   3.902  68.261  1.00  0.00    -0.092 C  
HETATM    3  O   UNL     1      -9.595   3.627  68.608  1.00  0.00    -0.161 OA 
HETATM    4  C   UNL     1      -7.284   3.914  69.205  1.00  0.00    -0.053 C  
ENDROOT
BRANCH   4   5
HETATM    5  C   UNL     1      -7.060   5.298  69.789  1.00  0.00    -0.059 C  
BRANCH   5   6
HETATM    6  N   UNL     1      -7.978   6.286  69.258  1.00  0.00    -0.108 N  
HETATM    7  C   UNL     1      -7.707   7.639  69.333  1.00  0.00    -0.107 C  
HETATM    8  H   UNL     1      -8.844   5.975  68.818  1.00  0.00     0.000 HD 
HETATM    9  O   UNL     1      -6.680   8.091  69.827  1.00  0.00    -0.039 OA 
BRANCH   7  10
HETATM   10  C   UNL     1      -8.772   8.556  68.829  1.00  0.00    -0.139 A  
HETATM   11  C   UNL     1      -9.546   8.147  67.738  1.00  0.00    -0.180 A  
HETATM   12  C   UNL     1     -10.506   9.008  67.188  1.00  0.00    -0.333 A  
HETATM   13  C   UNL     1     -10.726  10.285  67.719  1.00  0.00    -0.275 A  
HETATM   14  C   UNL     1      -9.012   9.811  69.401  1.00  0.00    -0.197 A  
HETATM   15  C   UNL     1      -9.971  10.669  68.841  1.00  0.00    -0.213 A  
BRANCH  13  16
HETATM   16  N   UNL     1     -11.637  11.134  67.051  1.00  0.00    -0.430 NA 
HETATM   17  H   UNL     1     -12.130  10.872  66.198  1.00  0.00     0.000 HD 
BRANCH  16  18
HETATM   18  N   UNL     1     -11.774  12.240  67.616  1.00  0.00    -0.435 NA 
HETATM   19  H   UNL     1     -11.888  12.349  68.624  1.00  0.00     0.000 HD 
BRANCH  18  20
HETATM   20  C   UNL     1     -11.756  13.324  66.710  1.00  0.00    -0.385 A  
HETATM   21  C   UNL     1     -12.453  13.330  65.492  1.00  0.00    -0.531 A  
HETATM   22  C   UNL     1     -12.332  14.396  64.592  1.00  0.00    -0.435 A  
HETATM   23  C   UNL     1     -11.496  15.468  64.901  1.00  0.00    -0.279 A  
HETATM   24  O   UNL     1     -11.364  16.495  64.002  1.00  0.00    -1.475 OA 
HETATM   25  C   UNL     1     -10.788  15.495  66.110  1.00  0.00    -0.295 A  
HETATM   26  C   UNL     1      -9.868  16.596  66.514  1.00  0.00    -0.281 C  
HETATM   27  C   UNL     1     -10.928  14.415  67.003  1.00  0.00    -0.304 A  
HETATM   28  H   UNL     1     -10.794  17.226  64.211  1.00  0.00     0.000 HD 
HETATM   29  O   UNL     1      -9.271  16.592  67.581  1.00  0.00    -0.207 OA 
HETATM   30  O   UNL     1      -9.731  17.598  65.620  1.00  0.00    -0.525 OA 
ENDBRANCH  18  20
ENDBRANCH  16  18
ENDBRANCH  13  16
ENDBRANCH   7  10
ENDBRANCH   5   6
ENDBRANCH   4   5
TORSDOF 6
ENDMDL
MODEL      103
REMARK 921   NORMALIZED FREE ENERGY PREDICTED BY IDOCK:   -5.75 KCAL/MOL
REMARK 922        TOTAL FREE ENERGY PREDICTED BY IDOCK:   -8.76 KCAL/MOL
REMARK 923 INTER-LIGAND FREE ENERGY PREDICTED BY IDOCK:   -7.58 KCAL/MOL
REMARK 924 INTRA-LIGAND FREE ENERGY PREDICTED BY IDOCK:   -1.18 KCAL/MOL
REMARK 927      BINDING AFFINITY PREDICTED BY RF-SCORE:    0.00 PKD
ROOT
HETATM    1  O   UNL     1     -10.035   4.002  66.786  1.00  0.00    -0.195 OA 
HETATM    2  C   UNL     1      -8.709   4.245  66.727  1.00  0.00    -0.113 C  
HETATM    3  O   UNL     1      -8.076   4.679  67.680  1.00  0.00    -0.099 OA 
HETATM    4  C   UNL     1      -8.086   3.936  65.394  1.00  0.00    -0.097 C  
ENDROOT
BRANCH   4   5
HETATM    5  C   UNL     1      -8.174   5.127  64.456  1.00  0.00    -0.133 C  
BRANCH   5   6
HETATM    6  N   UNL     1      -8.886   6.248  65.035  1.00  0.00    -0.362 N  
HETATM    7  C   UNL     1      -8.285   7.481  65.199  1.00  0.00    -0.120 C  
HETATM    8  H   UNL     1      -9.855   6.123  65.330  1.00  0.00     0.000 HD 
HETATM    9  O   UNL     1      -7.133   7.717  64.852  1.00  0.00    -0.060 OA 
BRANCH   7  10
HETATM   10  C   UNL     1      -9.096   8.527  65.888  1.00  0.00    -0.237 A  
HETATM   11  C   UNL     1      -9.629   8.238  67.149  1.00  0.00    -0.234 A  
HETATM   12  C   UNL     1     -10.457   9.165  67.798  1.00  0.00    -0.306 A  
HETATM   13  C   UNL     1     -10.760  10.402  67.213  1.00  0.00    -0.273 A  
HETATM   14  C   UNL     1      -9.352   9.777  65.312  1.00  0.00    -0.315 A  
HETATM   15  C   UNL     1     -10.186  10.697  65.966  1.00  0.00    -0.309 A  
BRANCH  13  16
HETATM   16  N   UNL     1     -11.682  11.242  67.879  1.00  0.00    -0.592 NA 
HETATM   17  H   UNL     1     -11.930  11.139  68.863  1.00  0.00     0.000 HD 
BRANCH  16  18
HETATM   18  N   UNL     1     -12.159  12.124  67.135  1.00  0.00    -0.532 NA 
HETATM   19  H   UNL     1     -12.769  11.925  66.342  1.00  0.00     0.000 HD 
BRANCH  18  20
HETATM   20  C   UNL     1     -11.765  13.429  67.510  1.00  0.00    -0.366 A  
HETATM   21  C   UNL     1     -11.794  13.899  68.831  1.00  0.00    -0.393 A  
HETATM   22  C   UNL     1     -11.474  15.228  69.135  1.00  0.00    -0.330 A  
HETATM   23  C   UNL     1     -11.131  16.107  68.110  1.00  0.00    -0.332 A  
HETATM   24  O   UNL     1     -10.844  17.413  68.415  1.00  0.00    -0.336 OA 
HETATM   25  C   UNL     1     -11.088  15.668  66.780  1.00  0.00    -0.169 A  
HETATM   26  C   UNL     1     -10.741  16.543  65.623  1.00  0.00    -0.248 C  
HETATM   27  C   UNL     1     -11.410  14.327  66.496  1.00  0.00    -0.351 A  
HETATM   28  H   UNL     1     -10.610  18.013  67.716  1.00  0.00     0.000 HD 
HETATM   29  O   UNL     1     -10.706  16.126  64.474  1.00  0.00    -0.586 OA 
HETATM   30  O   UNL     1     -10.472  17.831  65.926  1.00  0.00    -0.491 OA 
ENDBRANCH  18  20
ENDBRANCH  16  18
ENDBRANCH  13  16
ENDBRANCH   7  10
ENDBRANCH   5   6
ENDBRANCH   4   5
TORSDOF 6
ENDMDL
MODEL      104
REMARK 921   NORMALIZED FREE ENERGY PREDICTED BY IDOCK:   -5.73 KCAL/MOL
REMARK 922        TOTAL FREE ENERGY PREDICTED BY IDOCK:   -8.72 KCAL/MOL
REMARK 923 INTER-LIGAND FREE ENERGY PREDICTED BY IDOCK:   -7.92 KCAL/MOL
REMARK 924 INTRA-LIGAND FREE ENERGY PREDICTED BY IDOCK:   -0.80 KCAL/MOL
REMARK 927      BINDING AFFINITY PREDICTED BY RF-SCORE:    0.00 PKD
ROOT
HETATM    1  O   UNL     1      -8.292   6.475  73.585  1.00  0.00    -0.117 OA 
HETATM    2  C   UNL     1      -8.728   5.197  73.589  1.00  0.00    -0.110 C  
HETATM    3  O   UNL     1      -8.047   4.268  73.177  1.00  0.00    -0.089 OA 
HETATM    4  C   UNL     1     -10.114   5.022  74.144  1.00  0.00    -0.248 C  
ENDROOT
BRANCH   4   5
HETATM    5  C   UNL     1     -11.166   5.198  73.062  1.00  0.00    -0.322 C  
BRANCH   5   6
HETATM    6  N   UNL     1     -11.061   6.471  72.378  1.00  0.00    -0.248 N  
HETATM    7  C   UNL     1     -12.175   7.124  71.888  1.00  0.00    -0.323 C  
HETATM    8  H   UNL     1     -10.142   6.896  72.256  1.00  0.00     0.000 HD 
HETATM    9  O   UNL     1     -13.315   6.690  72.012  1.00  0.00    -0.189 OA 
BRANCH   7  10
HETATM   10  C   UNL     1     -11.924   8.384  71.127  1.00  0.00    -0.301 A  
HETATM   11  C   UNL     1     -10.893   8.399  70.180  1.00  0.00    -0.238 A  
HETATM   12  C   UNL     1     -10.577   9.581  69.497  1.00  0.00    -0.238 A  
HETATM   13  C   UNL     1     -11.286  10.767  69.730  1.00  0.00    -0.300 A  
HETATM   14  C   UNL     1     -12.673   9.547  71.337  1.00  0.00    -0.445 A  
HETATM   15  C   UNL     1     -12.346  10.728  70.652  1.00  0.00    -0.465 A  
BRANCH  13  16
HETATM   16  N   UNL     1     -10.846  11.943  69.081  1.00  0.00    -0.372 NA 
HETATM   17  H   UNL     1      -9.866  12.144  68.882  1.00  0.00     0.000 HD 
BRANCH  16  18
HETATM   18  N   UNL     1     -11.783  12.709  68.775  1.00  0.00    -0.308 NA 
HETATM   19  H   UNL     1     -12.736  12.392  68.595  1.00  0.00     0.000 HD 
BRANCH  18  20
HETATM   20  C   UNL     1     -11.384  14.062  68.704  1.00  0.00    -0.276 A  
HETATM   21  C   UNL     1     -11.375  14.928  69.808  1.00  0.00    -0.314 A  
HETATM   22  C   UNL     1     -11.052  16.282  69.666  1.00  0.00    -0.333 A  
HETATM   23  C   UNL     1     -10.743  16.790  68.404  1.00  0.00    -0.362 A  
HETATM   24  O   UNL     1     -10.453  18.123  68.271  1.00  0.00    -0.362 OA 
HETATM   25  C   UNL     1     -10.739  15.951  67.282  1.00  0.00    -0.306 A  
HETATM   26  C   UNL     1     -10.430  16.412  65.897  1.00  0.00    -0.337 C  
HETATM   27  C   UNL     1     -11.063  14.591  67.448  1.00  0.00    -0.320 A  
HETATM   28  H   UNL     1     -10.243  18.469  67.411  1.00  0.00     0.000 HD 
HETATM   29  O   UNL     1     -10.428  15.652  64.940  1.00  0.00    -0.444 OA 
HETATM   30  O   UNL     1     -10.158  17.728  65.769  1.00  0.00    -0.555 OA 
ENDBRANCH  18  20
ENDBRANCH  16  18
ENDBRANCH  13  16
ENDBRANCH   7  10
ENDBRANCH   5   6
ENDBRANCH   4   5
TORSDOF 6
ENDMDL
MODEL      105
REMARK 921   NORMALIZED FREE ENERGY PREDICTED BY IDOCK:   -5.73 KCAL/MOL
REMARK 922        TOTAL FREE ENERGY PREDICTED BY IDOCK:   -8.72 KCAL/MOL
REMARK 923 INTER-LIGAND FREE ENERGY PREDICTED BY IDOCK:   -7.81 KCAL/MOL
REMARK 924 INTRA-LIGAND FREE ENERGY PREDICTED BY IDOCK:   -0.91 KCAL/MOL
REMARK 927      BINDING AFFINITY PREDICTED BY RF-SCORE:    0.00 PKD
ROOT
HETATM    1  O   UNL     1      -8.418  19.128  67.895  1.00  0.00    -0.286 OA 
HETATM    2  C   UNL     1      -9.729  18.807  67.945  1.00  0.00    -0.329 C  
HETATM    3  O   UNL     1     -10.184  18.025  68.768  1.00  0.00    -0.377 OA 
HETATM    4  C   UNL     1     -10.569  19.493  66.904  1.00  0.00    -0.602 C  
ENDROOT
BRANCH   4   5
HETATM    5  C   UNL     1     -10.599  18.700  65.609  1.00  0.00    -0.132 C  
BRANCH   5   6
HETATM    6  N   UNL     1     -10.414  17.278  65.817  1.00  0.00    -0.306 N  
HETATM    7  C   UNL     1     -11.009  16.342  64.992  1.00  0.00    -0.252 C  
HETATM    8  H   UNL     1      -9.830  16.960  66.590  1.00  0.00     0.000 HD 
HETATM    9  O   UNL     1     -11.707  16.643  64.030  1.00  0.00    -1.143 OA 
BRANCH   7  10
HETATM   10  C   UNL     1     -10.812  14.910  65.365  1.00  0.00    -0.379 A  
HETATM   11  C   UNL     1     -11.415  13.924  64.575  1.00  0.00    -0.393 A  
HETATM   12  C   UNL     1     -11.316  12.573  64.932  1.00  0.00    -0.351 A  
HETATM   13  C   UNL     1     -10.604  12.172  66.071  1.00  0.00    -0.257 A  
HETATM   14  C   UNL     1     -10.058  14.523  66.479  1.00  0.00    -0.280 A  
HETATM   15  C   UNL     1      -9.968  13.167  66.832  1.00  0.00    -0.245 A  
BRANCH  13  16
HETATM   16  N   UNL     1     -10.632  10.804  66.424  1.00  0.00    -0.232 NA 
HETATM   17  H   UNL     1     -11.376  10.380  66.979  1.00  0.00     0.000 HD 
BRANCH  16  18
HETATM   18  N   UNL     1      -9.650  10.169  65.985  1.00  0.00    -0.195 NA 
HETATM   19  H   UNL     1      -8.958  10.567  65.350  1.00  0.00     0.000 HD 
BRANCH  18  20
HETATM   20  C   UNL     1      -9.600   8.840  66.462  1.00  0.00    -0.237 A  
HETATM   21  C   UNL     1      -9.032   7.777  65.742  1.00  0.00    -0.109 A  
HETATM   22  C   UNL     1      -9.085   6.464  66.224  1.00  0.00    -0.167 A  
HETATM   23  C   UNL     1      -9.722   6.198  67.435  1.00  0.00    -0.120 A  
HETATM   24  O   UNL     1      -9.791   4.905  67.886  1.00  0.00    -0.151 OA 
HETATM   25  C   UNL     1     -10.296   7.237  68.181  1.00  0.00    -0.234 A  
HETATM   26  C   UNL     1     -11.003   7.040  69.479  1.00  0.00    -0.220 C  
HETATM   27  C   UNL     1     -10.227   8.551  67.680  1.00  0.00    -0.297 A  
HETATM   28  H   UNL     1     -10.226   4.724  68.712  1.00  0.00     0.000 HD 
HETATM   29  O   UNL     1     -11.486   7.970  70.109  1.00  0.00    -0.159 OA 
HETATM   30  O   UNL     1     -11.080   5.764  69.913  1.00  0.00    -0.360 OA 
ENDBRANCH  18  20
ENDBRANCH  16  18
ENDBRANCH  13  16
ENDBRANCH   7  10
ENDBRANCH   5   6
ENDBRANCH   4   5
TORSDOF 6
ENDMDL
MODEL      106
REMARK 921   NORMALIZED FREE ENERGY PREDICTED BY IDOCK:   -5.70 KCAL/MOL
REMARK 922        TOTAL FREE ENERGY PREDICTED BY IDOCK:   -8.69 KCAL/MOL
REMARK 923 INTER-LIGAND FREE ENERGY PREDICTED BY IDOCK:   -7.67 KCAL/MOL
REMARK 924 INTRA-LIGAND FREE ENERGY PREDICTED BY IDOCK:   -1.01 KCAL/MOL
REMARK 927      BINDING AFFINITY PREDICTED BY RF-SCORE:    0.00 PKD
ROOT
HETATM    1  O   UNL     1     -13.135   8.389  72.001  1.00  0.00    -0.335 OA 
HETATM    2  C   UNL     1     -11.830   8.041  72.033  1.00  0.00    -0.326 C  
HETATM    3  O   UNL     1     -10.930   8.868  72.068  1.00  0.00    -0.352 OA 
HETATM    4  C   UNL     1     -11.590   6.557  72.023  1.00  0.00    -0.354 C  
ENDROOT
BRANCH   4   5
HETATM    5  C   UNL     1     -11.523   6.019  70.604  1.00  0.00    -0.158 C  
BRANCH   5   6
HETATM    6  N   UNL     1     -11.437   7.069  69.609  1.00  0.00    -0.536 N  
HETATM    7  C   UNL     1     -10.455   7.066  68.637  1.00  0.00    -0.204 C  
HETATM    8  H   UNL     1     -12.117   7.828  69.627  1.00  0.00     0.000 HD 
HETATM    9  O   UNL     1      -9.614   6.180  68.536  1.00  0.00    -0.119 OA 
BRANCH   7  10
HETATM   10  C   UNL     1     -10.422   8.248  67.726  1.00  0.00    -0.280 A  
HETATM   11  C   UNL     1      -9.802   8.114  66.478  1.00  0.00    -0.309 A  
HETATM   12  C   UNL     1      -9.684   9.219  65.623  1.00  0.00    -0.302 A  
HETATM   13  C   UNL     1     -10.192  10.474  65.984  1.00  0.00    -0.245 A  
HETATM   14  C   UNL     1     -10.975   9.484  68.081  1.00  0.00    -0.144 A  
HETATM   15  C   UNL     1     -10.848  10.586  67.222  1.00  0.00    -0.338 A  
BRANCH  13  16
HETATM   16  N   UNL     1      -9.947  11.563  65.118  1.00  0.00    -0.252 NA 
HETATM   17  H   UNL     1      -9.217  11.564  64.405  1.00  0.00     0.000 HD 
BRANCH  16  18
HETATM   18  N   UNL     1     -10.720  12.524  65.315  1.00  0.00    -0.278 NA 
HETATM   19  H   UNL     1     -11.728  12.478  65.165  1.00  0.00     0.000 HD 
BRANCH  18  20
HETATM   20  C   UNL     1     -10.049  13.682  65.767  1.00  0.00    -0.298 A  
HETATM   21  C   UNL     1      -8.993  13.658  66.691  1.00  0.00    -0.138 A  
HETATM   22  C   UNL     1      -8.420  14.841  67.170  1.00  0.00    -0.247 A  
HETATM   23  C   UNL     1      -8.911  16.072  66.734  1.00  0.00    -0.256 A  
HETATM   24  O   UNL     1      -8.360  17.226  67.229  1.00  0.00    -0.195 OA 
HETATM   25  C   UNL     1      -9.961  16.132  65.809  1.00  0.00    -0.370 A  
HETATM   26  C   UNL     1     -10.551  17.402  65.297  1.00  0.00     0.072 C  
HETATM   27  C   UNL     1     -10.520  14.929  65.337  1.00  0.00    -0.406 A  
HETATM   28  H   UNL     1      -8.694  18.064  66.932  1.00  0.00     0.000 HD 
HETATM   29  O   UNL     1     -11.463  17.420  64.484  1.00  0.00    -0.789 OA 
HETATM   30  O   UNL     1     -10.015  18.536  65.797  1.00  0.00    -0.515 OA 
ENDBRANCH  18  20
ENDBRANCH  16  18
ENDBRANCH  13  16
ENDBRANCH   7  10
ENDBRANCH   5   6
ENDBRANCH   4   5
TORSDOF 6
ENDMDL
MODEL      107
REMARK 921   NORMALIZED FREE ENERGY PREDICTED BY IDOCK:   -5.70 KCAL/MOL
REMARK 922        TOTAL FREE ENERGY PREDICTED BY IDOCK:   -8.68 KCAL/MOL
REMARK 923 INTER-LIGAND FREE ENERGY PREDICTED BY IDOCK:   -7.68 KCAL/MOL
REMARK 924 INTRA-LIGAND FREE ENERGY PREDICTED BY IDOCK:   -1.01 KCAL/MOL
REMARK 927      BINDING AFFINITY PREDICTED BY RF-SCORE:    0.00 PKD
ROOT
HETATM    1  O   UNL     1      -8.123   8.538  73.487  1.00  0.00    -0.378 OA 
HETATM    2  C   UNL     1      -8.479   7.533  72.659  1.00  0.00    -0.117 C  
HETATM    3  O   UNL     1      -8.072   7.452  71.509  1.00  0.00    -0.098 OA 
HETATM    4  C   UNL     1      -9.415   6.531  73.276  1.00  0.00    -0.157 C  
ENDROOT
BRANCH   4   5
HETATM    5  C   UNL     1     -10.864   6.955  73.109  1.00  0.00    -0.296 C  
BRANCH   5   6
HETATM    6  N   UNL     1     -11.000   8.273  72.525  1.00  0.00    -0.358 N  
HETATM    7  C   UNL     1     -12.028   8.577  71.654  1.00  0.00    -0.316 C  
HETATM    8  H   UNL     1     -10.320   8.995  72.763  1.00  0.00     0.000 HD 
HETATM    9  O   UNL     1     -12.896   7.772  71.334  1.00  0.00    -0.328 OA 
BRANCH   7  10
HETATM   10  C   UNL     1     -12.007   9.943  71.053  1.00  0.00    -0.456 A  
HETATM   11  C   UNL     1     -11.227  10.160  69.912  1.00  0.00    -0.343 A  
HETATM   12  C   UNL     1     -11.121  11.444  69.360  1.00  0.00    -0.301 A  
HETATM   13  C   UNL     1     -11.798  12.535  69.922  1.00  0.00    -0.303 A  
HETATM   14  C   UNL     1     -12.726  11.013  71.599  1.00  0.00    -0.483 A  
HETATM   15  C   UNL     1     -12.610  12.297  71.043  1.00  0.00    -0.352 A  
BRANCH  13  16
HETATM   16  N   UNL     1     -11.563  13.816  69.373  1.00  0.00    -0.292 NA 
HETATM   17  H   UNL     1     -12.308  14.468  69.124  1.00  0.00     0.000 HD 
BRANCH  16  18
HETATM   18  N   UNL     1     -10.349  14.067  69.226  1.00  0.00    -0.433 NA 
HETATM   19  H   UNL     1      -9.612  13.368  69.325  1.00  0.00     0.000 HD 
BRANCH  18  20
HETATM   20  C   UNL     1     -10.103  15.422  68.909  1.00  0.00    -0.219 A  
HETATM   21  C   UNL     1     -11.049  16.260  68.299  1.00  0.00    -0.346 A  
HETATM   22  C   UNL     1     -10.726  17.571  67.929  1.00  0.00    -0.340 A  
HETATM   23  C   UNL     1      -9.438  18.054  68.156  1.00  0.00    -0.289 A  
HETATM   24  O   UNL     1      -9.123  19.330  67.767  1.00  0.00    -0.295 OA 
HETATM   25  C   UNL     1      -8.470  17.244  68.766  1.00  0.00    -0.233 A  
HETATM   26  C   UNL     1      -7.070  17.677  69.037  1.00  0.00    -0.227 C  
HETATM   27  C   UNL     1      -8.819  15.930  69.135  1.00  0.00    -0.253 A  
HETATM   28  H   UNL     1      -8.245  19.660  67.921  1.00  0.00     0.000 HD 
HETATM   29  O   UNL     1      -6.252  16.948  69.578  1.00  0.00    -0.209 OA 
HETATM   30  O   UNL     1      -6.760  18.930  68.640  1.00  0.00    -0.250 OA 
ENDBRANCH  18  20
ENDBRANCH  16  18
ENDBRANCH  13  16
ENDBRANCH   7  10
ENDBRANCH   5   6
ENDBRANCH   4   5
TORSDOF 6
ENDMDL
MODEL      108
REMARK 921   NORMALIZED FREE ENERGY PREDICTED BY IDOCK:   -5.69 KCAL/MOL
REMARK 922        TOTAL FREE ENERGY PREDICTED BY IDOCK:   -8.67 KCAL/MOL
REMARK 923 INTER-LIGAND FREE ENERGY PREDICTED BY IDOCK:   -7.57 KCAL/MOL
REMARK 924 INTRA-LIGAND FREE ENERGY PREDICTED BY IDOCK:   -1.10 KCAL/MOL
REMARK 927      BINDING AFFINITY PREDICTED BY RF-SCORE:    0.00 PKD
ROOT
HETATM    1  O   UNL     1     -11.423  14.813  64.758  1.00  0.00    -0.390 OA 
HETATM    2  C   UNL     1     -12.333  13.850  64.497  1.00  0.00    -0.372 C  
HETATM    3  O   UNL     1     -13.276  13.617  65.239  1.00  0.00    -0.724 OA 
HETATM    4  C   UNL     1     -12.081  13.098  63.219  1.00  0.00    -0.460 C  
ENDROOT
BRANCH   4   5
HETATM    5  C   UNL     1     -11.151  11.920  63.448  1.00  0.00    -0.383 C  
BRANCH   5   6
HETATM    6  N   UNL     1     -11.035  11.559  64.846  1.00  0.00    -0.283 N  
HETATM    7  C   UNL     1     -10.004  10.762  65.305  1.00  0.00    -0.282 C  
HETATM    8  H   UNL     1     -11.732  11.901  65.508  1.00  0.00     0.000 HD 
HETATM    9  O   UNL     1      -9.117  10.328  64.579  1.00  0.00    -0.193 OA 
BRANCH   7  10
HETATM   10  C   UNL     1     -10.046  10.391  66.751  1.00  0.00    -0.267 A  
HETATM   11  C   UNL     1     -11.135  10.818  67.520  1.00  0.00    -0.374 A  
HETATM   12  C   UNL     1     -11.177  10.554  68.895  1.00  0.00    -0.323 A  
HETATM   13  C   UNL     1     -10.148   9.848  69.532  1.00  0.00    -0.221 A  
HETATM   14  C   UNL     1      -9.033   9.644  67.362  1.00  0.00    -0.141 A  
HETATM   15  C   UNL     1      -9.081   9.388  68.742  1.00  0.00    -0.132 A  
BRANCH  13  16
HETATM   16  N   UNL     1     -10.209   9.707  70.937  1.00  0.00    -0.304 NA 
HETATM   17  H   UNL     1      -9.495  10.065  71.571  1.00  0.00     0.000 HD 
BRANCH  16  18
HETATM   18  N   UNL     1     -11.230   9.099  71.320  1.00  0.00    -0.306 NA 
HETATM   19  H   UNL     1     -12.171   9.491  71.275  1.00  0.00     0.000 HD 
BRANCH  18  20
HETATM   20  C   UNL     1     -10.944   7.810  71.824  1.00  0.00    -0.239 A  
HETATM   21  C   UNL     1     -10.830   7.519  73.192  1.00  0.00    -0.448 A  
HETATM   22  C   UNL     1     -10.461   6.243  73.633  1.00  0.00    -0.299 A  
HETATM   23  C   UNL     1     -10.189   5.242  72.702  1.00  0.00    -0.184 A  
HETATM   24  O   UNL     1      -9.804   4.003  73.144  1.00  0.00    -0.123 OA 
HETATM   25  C   UNL     1     -10.298   5.499  71.329  1.00  0.00    -0.297 A  
HETATM   26  C   UNL     1     -10.018   4.490  70.266  1.00  0.00    -0.218 C  
HETATM   27  C   UNL     1     -10.675   6.788  70.906  1.00  0.00    -0.269 A  
HETATM   28  H   UNL     1      -9.618   3.320  72.509  1.00  0.00     0.000 HD 
HETATM   29  O   UNL     1     -10.130   4.744  69.076  1.00  0.00    -0.175 OA 
HETATM   30  O   UNL     1      -9.626   3.275  70.706  1.00  0.00    -0.162 OA 
ENDBRANCH  18  20
ENDBRANCH  16  18
ENDBRANCH  13  16
ENDBRANCH   7  10
ENDBRANCH   5   6
ENDBRANCH   4   5
TORSDOF 6
ENDMDL
MODEL      109
REMARK 921   NORMALIZED FREE ENERGY PREDICTED BY IDOCK:   -5.68 KCAL/MOL
REMARK 922        TOTAL FREE ENERGY PREDICTED BY IDOCK:   -8.66 KCAL/MOL
REMARK 923 INTER-LIGAND FREE ENERGY PREDICTED BY IDOCK:   -7.67 KCAL/MOL
REMARK 924 INTRA-LIGAND FREE ENERGY PREDICTED BY IDOCK:   -0.99 KCAL/MOL
REMARK 927      BINDING AFFINITY PREDICTED BY RF-SCORE:    0.00 PKD
ROOT
HETATM    1  O   UNL     1     -11.489  15.250  67.069  1.00  0.00    -0.286 OA 
HETATM    2  C   UNL     1     -10.335  15.895  67.339  1.00  0.00    -0.288 C  
HETATM    3  O   UNL     1      -9.285  15.631  66.770  1.00  0.00    -0.219 OA 
HETATM    4  C   UNL     1     -10.458  16.961  68.393  1.00  0.00    -0.355 C  
ENDROOT
BRANCH   4   5
HETATM    5  C   UNL     1     -10.263  16.384  69.784  1.00  0.00    -0.142 C  
BRANCH   5   6
HETATM    6  N   UNL     1     -10.709  15.010  69.891  1.00  0.00    -0.374 N  
HETATM    7  C   UNL     1     -11.913  14.684  70.486  1.00  0.00    -0.310 C  
HETATM    8  H   UNL     1     -10.121  14.265  69.517  1.00  0.00     0.000 HD 
HETATM    9  O   UNL     1     -12.685  15.521  70.940  1.00  0.00    -0.424 OA 
BRANCH   7  10
HETATM   10  C   UNL     1     -12.217  13.228  70.611  1.00  0.00    -0.417 A  
HETATM   11  C   UNL     1     -12.944  12.789  71.723  1.00  0.00    -0.416 A  
HETATM   12  C   UNL     1     -13.187  11.423  71.916  1.00  0.00    -0.485 A  
HETATM   13  C   UNL     1     -12.726  10.466  71.002  1.00  0.00    -0.394 A  
HETATM   14  C   UNL     1     -11.790  12.289  69.664  1.00  0.00    -0.393 A  
HETATM   15  C   UNL     1     -12.033  10.922  69.868  1.00  0.00    -0.430 A  
BRANCH  13  16
HETATM   16  N   UNL     1     -12.921   9.102  71.314  1.00  0.00    -0.464 NA 
HETATM   17  H   UNL     1     -13.505   8.474  70.760  1.00  0.00     0.000 HD 
BRANCH  16  18
HETATM   18  N   UNL     1     -12.303   8.744  72.338  1.00  0.00    -0.371 NA 
HETATM   19  H   UNL     1     -12.539   9.060  73.279  1.00  0.00     0.000 HD 
BRANCH  18  20
HETATM   20  C   UNL     1     -11.241   7.856  72.056  1.00  0.00    -0.287 A  
HETATM   21  C   UNL     1     -10.109   8.213  71.308  1.00  0.00    -0.240 A  
HETATM   22  C   UNL     1      -9.126   7.270  70.985  1.00  0.00    -0.153 A  
HETATM   23  C   UNL     1      -9.273   5.948  71.402  1.00  0.00    -0.146 A  
HETATM   24  O   UNL     1      -8.318   5.027  71.059  1.00  0.00    -0.112 OA 
HETATM   25  C   UNL     1     -10.390   5.560  72.154  1.00  0.00    -0.263 A  
HETATM   26  C   UNL     1     -10.631   4.168  72.632  1.00  0.00    -0.122 C  
HETATM   27  C   UNL     1     -11.365   6.525  72.471  1.00  0.00    -0.299 A  
HETATM   28  H   UNL     1      -8.419   4.125  71.342  1.00  0.00     0.000 HD 
HETATM   29  O   UNL     1     -11.613   3.863  73.293  1.00  0.00    -0.146 OA 
HETATM   30  O   UNL     1      -9.695   3.261  72.280  1.00  0.00    -0.134 OA 
ENDBRANCH  18  20
ENDBRANCH  16  18
ENDBRANCH  13  16
ENDBRANCH   7  10
ENDBRANCH   5   6
ENDBRANCH   4   5
TORSDOF 6
ENDMDL
MODEL      110
REMARK 921   NORMALIZED FREE ENERGY PREDICTED BY IDOCK:   -5.64 KCAL/MOL
REMARK 922        TOTAL FREE ENERGY PREDICTED BY IDOCK:   -8.61 KCAL/MOL
REMARK 923 INTER-LIGAND FREE ENERGY PREDICTED BY IDOCK:   -7.54 KCAL/MOL
REMARK 924 INTRA-LIGAND FREE ENERGY PREDICTED BY IDOCK:   -1.06 KCAL/MOL
REMARK 927      BINDING AFFINITY PREDICTED BY RF-SCORE:    0.00 PKD
ROOT
HETATM    1  O   UNL     1      -7.619   4.318  66.030  1.00  0.00    -0.087 OA 
HETATM    2  C   UNL     1      -8.403   4.794  65.040  1.00  0.00    -0.132 C  
HETATM    3  O   UNL     1      -8.051   5.704  64.302  1.00  0.00    -0.120 OA 
HETATM    4  C   UNL     1      -9.737   4.109  64.929  1.00  0.00    -0.194 C  
ENDROOT
BRANCH   4   5
HETATM    5  C   UNL     1     -10.769   4.763  65.830  1.00  0.00    -0.173 C  
BRANCH   5   6
HETATM    6  N   UNL     1     -10.427   6.127  66.179  1.00  0.00    -0.433 N  
HETATM    7  C   UNL     1     -10.674   6.637  67.439  1.00  0.00    -0.339 C  
HETATM    8  H   UNL     1      -9.992   6.726  65.477  1.00  0.00     0.000 HD 
HETATM    9  O   UNL     1     -11.174   5.976  68.343  1.00  0.00    -0.287 OA 
BRANCH   7  10
HETATM   10  C   UNL     1     -10.355   8.080  67.645  1.00  0.00    -0.312 A  
HETATM   11  C   UNL     1     -10.113   8.878  66.521  1.00  0.00    -0.356 A  
HETATM   12  C   UNL     1      -9.739  10.220  66.673  1.00  0.00    -0.233 A  
HETATM   13  C   UNL     1      -9.612  10.800  67.942  1.00  0.00    -0.160 A  
HETATM   14  C   UNL     1     -10.279   8.657  68.918  1.00  0.00    -0.221 A  
HETATM   15  C   UNL     1      -9.899  10.000  69.061  1.00  0.00    -0.203 A  
BRANCH  13  16
HETATM   16  N   UNL     1      -9.133  12.128  68.021  1.00  0.00    -0.184 NA 
HETATM   17  H   UNL     1      -8.250  12.434  67.613  1.00  0.00     0.000 HD 
BRANCH  16  18
HETATM   18  N   UNL     1      -9.906  12.887  68.643  1.00  0.00    -0.401 NA 
HETATM   19  H   UNL     1     -10.418  12.608  69.481  1.00  0.00     0.000 HD 
BRANCH  18  20
HETATM   20  C   UNL     1      -9.995  14.172  68.064  1.00  0.00    -0.226 A  
HETATM   21  C   UNL     1      -9.739  15.360  68.765  1.00  0.00    -0.210 A  
HETATM   22  C   UNL     1      -9.925  16.611  68.166  1.00  0.00    -0.259 A  
HETATM   23  C   UNL     1     -10.385  16.686  66.852  1.00  0.00    -0.299 A  
HETATM   24  O   UNL     1     -10.590  17.916  66.283  1.00  0.00    -0.335 OA 
HETATM   25  C   UNL     1     -10.648  15.518  66.122  1.00  0.00    -0.321 A  
HETATM   26  C   UNL     1     -11.150  15.507  64.718  1.00  0.00    -0.407 C  
HETATM   27  C   UNL     1     -10.449  14.270  66.743  1.00  0.00    -0.273 A  
HETATM   28  H   UNL     1     -10.904  17.967  65.387  1.00  0.00     0.000 HD 
HETATM   29  O   UNL     1     -11.362  14.470  64.107  1.00  0.00    -0.185 OA 
HETATM   30  O   UNL     1     -11.362  16.721  64.166  1.00  0.00    -1.194 OA 
ENDBRANCH  18  20
ENDBRANCH  16  18
ENDBRANCH  13  16
ENDBRANCH   7  10
ENDBRANCH   5   6
ENDBRANCH   4   5
TORSDOF 6
ENDMDL
MODEL      111
REMARK 921   NORMALIZED FREE ENERGY PREDICTED BY IDOCK:   -5.63 KCAL/MOL
REMARK 922        TOTAL FREE ENERGY PREDICTED BY IDOCK:   -8.59 KCAL/MOL
REMARK 923 INTER-LIGAND FREE ENERGY PREDICTED BY IDOCK:   -7.51 KCAL/MOL
REMARK 924 INTRA-LIGAND FREE ENERGY PREDICTED BY IDOCK:   -1.08 KCAL/MOL
REMARK 927      BINDING AFFINITY PREDICTED BY RF-SCORE:    0.00 PKD
ROOT
HETATM    1  O   UNL     1      -7.821   4.208  67.792  1.00  0.00    -0.085 OA 
HETATM    2  C   UNL     1      -9.133   3.904  67.889  1.00  0.00    -0.149 C  
HETATM    3  O   UNL     1      -9.970   4.346  67.114  1.00  0.00    -0.196 OA 
HETATM    4  C   UNL     1      -9.468   2.980  69.027  1.00  0.00    -0.172 C  
ENDROOT
BRANCH   4   5
HETATM    5  C   UNL     1      -9.727   3.755  70.308  1.00  0.00    -0.152 C  
BRANCH   5   6
HETATM    6  N   UNL     1      -9.859   5.180  70.085  1.00  0.00    -0.209 N  
HETATM    7  C   UNL     1     -10.403   6.016  71.041  1.00  0.00    -0.216 C  
HETATM    8  H   UNL     1      -9.541   5.577  69.201  1.00  0.00     0.000 HD 
HETATM    9  O   UNL     1     -10.789   5.620  72.136  1.00  0.00    -0.229 OA 
BRANCH   7  10
HETATM   10  C   UNL     1     -10.564   7.449  70.656  1.00  0.00    -0.234 A  
HETATM   11  C   UNL     1     -10.999   8.358  71.627  1.00  0.00    -0.345 A  
HETATM   12  C   UNL     1     -11.232   9.698  71.288  1.00  0.00    -0.446 A  
HETATM   13  C   UNL     1     -11.025  10.164  69.983  1.00  0.00    -0.307 A  
HETATM   14  C   UNL     1     -10.307   7.909  69.359  1.00  0.00    -0.220 A  
HETATM   15  C   UNL     1     -10.549   9.251  69.027  1.00  0.00    -0.225 A  
BRANCH  13  16
HETATM   16  N   UNL     1     -11.378  11.501  69.692  1.00  0.00    -0.378 NA 
HETATM   17  H   UNL     1     -11.019  12.304  70.209  1.00  0.00     0.000 HD 
BRANCH  16  18
HETATM   18  N   UNL     1     -12.174  11.597  68.734  1.00  0.00    -0.395 NA 
HETATM   19  H   UNL     1     -12.944  10.947  68.574  1.00  0.00     0.000 HD 
BRANCH  18  20
HETATM   20  C   UNL     1     -11.894  12.699  67.896  1.00  0.00    -0.332 A  
HETATM   21  C   UNL     1     -11.717  12.595  66.508  1.00  0.00    -0.463 A  
HETATM   22  C   UNL     1     -11.357  13.706  65.737  1.00  0.00    -0.315 A  
HETATM   23  C   UNL     1     -11.159  14.940  66.355  1.00  0.00    -0.342 A  
HETATM   24  O   UNL     1     -10.782  16.017  65.594  1.00  0.00    -0.349 OA 
HETATM   25  C   UNL     1     -11.332  15.080  67.738  1.00  0.00    -0.340 A  
HETATM   26  C   UNL     1     -11.132  16.358  68.479  1.00  0.00    -0.357 C  
HETATM   27  C   UNL     1     -11.698  13.950  68.494  1.00  0.00    -0.390 A  
HETATM   28  H   UNL     1     -10.646  16.858  66.015  1.00  0.00     0.000 HD 
HETATM   29  O   UNL     1     -11.298  16.448  69.687  1.00  0.00    -0.295 OA 
HETATM   30  O   UNL     1     -10.748  17.413  67.729  1.00  0.00    -0.373 OA 
ENDBRANCH  18  20
ENDBRANCH  16  18
ENDBRANCH  13  16
ENDBRANCH   7  10
ENDBRANCH   5   6
ENDBRANCH   4   5
TORSDOF 6
ENDMDL
MODEL      112
REMARK 921   NORMALIZED FREE ENERGY PREDICTED BY IDOCK:   -5.60 KCAL/MOL
REMARK 922        TOTAL FREE ENERGY PREDICTED BY IDOCK:   -8.55 KCAL/MOL
REMARK 923 INTER-LIGAND FREE ENERGY PREDICTED BY IDOCK:   -7.34 KCAL/MOL
REMARK 924 INTRA-LIGAND FREE ENERGY PREDICTED BY IDOCK:   -1.21 KCAL/MOL
REMARK 927      BINDING AFFINITY PREDICTED BY RF-SCORE:    0.00 PKD
ROOT
HETATM    1  O   UNL     1      -6.700   8.416  68.269  1.00  0.00    -0.062 OA 
HETATM    2  C   UNL     1      -7.540   7.611  67.585  1.00  0.00    -0.109 C  
HETATM    3  O   UNL     1      -8.574   8.021  67.074  1.00  0.00    -0.124 OA 
HETATM    4  C   UNL     1      -7.092   6.178  67.507  1.00  0.00    -0.074 C  
ENDROOT
BRANCH   4   5
HETATM    5  C   UNL     1      -7.580   5.383  68.706  1.00  0.00    -0.079 C  
BRANCH   5   6
HETATM    6  N   UNL     1      -8.407   6.167  69.601  1.00  0.00    -0.122 N  
HETATM    7  C   UNL     1      -9.740   5.867  69.804  1.00  0.00    -0.160 C  
HETATM    8  H   UNL     1      -7.994   6.959  70.094  1.00  0.00     0.000 HD 
HETATM    9  O   UNL     1     -10.304   4.920  69.266  1.00  0.00    -0.187 OA 
BRANCH   7  10
HETATM   10  C   UNL     1     -10.504   6.802  70.681  1.00  0.00    -0.243 A  
HETATM   11  C   UNL     1     -11.898   6.686  70.731  1.00  0.00    -0.441 A  
HETATM   12  C   UNL     1     -12.657   7.591  71.485  1.00  0.00    -0.385 A  
HETATM   13  C   UNL     1     -12.048   8.619  72.215  1.00  0.00    -0.373 A  
HETATM   14  C   UNL     1      -9.876   7.795  71.443  1.00  0.00    -0.195 A  
HETATM   15  C   UNL     1     -10.645   8.700  72.191  1.00  0.00    -0.411 A  
BRANCH  13  16
HETATM   16  N   UNL     1     -12.882   9.554  72.869  1.00  0.00    -0.202 NA 
HETATM   17  H   UNL     1     -12.837   9.747  73.870  1.00  0.00     0.000 HD 
BRANCH  16  18
HETATM   18  N   UNL     1     -13.681  10.119  72.093  1.00  0.00    -0.427 NA 
HETATM   19  H   UNL     1     -14.635   9.796  71.931  1.00  0.00     0.000 HD 
BRANCH  18  20
HETATM   20  C   UNL     1     -13.123  11.253  71.462  1.00  0.00    -0.355 A  
HETATM   21  C   UNL     1     -12.413  11.199  70.253  1.00  0.00    -0.354 A  
HETATM   22  C   UNL     1     -11.807  12.340  69.715  1.00  0.00    -0.388 A  
HETATM   23  C   UNL     1     -11.898  13.555  70.394  1.00  0.00    -0.220 A  
HETATM   24  O   UNL     1     -11.280  14.662  69.872  1.00  0.00    -0.253 OA 
HETATM   25  C   UNL     1     -12.603  13.644  71.602  1.00  0.00    -0.343 A  
HETATM   26  C   UNL     1     -12.741  14.899  72.396  1.00  0.00    -0.344 C  
HETATM   27  C   UNL     1     -13.208  12.485  72.123  1.00  0.00    -0.508 A  
HETATM   28  H   UNL     1     -11.341  15.489  70.335  1.00  0.00     0.000 HD 
HETATM   29  O   UNL     1     -13.370  14.945  73.443  1.00  0.00    -0.537 OA 
HETATM   30  O   UNL     1     -12.120  15.983  71.885  1.00  0.00    -0.448 OA 
ENDBRANCH  18  20
ENDBRANCH  16  18
ENDBRANCH  13  16
ENDBRANCH   7  10
ENDBRANCH   5   6
ENDBRANCH   4   5
TORSDOF 6
ENDMDL
MODEL      113
REMARK 921   NORMALIZED FREE ENERGY PREDICTED BY IDOCK:   -5.59 KCAL/MOL
REMARK 922        TOTAL FREE ENERGY PREDICTED BY IDOCK:   -8.54 KCAL/MOL
REMARK 923 INTER-LIGAND FREE ENERGY PREDICTED BY IDOCK:   -7.77 KCAL/MOL
REMARK 924 INTRA-LIGAND FREE ENERGY PREDICTED BY IDOCK:   -0.77 KCAL/MOL
REMARK 927      BINDING AFFINITY PREDICTED BY RF-SCORE:    0.00 PKD
ROOT
HETATM    1  O   UNL     1     -10.998   4.400  65.109  1.00  0.00    -0.251 OA 
HETATM    2  C   UNL     1      -9.758   3.882  64.978  1.00  0.00    -0.192 C  
HETATM    3  O   UNL     1      -9.459   2.775  65.404  1.00  0.00    -0.116 OA 
HETATM    4  C   UNL     1      -8.787   4.784  64.267  1.00  0.00    -0.132 C  
ENDROOT
BRANCH   4   5
HETATM    5  C   UNL     1      -8.104   5.732  65.237  1.00  0.00    -0.130 C  
BRANCH   5   6
HETATM    6  N   UNL     1      -8.738   7.033  65.291  1.00  0.00    -0.359 N  
HETATM    7  C   UNL     1      -8.994   7.665  66.493  1.00  0.00    -0.158 C  
HETATM    8  H   UNL     1      -9.001   7.495  64.420  1.00  0.00     0.000 HD 
HETATM    9  O   UNL     1      -8.689   7.187  67.580  1.00  0.00    -0.121 OA 
BRANCH   7  10
HETATM   10  C   UNL     1      -9.730   8.962  66.416  1.00  0.00    -0.332 A  
HETATM   11  C   UNL     1     -10.473   9.376  67.527  1.00  0.00    -0.343 A  
HETATM   12  C   UNL     1     -11.237  10.550  67.471  1.00  0.00    -0.299 A  
HETATM   13  C   UNL     1     -11.267  11.342  66.316  1.00  0.00    -0.161 A  
HETATM   14  C   UNL     1      -9.712   9.767  65.271  1.00  0.00    -0.371 A  
HETATM   15  C   UNL     1     -10.484  10.938  65.221  1.00  0.00    -0.299 A  
BRANCH  13  16
HETATM   16  N   UNL     1     -12.138  12.455  66.297  1.00  0.00    -0.630 NA 
HETATM   17  H   UNL     1     -13.072  12.447  66.707  1.00  0.00     0.000 HD 
BRANCH  16  18
HETATM   18  N   UNL     1     -11.643  13.449  65.725  1.00  0.00    -0.322 NA 
HETATM   19  H   UNL     1     -11.420  13.475  64.730  1.00  0.00     0.000 HD 
BRANCH  18  20
HETATM   20  C   UNL     1     -11.425  14.534  66.603  1.00  0.00    -0.366 A  
HETATM   21  C   UNL     1     -10.653  15.658  66.272  1.00  0.00    -0.310 A  
HETATM   22  C   UNL     1     -10.399  16.666  67.210  1.00  0.00    -0.298 A  
HETATM   23  C   UNL     1     -10.910  16.551  68.502  1.00  0.00    -0.349 A  
HETATM   24  O   UNL     1     -10.634  17.530  69.421  1.00  0.00    -0.404 OA 
HETATM   25  C   UNL     1     -11.688  15.443  68.864  1.00  0.00    -0.377 A  
HETATM   26  C   UNL     1     -12.265  15.237  70.224  1.00  0.00    -0.363 C  
HETATM   27  C   UNL     1     -11.936  14.444  67.904  1.00  0.00    -0.348 A  
HETATM   28  H   UNL     1     -10.982  17.452  70.302  1.00  0.00     0.000 HD 
HETATM   29  O   UNL     1     -12.947  14.262  70.505  1.00  0.00    -0.331 OA 
HETATM   30  O   UNL     1     -11.980  16.197  71.129  1.00  0.00    -0.412 OA 
ENDBRANCH  18  20
ENDBRANCH  16  18
ENDBRANCH  13  16
ENDBRANCH   7  10
ENDBRANCH   5   6
ENDBRANCH   4   5
TORSDOF 6
ENDMDL
MODEL      114
REMARK 921   NORMALIZED FREE ENERGY PREDICTED BY IDOCK:   -5.59 KCAL/MOL
REMARK 922        TOTAL FREE ENERGY PREDICTED BY IDOCK:   -8.54 KCAL/MOL
REMARK 923 INTER-LIGAND FREE ENERGY PREDICTED BY IDOCK:   -7.79 KCAL/MOL
REMARK 924 INTRA-LIGAND FREE ENERGY PREDICTED BY IDOCK:   -0.75 KCAL/MOL
REMARK 927      BINDING AFFINITY PREDICTED BY RF-SCORE:    0.00 PKD
ROOT
HETATM    1  O   UNL     1      -7.565   3.171  66.441  1.00  0.00    -0.075 OA 
HETATM    2  C   UNL     1      -7.930   3.980  65.424  1.00  0.00    -0.093 C  
HETATM    3  O   UNL     1      -7.162   4.785  64.915  1.00  0.00    -0.061 OA 
HETATM    4  C   UNL     1      -9.355   3.801  64.977  1.00  0.00    -0.157 C  
ENDROOT
BRANCH   4   5
HETATM    5  C   UNL     1     -10.299   4.674  65.785  1.00  0.00    -0.264 C  
BRANCH   5   6
HETATM    6  N   UNL     1      -9.885   6.062  65.826  1.00  0.00    -0.363 N  
HETATM    7  C   UNL     1     -10.185   6.875  66.901  1.00  0.00    -0.240 C  
HETATM    8  H   UNL     1      -9.359   6.447  65.041  1.00  0.00     0.000 HD 
HETATM    9  O   UNL     1     -10.794   6.483  67.890  1.00  0.00    -0.256 OA 
BRANCH   7  10
HETATM   10  C   UNL     1      -9.778   8.307  66.783  1.00  0.00    -0.307 A  
HETATM   11  C   UNL     1      -9.134   8.725  65.613  1.00  0.00    -0.247 A  
HETATM   12  C   UNL     1      -8.671  10.042  65.492  1.00  0.00    -0.171 A  
HETATM   13  C   UNL     1      -8.850  10.973  66.523  1.00  0.00    -0.169 A  
HETATM   14  C   UNL     1     -10.006   9.237  67.804  1.00  0.00    -0.235 A  
HETATM   15  C   UNL     1      -9.534  10.553  67.676  1.00  0.00    -0.164 A  
BRANCH  13  16
HETATM   16  N   UNL     1      -8.267  12.252  66.371  1.00  0.00    -0.389 NA 
HETATM   17  H   UNL     1      -7.444  12.432  65.796  1.00  0.00     0.000 HD 
BRANCH  16  18
HETATM   18  N   UNL     1      -8.867  13.138  67.015  1.00  0.00    -0.247 NA 
HETATM   19  H   UNL     1      -8.738  13.294  68.015  1.00  0.00     0.000 HD 
BRANCH  18  20
HETATM   20  C   UNL     1      -9.743  13.902  66.212  1.00  0.00    -0.289 A  
HETATM   21  C   UNL     1     -10.559  13.351  65.213  1.00  0.00    -0.333 A  
HETATM   22  C   UNL     1     -11.346  14.164  64.388  1.00  0.00    -0.310 A  
HETATM   23  C   UNL     1     -11.313  15.548  64.550  1.00  0.00    -0.314 A  
HETATM   24  O   UNL     1     -12.067  16.338  63.721  1.00  0.00    -1.337 OA 
HETATM   25  C   UNL     1     -10.512  16.131  65.541  1.00  0.00    -0.407 A  
HETATM   26  C   UNL     1     -10.411  17.600  65.776  1.00  0.00    -0.188 C  
HETATM   27  C   UNL     1      -9.732  15.294  66.363  1.00  0.00    -0.308 A  
HETATM   28  H   UNL     1     -12.045  17.281  63.831  1.00  0.00     0.000 HD 
HETATM   29  O   UNL     1      -9.707  18.075  66.655  1.00  0.00    -0.303 OA 
HETATM   30  O   UNL     1     -11.145  18.374  64.949  1.00  0.00    -0.560 OA 
ENDBRANCH  18  20
ENDBRANCH  16  18
ENDBRANCH  13  16
ENDBRANCH   7  10
ENDBRANCH   5   6
ENDBRANCH   4   5
TORSDOF 6
ENDMDL
MODEL      115
REMARK 921   NORMALIZED FREE ENERGY PREDICTED BY IDOCK:   -5.57 KCAL/MOL
REMARK 922        TOTAL FREE ENERGY PREDICTED BY IDOCK:   -8.51 KCAL/MOL
REMARK 923 INTER-LIGAND FREE ENERGY PREDICTED BY IDOCK:   -7.34 KCAL/MOL
REMARK 924 INTRA-LIGAND FREE ENERGY PREDICTED BY IDOCK:   -1.17 KCAL/MOL
REMARK 927      BINDING AFFINITY PREDICTED BY RF-SCORE:    0.00 PKD
ROOT
HETATM    1  O   UNL     1      -9.023   6.261  67.481  1.00  0.00    -0.111 OA 
HETATM    2  C   UNL     1     -10.309   6.030  67.821  1.00  0.00    -0.204 C  
HETATM    3  O   UNL     1     -11.193   5.882  66.989  1.00  0.00    -0.173 OA 
HETATM    4  C   UNL     1     -10.550   5.971  69.304  1.00  0.00    -0.366 C  
ENDROOT
BRANCH   4   5
HETATM    5  C   UNL     1     -10.826   7.352  69.872  1.00  0.00    -0.246 C  
BRANCH   5   6
HETATM    6  N   UNL     1     -10.749   8.397  68.872  1.00  0.00    -0.406 N  
HETATM    7  C   UNL     1     -11.009   9.718  69.182  1.00  0.00    -0.175 C  
HETATM    8  H   UNL     1     -10.497   8.152  67.914  1.00  0.00     0.000 HD 
HETATM    9  O   UNL     1     -11.298  10.097  70.312  1.00  0.00    -0.269 OA 
BRANCH   7  10
HETATM   10  C   UNL     1     -10.982  10.684  68.044  1.00  0.00    -0.336 A  
HETATM   11  C   UNL     1     -11.745  11.853  68.141  1.00  0.00    -0.388 A  
HETATM   12  C   UNL     1     -11.805  12.750  67.066  1.00  0.00    -0.428 A  
HETATM   13  C   UNL     1     -11.098  12.512  65.880  1.00  0.00    -0.299 A  
HETATM   14  C   UNL     1     -10.233  10.454  66.884  1.00  0.00    -0.281 A  
HETATM   15  C   UNL     1     -10.303  11.356  65.811  1.00  0.00    -0.304 A  
BRANCH  13  16
HETATM   16  N   UNL     1     -11.286  13.407  64.803  1.00  0.00    -0.324 NA 
HETATM   17  H   UNL     1     -12.167  13.504  64.298  1.00  0.00     0.000 HD 
BRANCH  16  18
HETATM   18  N   UNL     1     -10.261  14.068  64.535  1.00  0.00    -0.689 NA 
HETATM   19  H   UNL     1      -9.525  13.739  63.909  1.00  0.00     0.000 HD 
BRANCH  18  20
HETATM   20  C   UNL     1     -10.227  15.319  65.191  1.00  0.00    -0.339 A  
HETATM   21  C   UNL     1     -10.950  16.442  64.759  1.00  0.00    -0.246 A  
HETATM   22  C   UNL     1     -10.814  17.680  65.396  1.00  0.00     0.104 A  
HETATM   23  C   UNL     1      -9.938  17.811  66.473  1.00  0.00    -0.346 A  
HETATM   24  O   UNL     1      -9.793  19.035  67.074  1.00  0.00    -0.299 OA 
HETATM   25  C   UNL     1      -9.205  16.708  66.932  1.00  0.00    -0.245 A  
HETATM   26  C   UNL     1      -8.242  16.762  68.069  1.00  0.00    -0.192 C  
HETATM   27  C   UNL     1      -9.360  15.470  66.279  1.00  0.00    -0.355 A  
HETATM   28  H   UNL     1      -9.196  19.124  67.808  1.00  0.00     0.000 HD 
HETATM   29  O   UNL     1      -7.622  15.779  68.449  1.00  0.00    -0.124 OA 
HETATM   30  O   UNL     1      -8.092  17.972  68.649  1.00  0.00    -0.303 OA 
ENDBRANCH  18  20
ENDBRANCH  16  18
ENDBRANCH  13  16
ENDBRANCH   7  10
ENDBRANCH   5   6
ENDBRANCH   4   5
TORSDOF 6
ENDMDL
MODEL      116
REMARK 921   NORMALIZED FREE ENERGY PREDICTED BY IDOCK:   -5.57 KCAL/MOL
REMARK 922        TOTAL FREE ENERGY PREDICTED BY IDOCK:   -8.51 KCAL/MOL
REMARK 923 INTER-LIGAND FREE ENERGY PREDICTED BY IDOCK:   -7.25 KCAL/MOL
REMARK 924 INTRA-LIGAND FREE ENERGY PREDICTED BY IDOCK:   -1.26 KCAL/MOL
REMARK 927      BINDING AFFINITY PREDICTED BY RF-SCORE:    0.00 PKD
ROOT
HETATM    1  O   UNL     1      -6.336   7.640  68.363  1.00  0.00    -0.038 OA 
HETATM    2  C   UNL     1      -7.350   6.900  67.864  1.00  0.00    -0.097 C  
HETATM    3  O   UNL     1      -8.385   7.400  67.446  1.00  0.00    -0.114 OA 
HETATM    4  C   UNL     1      -7.089   5.420  67.868  1.00  0.00    -0.067 C  
ENDROOT
BRANCH   4   5
HETATM    5  C   UNL     1      -7.505   4.791  69.186  1.00  0.00    -0.056 C  
BRANCH   5   6
HETATM    6  N   UNL     1      -8.395   5.636  69.956  1.00  0.00    -0.119 N  
HETATM    7  C   UNL     1      -9.613   5.175  70.418  1.00  0.00    -0.187 C  
HETATM    8  H   UNL     1      -8.115   6.595  70.162  1.00  0.00     0.000 HD 
HETATM    9  O   UNL     1     -10.012   4.031  70.231  1.00  0.00    -0.188 OA 
BRANCH   7  10
HETATM   10  C   UNL     1     -10.474   6.170  71.123  1.00  0.00    -0.281 A  
HETATM   11  C   UNL     1     -11.752   6.428  70.614  1.00  0.00    -0.377 A  
HETATM   12  C   UNL     1     -12.564   7.407  71.202  1.00  0.00    -0.330 A  
HETATM   13  C   UNL     1     -12.129   8.140  72.315  1.00  0.00    -0.364 A  
HETATM   14  C   UNL     1     -10.043   6.860  72.262  1.00  0.00    -0.194 A  
HETATM   15  C   UNL     1     -10.861   7.843  72.841  1.00  0.00    -0.451 A  
BRANCH  13  16
HETATM   16  N   UNL     1     -12.959   9.180  72.791  1.00  0.00    -0.508 NA 
HETATM   17  H   UNL     1     -12.983   9.481  73.765  1.00  0.00     0.000 HD 
BRANCH  16  18
HETATM   18  N   UNL     1     -13.660   9.692  71.893  1.00  0.00    -0.385 NA 
HETATM   19  H   UNL     1     -14.538   9.289  71.564  1.00  0.00     0.000 HD 
BRANCH  18  20
HETATM   20  C   UNL     1     -13.109  10.888  71.382  1.00  0.00    -0.356 A  
HETATM   21  C   UNL     1     -13.209  12.128  72.030  1.00  0.00    -0.496 A  
HETATM   22  C   UNL     1     -12.718  13.298  71.437  1.00  0.00    -0.401 A  
HETATM   23  C   UNL     1     -12.128  13.237  70.175  1.00  0.00    -0.333 A  
HETATM   24  O   UNL     1     -11.673  14.392  69.592  1.00  0.00    -0.272 OA 
HETATM   25  C   UNL     1     -12.009  12.014  69.503  1.00  0.00    -0.346 A  
HETATM   26  C   UNL     1     -11.402  11.861  68.149  1.00  0.00    -0.288 C  
HETATM   27  C   UNL     1     -12.505  10.849  70.119  1.00  0.00    -0.356 A  
HETATM   28  H   UNL     1     -11.272  14.351  68.732  1.00  0.00     0.000 HD 
HETATM   29  O   UNL     1     -11.306  10.777  67.593  1.00  0.00    -0.392 OA 
HETATM   30  O   UNL     1     -10.967  13.002  67.574  1.00  0.00    -0.248 OA 
ENDBRANCH  18  20
ENDBRANCH  16  18
ENDBRANCH  13  16
ENDBRANCH   7  10
ENDBRANCH   5   6
ENDBRANCH   4   5
TORSDOF 6
ENDMDL
MODEL      117
REMARK 921   NORMALIZED FREE ENERGY PREDICTED BY IDOCK:   -5.55 KCAL/MOL
REMARK 922        TOTAL FREE ENERGY PREDICTED BY IDOCK:   -8.49 KCAL/MOL
REMARK 923 INTER-LIGAND FREE ENERGY PREDICTED BY IDOCK:   -7.41 KCAL/MOL
REMARK 924 INTRA-LIGAND FREE ENERGY PREDICTED BY IDOCK:   -1.08 KCAL/MOL
REMARK 927      BINDING AFFINITY PREDICTED BY RF-SCORE:    0.00 PKD
ROOT
HETATM    1  O   UNL     1      -9.140  18.970  65.813  1.00  0.00    -0.384 OA 
HETATM    2  C   UNL     1      -9.128  19.771  66.900  1.00  0.00    -0.347 C  
HETATM    3  O   UNL     1      -8.222  20.561  67.125  1.00  0.00    -0.335 OA 
HETATM    4  C   UNL     1     -10.322  19.605  67.798  1.00  0.00    -0.586 C  
ENDROOT
BRANCH   4   5
HETATM    5  C   UNL     1     -10.095  18.503  68.819  1.00  0.00    -0.356 C  
BRANCH   5   6
HETATM    6  N   UNL     1      -9.831  17.217  68.207  1.00  0.00    -0.274 N  
HETATM    7  C   UNL     1     -10.742  16.180  68.279  1.00  0.00    -0.307 C  
HETATM    8  H   UNL     1      -8.951  17.072  67.711  1.00  0.00     0.000 HD 
HETATM    9  O   UNL     1     -11.829  16.280  68.837  1.00  0.00    -0.284 OA 
BRANCH   7  10
HETATM   10  C   UNL     1     -10.314  14.880  67.684  1.00  0.00    -0.242 A  
HETATM   11  C   UNL     1      -9.103  14.318  68.103  1.00  0.00    -0.193 A  
HETATM   12  C   UNL     1      -8.630  13.137  67.517  1.00  0.00    -0.196 A  
HETATM   13  C   UNL     1      -9.356  12.482  66.514  1.00  0.00    -0.233 A  
HETATM   14  C   UNL     1     -11.074  14.213  66.716  1.00  0.00    -0.314 A  
HETATM   15  C   UNL     1     -10.590  13.033  66.130  1.00  0.00    -0.289 A  
BRANCH  13  16
HETATM   16  N   UNL     1      -8.769  11.353  65.899  1.00  0.00    -0.332 NA 
HETATM   17  H   UNL     1      -8.840  11.153  64.901  1.00  0.00     0.000 HD 
BRANCH  16  18
HETATM   18  N   UNL     1      -8.153  10.625  66.706  1.00  0.00    -0.127 NA 
HETATM   19  H   UNL     1      -7.201  10.811  67.021  1.00  0.00     0.000 HD 
BRANCH  18  20
HETATM   20  C   UNL     1      -8.915   9.515  67.135  1.00  0.00    -0.134 A  
HETATM   21  C   UNL     1      -9.321   8.476  66.284  1.00  0.00    -0.287 A  
HETATM   22  C   UNL     1     -10.147   7.443  66.743  1.00  0.00    -0.305 A  
HETATM   23  C   UNL     1     -10.588   7.448  68.066  1.00  0.00    -0.175 A  
HETATM   24  O   UNL     1     -11.417   6.446  68.499  1.00  0.00    -0.547 OA 
HETATM   25  C   UNL     1     -10.198   8.469  68.943  1.00  0.00    -0.221 A  
HETATM   26  C   UNL     1     -10.629   8.556  70.367  1.00  0.00    -0.223 C  
HETATM   27  C   UNL     1      -9.363   9.496  68.461  1.00  0.00    -0.138 A  
HETATM   28  H   UNL     1     -11.718   6.449  69.400  1.00  0.00     0.000 HD 
HETATM   29  O   UNL     1     -10.265   9.457  71.109  1.00  0.00    -0.304 OA 
HETATM   30  O   UNL     1     -11.457   7.574  70.786  1.00  0.00    -0.281 OA 
ENDBRANCH  18  20
ENDBRANCH  16  18
ENDBRANCH  13  16
ENDBRANCH   7  10
ENDBRANCH   5   6
ENDBRANCH   4   5
TORSDOF 6
ENDMDL
MODEL      118
REMARK 921   NORMALIZED FREE ENERGY PREDICTED BY IDOCK:   -5.55 KCAL/MOL
REMARK 922        TOTAL FREE ENERGY PREDICTED BY IDOCK:   -8.49 KCAL/MOL
REMARK 923 INTER-LIGAND FREE ENERGY PREDICTED BY IDOCK:   -7.61 KCAL/MOL
REMARK 924 INTRA-LIGAND FREE ENERGY PREDICTED BY IDOCK:   -0.88 KCAL/MOL
REMARK 927      BINDING AFFINITY PREDICTED BY RF-SCORE:    0.00 PKD
ROOT
HETATM    1  O   UNL     1      -8.373  19.177  68.300  1.00  0.00    -0.308 OA 
HETATM    2  C   UNL     1      -9.579  18.590  68.455  1.00  0.00    -0.358 C  
HETATM    3  O   UNL     1      -9.907  18.023  69.488  1.00  0.00     0.015 OA 
HETATM    4  C   UNL     1     -10.475  18.699  67.252  1.00  0.00    -0.468 C  
ENDROOT
BRANCH   4   5
HETATM    5  C   UNL     1     -10.234  17.556  66.281  1.00  0.00    -0.355 C  
BRANCH   5   6
HETATM    6  N   UNL     1     -10.277  16.257  66.921  1.00  0.00    -0.282 N  
HETATM    7  C   UNL     1     -10.377  15.091  66.186  1.00  0.00    -0.299 C  
HETATM    8  H   UNL     1     -10.233  16.202  67.939  1.00  0.00     0.000 HD 
HETATM    9  O   UNL     1     -10.415  15.071  64.961  1.00  0.00    -0.388 OA 
BRANCH   7  10
HETATM   10  C   UNL     1     -10.501  13.824  66.967  1.00  0.00    -0.274 A  
HETATM   11  C   UNL     1      -9.704  12.733  66.603  1.00  0.00    -0.252 A  
HETATM   12  C   UNL     1      -9.842  11.504  67.262  1.00  0.00    -0.208 A  
HETATM   13  C   UNL     1     -10.763  11.339  68.305  1.00  0.00    -0.194 A  
HETATM   14  C   UNL     1     -11.392  13.689  68.038  1.00  0.00    -0.316 A  
HETATM   15  C   UNL     1     -11.528  12.453  68.690  1.00  0.00    -0.348 A  
BRANCH  13  16
HETATM   16  N   UNL     1     -10.918  10.046  68.855  1.00  0.00    -0.301 NA 
HETATM   17  H   UNL     1     -10.296   9.265  68.645  1.00  0.00     0.000 HD 
BRANCH  16  18
HETATM   18  N   UNL     1     -11.898   9.959  69.625  1.00  0.00    -0.462 NA 
HETATM   19  H   UNL     1     -12.772  10.467  69.485  1.00  0.00     0.000 HD 
BRANCH  18  20
HETATM   20  C   UNL     1     -11.668   9.084  70.709  1.00  0.00    -0.242 A  
HETATM   21  C   UNL     1     -12.666   8.286  71.289  1.00  0.00    -0.209 A  
HETATM   22  C   UNL     1     -12.402   7.500  72.417  1.00  0.00    -0.116 A  
HETATM   23  C   UNL     1     -11.130   7.514  72.986  1.00  0.00    -0.362 A  
HETATM   24  O   UNL     1     -10.889   6.760  74.106  1.00  0.00    -0.419 OA 
HETATM   25  C   UNL     1     -10.109   8.296  72.429  1.00  0.00    -0.383 A  
HETATM   26  C   UNL     1      -8.725   8.376  72.979  1.00  0.00    -0.159 C  
HETATM   27  C   UNL     1     -10.395   9.076  71.292  1.00  0.00    -0.383 A  
HETATM   28  H   UNL     1     -10.021   6.770  74.494  1.00  0.00     0.000 HD 
HETATM   29  O   UNL     1      -7.855   9.064  72.464  1.00  0.00    -0.336 OA 
HETATM   30  O   UNL     1      -8.496   7.643  74.089  1.00  0.00    -0.202 OA 
ENDBRANCH  18  20
ENDBRANCH  16  18
ENDBRANCH  13  16
ENDBRANCH   7  10
ENDBRANCH   5   6
ENDBRANCH   4   5
TORSDOF 6
ENDMDL
MODEL      119
REMARK 921   NORMALIZED FREE ENERGY PREDICTED BY IDOCK:   -5.55 KCAL/MOL
REMARK 922        TOTAL FREE ENERGY PREDICTED BY IDOCK:   -8.48 KCAL/MOL
REMARK 923 INTER-LIGAND FREE ENERGY PREDICTED BY IDOCK:   -7.53 KCAL/MOL
REMARK 924 INTRA-LIGAND FREE ENERGY PREDICTED BY IDOCK:   -0.95 KCAL/MOL
REMARK 927      BINDING AFFINITY PREDICTED BY RF-SCORE:    0.00 PKD
ROOT
HETATM    1  O   UNL     1     -10.191   6.365  74.555  1.00  0.00    -0.342 OA 
HETATM    2  C   UNL     1      -9.413   5.343  74.141  1.00  0.00    -0.138 C  
HETATM    3  O   UNL     1      -8.195   5.433  74.062  1.00  0.00    -0.110 OA 
HETATM    4  C   UNL     1     -10.174   4.095  73.790  1.00  0.00    -0.214 C  
ENDROOT
BRANCH   4   5
HETATM    5  C   UNL     1     -10.626   4.114  72.340  1.00  0.00    -0.045 C  
BRANCH   5   6
HETATM    6  N   UNL     1     -10.648   5.449  71.777  1.00  0.00    -0.229 N  
HETATM    7  C   UNL     1      -9.609   5.925  71.000  1.00  0.00    -0.166 C  
HETATM    8  H   UNL     1     -11.451   6.052  71.958  1.00  0.00     0.000 HD 
HETATM    9  O   UNL     1      -8.621   5.256  70.720  1.00  0.00    -0.124 OA 
BRANCH   7  10
HETATM   10  C   UNL     1      -9.713   7.345  70.553  1.00  0.00    -0.175 A  
HETATM   11  C   UNL     1      -8.934   7.764  69.468  1.00  0.00    -0.142 A  
HETATM   12  C   UNL     1      -8.947   9.105  69.063  1.00  0.00    -0.143 A  
HETATM   13  C   UNL     1      -9.743  10.054  69.717  1.00  0.00    -0.226 A  
HETATM   14  C   UNL     1     -10.549   8.271  71.187  1.00  0.00    -0.258 A  
HETATM   15  C   UNL     1     -10.552   9.614  70.778  1.00  0.00    -0.392 A  
BRANCH  13  16
HETATM   16  N   UNL     1      -9.628  11.406  69.319  1.00  0.00    -0.394 NA 
HETATM   17  H   UNL     1      -9.754  12.193  69.955  1.00  0.00     0.000 HD 
BRANCH  16  18
HETATM   18  N   UNL     1      -9.357  11.534  68.107  1.00  0.00    -0.179 NA 
HETATM   19  H   UNL     1      -8.519  11.146  67.672  1.00  0.00     0.000 HD 
BRANCH  18  20
HETATM   20  C   UNL     1     -10.332  12.273  67.401  1.00  0.00    -0.206 A  
HETATM   21  C   UNL     1     -11.143  13.253  67.994  1.00  0.00    -0.282 A  
HETATM   22  C   UNL     1     -12.152  13.896  67.269  1.00  0.00    -0.403 A  
HETATM   23  C   UNL     1     -12.369  13.554  65.935  1.00  0.00    -0.456 A  
HETATM   24  O   UNL     1     -13.377  14.171  65.240  1.00  0.00    -0.715 OA 
HETATM   25  C   UNL     1     -11.574  12.582  65.311  1.00  0.00    -0.406 A  
HETATM   26  C   UNL     1     -11.744  12.150  63.894  1.00  0.00    -0.458 C  
HETATM   27  C   UNL     1     -10.562  11.951  66.059  1.00  0.00    -0.304 A  
HETATM   28  H   UNL     1     -13.525  13.937  64.331  1.00  0.00     0.000 HD 
HETATM   29  O   UNL     1     -11.028  11.304  63.378  1.00  0.00    -0.355 OA 
HETATM   30  O   UNL     1     -12.746  12.750  63.217  1.00  0.00    -0.662 OA 
ENDBRANCH  18  20
ENDBRANCH  16  18
ENDBRANCH  13  16
ENDBRANCH   7  10
ENDBRANCH   5   6
ENDBRANCH   4   5
TORSDOF 6
ENDMDL
MODEL      120
REMARK 921   NORMALIZED FREE ENERGY PREDICTED BY IDOCK:   -5.54 KCAL/MOL
REMARK 922        TOTAL FREE ENERGY PREDICTED BY IDOCK:   -8.47 KCAL/MOL
REMARK 923 INTER-LIGAND FREE ENERGY PREDICTED BY IDOCK:   -7.54 KCAL/MOL
REMARK 924 INTRA-LIGAND FREE ENERGY PREDICTED BY IDOCK:   -0.93 KCAL/MOL
REMARK 927      BINDING AFFINITY PREDICTED BY RF-SCORE:    0.00 PKD
ROOT
HETATM    1  O   UNL     1      -8.507   7.474  74.487  1.00  0.00    -0.203 OA 
HETATM    2  C   UNL     1      -8.387   7.776  73.176  1.00  0.00    -0.157 C  
HETATM    3  O   UNL     1      -8.071   8.890  72.783  1.00  0.00    -0.380 OA 
HETATM    4  C   UNL     1      -8.675   6.625  72.253  1.00  0.00    -0.132 C  
ENDROOT
BRANCH   4   5
HETATM    5  C   UNL     1     -10.155   6.540  71.923  1.00  0.00    -0.182 C  
BRANCH   5   6
HETATM    6  N   UNL     1     -10.667   7.754  71.321  1.00  0.00    -0.227 N  
HETATM    7  C   UNL     1     -10.489   8.027  69.979  1.00  0.00    -0.228 C  
HETATM    8  H   UNL     1     -11.173   8.423  71.903  1.00  0.00     0.000 HD 
HETATM    9  O   UNL     1      -9.913   7.266  69.210  1.00  0.00    -0.165 OA 
BRANCH   7  10
HETATM   10  C   UNL     1     -10.987   9.351  69.500  1.00  0.00    -0.193 A  
HETATM   11  C   UNL     1     -10.711   9.733  68.183  1.00  0.00    -0.280 A  
HETATM   12  C   UNL     1     -11.097  10.998  67.717  1.00  0.00    -0.356 A  
HETATM   13  C   UNL     1     -11.777  11.900  68.544  1.00  0.00    -0.330 A  
HETATM   14  C   UNL     1     -11.708  10.223  70.325  1.00  0.00    -0.388 A  
HETATM   15  C   UNL     1     -12.086  11.489  69.852  1.00  0.00    -0.389 A  
BRANCH  13  16
HETATM   16  N   UNL     1     -12.045  13.193  68.039  1.00  0.00    -0.280 NA 
HETATM   17  H   UNL     1     -12.049  13.419  67.044  1.00  0.00     0.000 HD 
BRANCH  16  18
HETATM   18  N   UNL     1     -12.275  14.029  68.938  1.00  0.00    -0.513 NA 
HETATM   19  H   UNL     1     -12.960  13.885  69.680  1.00  0.00     0.000 HD 
BRANCH  18  20
HETATM   20  C   UNL     1     -11.486  15.194  68.817  1.00  0.00    -0.319 A  
HETATM   21  C   UNL     1     -11.150  16.020  69.901  1.00  0.00    -0.352 A  
HETATM   22  C   UNL     1     -10.437  17.209  69.714  1.00  0.00     0.077 A  
HETATM   23  C   UNL     1     -10.061  17.593  68.427  1.00  0.00    -0.368 A  
HETATM   24  O   UNL     1      -9.385  18.773  68.251  1.00  0.00    -0.311 OA 
HETATM   25  C   UNL     1     -10.378  16.790  67.323  1.00  0.00    -0.304 A  
HETATM   26  C   UNL     1     -10.022  17.129  65.915  1.00  0.00    -0.194 C  
HETATM   27  C   UNL     1     -11.091  15.595  67.535  1.00  0.00    -0.289 A  
HETATM   28  H   UNL     1      -9.129  19.035  67.374  1.00  0.00     0.000 HD 
HETATM   29  O   UNL     1     -10.308  16.402  64.975  1.00  0.00    -0.615 OA 
HETATM   30  O   UNL     1      -9.369  18.298  65.745  1.00  0.00    -0.460 OA 
ENDBRANCH  18  20
ENDBRANCH  16  18
ENDBRANCH  13  16
ENDBRANCH   7  10
ENDBRANCH   5   6
ENDBRANCH   4   5
TORSDOF 6
ENDMDL
MODEL      121
REMARK 921   NORMALIZED FREE ENERGY PREDICTED BY IDOCK:   -5.53 KCAL/MOL
REMARK 922        TOTAL FREE ENERGY PREDICTED BY IDOCK:   -8.45 KCAL/MOL
REMARK 923 INTER-LIGAND FREE ENERGY PREDICTED BY IDOCK:   -7.55 KCAL/MOL
REMARK 924 INTRA-LIGAND FREE ENERGY PREDICTED BY IDOCK:   -0.90 KCAL/MOL
REMARK 927      BINDING AFFINITY PREDICTED BY RF-SCORE:    0.00 PKD
ROOT
HETATM    1  O   UNL     1     -12.809  14.475  73.532  1.00  0.00    -0.491 OA 
HETATM    2  C   UNL     1     -13.484  14.000  72.464  1.00  0.00    -0.558 C  
HETATM    3  O   UNL     1     -13.651  12.805  72.269  1.00  0.00    -0.556 OA 
HETATM    4  C   UNL     1     -14.009  15.069  71.545  1.00  0.00    -0.590 C  
ENDROOT
BRANCH   4   5
HETATM    5  C   UNL     1     -12.973  15.456  70.503  1.00  0.00    -0.332 C  
BRANCH   5   6
HETATM    6  N   UNL     1     -12.341  14.308  69.885  1.00  0.00    -0.395 N  
HETATM    7  C   UNL     1     -11.700  14.404  68.665  1.00  0.00    -0.332 C  
HETATM    8  H   UNL     1     -12.370  13.407  70.363  1.00  0.00     0.000 HD 
HETATM    9  O   UNL     1     -11.604  15.453  68.039  1.00  0.00    -0.344 OA 
BRANCH   7  10
HETATM   10  C   UNL     1     -11.166  13.131  68.096  1.00  0.00    -0.304 A  
HETATM   11  C   UNL     1     -10.564  13.164  66.833  1.00  0.00    -0.265 A  
HETATM   12  C   UNL     1     -10.116  11.981  66.231  1.00  0.00    -0.247 A  
HETATM   13  C   UNL     1     -10.243  10.744  66.877  1.00  0.00    -0.227 A  
HETATM   14  C   UNL     1     -11.257  11.911  68.774  1.00  0.00    -0.314 A  
HETATM   15  C   UNL     1     -10.810  10.729  68.162  1.00  0.00    -0.284 A  
BRANCH  13  16
HETATM   16  N   UNL     1      -9.861   9.582  66.168  1.00  0.00    -0.256 NA 
HETATM   17  H   UNL     1      -9.062   9.545  65.536  1.00  0.00     0.000 HD 
BRANCH  16  18
HETATM   18  N   UNL     1     -10.606   8.606  66.398  1.00  0.00    -0.167 NA 
HETATM   19  H   UNL     1     -11.598   8.586  66.164  1.00  0.00     0.000 HD 
BRANCH  18  20
HETATM   20  C   UNL     1      -9.927   7.533  67.017  1.00  0.00    -0.234 A  
HETATM   21  C   UNL     1      -8.833   6.870  66.440  1.00  0.00    -0.155 A  
HETATM   22  C   UNL     1      -8.251   5.757  67.058  1.00  0.00    -0.101 A  
HETATM   23  C   UNL     1      -8.770   5.286  68.264  1.00  0.00    -0.101 A  
HETATM   24  O   UNL     1      -8.210   4.180  68.848  1.00  0.00    -0.071 OA 
HETATM   25  C   UNL     1      -9.860   5.928  68.868  1.00  0.00    -0.183 A  
HETATM   26  C   UNL     1     -10.482   5.486  70.149  1.00  0.00    -0.300 C  
HETATM   27  C   UNL     1     -10.427   7.048  68.231  1.00  0.00    -0.237 A  
HETATM   28  H   UNL     1      -8.564   3.859  69.669  1.00  0.00     0.000 HD 
HETATM   29  O   UNL     1     -11.428   6.073  70.654  1.00  0.00    -0.299 OA 
HETATM   30  O   UNL     1      -9.936   4.389  70.715  1.00  0.00    -0.204 OA 
ENDBRANCH  18  20
ENDBRANCH  16  18
ENDBRANCH  13  16
ENDBRANCH   7  10
ENDBRANCH   5   6
ENDBRANCH   4   5
TORSDOF 6
ENDMDL
MODEL      122
REMARK 921   NORMALIZED FREE ENERGY PREDICTED BY IDOCK:   -5.52 KCAL/MOL
REMARK 922        TOTAL FREE ENERGY PREDICTED BY IDOCK:   -8.44 KCAL/MOL
REMARK 923 INTER-LIGAND FREE ENERGY PREDICTED BY IDOCK:   -7.78 KCAL/MOL
REMARK 924 INTRA-LIGAND FREE ENERGY PREDICTED BY IDOCK:   -0.66 KCAL/MOL
REMARK 927      BINDING AFFINITY PREDICTED BY RF-SCORE:    0.00 PKD
ROOT
HETATM    1  O   UNL     1     -13.703  16.626  73.522  1.00  0.00    -0.278 OA 
HETATM    2  C   UNL     1     -12.720  15.806  73.091  1.00  0.00    -0.507 C  
HETATM    3  O   UNL     1     -11.696  16.223  72.570  1.00  0.00    -0.501 OA 
HETATM    4  C   UNL     1     -12.999  14.344  73.312  1.00  0.00    -0.406 C  
ENDROOT
BRANCH   4   5
HETATM    5  C   UNL     1     -13.772  13.750  72.147  1.00  0.00    -0.540 C  
BRANCH   5   6
HETATM    6  N   UNL     1     -13.141  14.000  70.868  1.00  0.00    -0.275 N  
HETATM    7  C   UNL     1     -12.374  13.038  70.238  1.00  0.00    -0.241 C  
HETATM    8  H   UNL     1     -13.266  14.908  70.420  1.00  0.00     0.000 HD 
HETATM    9  O   UNL     1     -12.192  11.917  70.700  1.00  0.00    -0.371 OA 
BRANCH   7  10
HETATM   10  C   UNL     1     -11.707  13.450  68.968  1.00  0.00    -0.368 A  
HETATM   11  C   UNL     1     -12.383  14.326  68.111  1.00  0.00    -0.005 A  
HETATM   12  C   UNL     1     -11.824  14.679  66.875  1.00  0.00    -0.345 A  
HETATM   13  C   UNL     1     -10.578  14.181  66.472  1.00  0.00    -0.282 A  
HETATM   14  C   UNL     1     -10.440  12.980  68.600  1.00  0.00    -0.236 A  
HETATM   15  C   UNL     1      -9.891  13.335  67.359  1.00  0.00    -0.227 A  
BRANCH  13  16
HETATM   16  N   UNL     1     -10.125  14.500  65.172  1.00  0.00    -0.479 NA 
HETATM   17  H   UNL     1      -9.869  13.798  64.476  1.00  0.00     0.000 HD 
BRANCH  16  18
HETATM   18  N   UNL     1     -10.070  15.730  64.964  1.00  0.00    -0.411 NA 
HETATM   19  H   UNL     1     -10.568  16.197  64.205  1.00  0.00     0.000 HD 
BRANCH  18  20
HETATM   20  C   UNL     1      -9.244  16.406  65.890  1.00  0.00    -0.199 A  
HETATM   21  C   UNL     1      -7.948  15.987  66.225  1.00  0.00    -0.049 A  
HETATM   22  C   UNL     1      -7.205  16.646  67.212  1.00  0.00    -0.199 A  
HETATM   23  C   UNL     1      -7.763  17.731  67.887  1.00  0.00    -0.225 A  
HETATM   24  O   UNL     1      -7.037  18.353  68.870  1.00  0.00    -0.275 OA 
HETATM   25  C   UNL     1      -9.054  18.178  67.573  1.00  0.00    -0.254 A  
HETATM   26  C   UNL     1      -9.728  19.323  68.250  1.00  0.00    -0.385 C  
HETATM   27  C   UNL     1      -9.781  17.504  66.574  1.00  0.00    -0.302 A  
HETATM   28  H   UNL     1      -7.417  19.093  69.330  1.00  0.00     0.000 HD 
HETATM   29  O   UNL     1     -10.853  19.692  67.947  1.00  0.00    -0.359 OA 
HETATM   30  O   UNL     1      -9.015  19.924  69.226  1.00  0.00    -0.062 OA 
ENDBRANCH  18  20
ENDBRANCH  16  18
ENDBRANCH  13  16
ENDBRANCH   7  10
ENDBRANCH   5   6
ENDBRANCH   4   5
TORSDOF 6
ENDMDL
MODEL      123
REMARK 921   NORMALIZED FREE ENERGY PREDICTED BY IDOCK:   -5.49 KCAL/MOL
REMARK 922        TOTAL FREE ENERGY PREDICTED BY IDOCK:   -8.41 KCAL/MOL
REMARK 923 INTER-LIGAND FREE ENERGY PREDICTED BY IDOCK:   -8.16 KCAL/MOL
REMARK 924 INTRA-LIGAND FREE ENERGY PREDICTED BY IDOCK:   -0.24 KCAL/MOL
REMARK 927      BINDING AFFINITY PREDICTED BY RF-SCORE:    0.00 PKD
ROOT
HETATM    1  O   UNL     1     -10.253  16.666  65.528  1.00  0.00    -0.550 OA 
HETATM    2  C   UNL     1     -11.116  15.953  64.773  1.00  0.00    -0.384 C  
HETATM    3  O   UNL     1     -11.725  16.442  63.831  1.00  0.00    -1.085 OA 
HETATM    4  C   UNL     1     -11.257  14.516  65.191  1.00  0.00    -0.367 C  
ENDROOT
BRANCH   4   5
HETATM    5  C   UNL     1     -12.324  14.355  66.259  1.00  0.00    -0.301 C  
BRANCH   5   6
HETATM    6  N   UNL     1     -11.897  13.513  67.358  1.00  0.00    -0.376 N  
HETATM    7  C   UNL     1     -11.645  12.166  67.182  1.00  0.00    -0.335 C  
HETATM    8  H   UNL     1     -11.780  13.925  68.284  1.00  0.00     0.000 HD 
HETATM    9  O   UNL     1     -11.742  11.601  66.099  1.00  0.00    -0.415 OA 
BRANCH   7  10
HETATM   10  C   UNL     1     -11.296  11.392  68.410  1.00  0.00    -0.346 A  
HETATM   11  C   UNL     1      -9.975  10.961  68.577  1.00  0.00    -0.188 A  
HETATM   12  C   UNL     1      -9.622  10.170  69.679  1.00  0.00    -0.237 A  
HETATM   13  C   UNL     1     -10.570   9.803  70.643  1.00  0.00    -0.313 A  
HETATM   14  C   UNL     1     -12.244  11.073  69.389  1.00  0.00    -0.329 A  
HETATM   15  C   UNL     1     -11.883  10.275  70.486  1.00  0.00    -0.419 A  
BRANCH  13  16
HETATM   16  N   UNL     1     -10.164   8.921  71.670  1.00  0.00    -0.319 NA 
HETATM   17  H   UNL     1      -9.320   9.054  72.227  1.00  0.00     0.000 HD 
BRANCH  16  18
HETATM   18  N   UNL     1     -10.949   7.962  71.825  1.00  0.00    -0.236 NA 
HETATM   19  H   UNL     1     -11.785   8.005  72.408  1.00  0.00     0.000 HD 
BRANCH  18  20
HETATM   20  C   UNL     1     -10.555   6.810  71.108  1.00  0.00    -0.224 A  
HETATM   21  C   UNL     1     -10.490   6.752  69.707  1.00  0.00    -0.240 A  
HETATM   22  C   UNL     1     -10.176   5.560  69.044  1.00  0.00    -0.298 A  
HETATM   23  C   UNL     1      -9.934   4.402  69.782  1.00  0.00    -0.154 A  
HETATM   24  O   UNL     1      -9.653   3.234  69.123  1.00  0.00    -0.157 OA 
HETATM   25  C   UNL     1      -9.988   4.427  71.182  1.00  0.00    -0.243 A  
HETATM   26  C   UNL     1      -9.752   3.235  72.047  1.00  0.00    -0.165 C  
HETATM   27  C   UNL     1     -10.301   5.637  71.829  1.00  0.00    -0.268 A  
HETATM   28  H   UNL     1      -9.488   2.444  69.626  1.00  0.00     0.000 HD 
HETATM   29  O   UNL     1      -9.799   3.292  73.267  1.00  0.00    -0.104 OA 
HETATM   30  O   UNL     1      -9.488   2.084  71.393  1.00  0.00    -0.109 OA 
ENDBRANCH  18  20
ENDBRANCH  16  18
ENDBRANCH  13  16
ENDBRANCH   7  10
ENDBRANCH   5   6
ENDBRANCH   4   5
TORSDOF 6
ENDMDL
MODEL      124
REMARK 921   NORMALIZED FREE ENERGY PREDICTED BY IDOCK:   -5.49 KCAL/MOL
REMARK 922        TOTAL FREE ENERGY PREDICTED BY IDOCK:   -8.40 KCAL/MOL
REMARK 923 INTER-LIGAND FREE ENERGY PREDICTED BY IDOCK:   -7.72 KCAL/MOL
REMARK 924 INTRA-LIGAND FREE ENERGY PREDICTED BY IDOCK:   -0.68 KCAL/MOL
REMARK 927      BINDING AFFINITY PREDICTED BY RF-SCORE:    0.00 PKD
ROOT
HETATM    1  O   UNL     1     -10.758  19.241  66.878  1.00  0.00    -0.443 OA 
HETATM    2  C   UNL     1     -10.643  18.050  66.253  1.00  0.00    -0.253 C  
HETATM    3  O   UNL     1     -10.980  17.882  65.089  1.00  0.00    -0.642 OA 
HETATM    4  C   UNL     1     -10.067  16.958  67.112  1.00  0.00    -0.287 C  
ENDROOT
BRANCH   4   5
HETATM    5  C   UNL     1     -11.152  16.247  67.901  1.00  0.00    -0.270 C  
BRANCH   5   6
HETATM    6  N   UNL     1     -10.871  14.840  68.101  1.00  0.00    -0.248 N  
HETATM    7  C   UNL     1     -11.428  13.868  67.293  1.00  0.00    -0.344 C  
HETATM    8  H   UNL     1     -10.245  14.561  68.857  1.00  0.00     0.000 HD 
HETATM    9  O   UNL     1     -12.172  14.123  66.352  1.00  0.00    -0.444 OA 
BRANCH   7  10
HETATM   10  C   UNL     1     -11.129  12.452  67.657  1.00  0.00    -0.306 A  
HETATM   11  C   UNL     1     -11.021  12.118  69.012  1.00  0.00    -0.255 A  
HETATM   12  C   UNL     1     -10.669  10.816  69.395  1.00  0.00    -0.272 A  
HETATM   13  C   UNL     1     -10.431   9.818  68.441  1.00  0.00    -0.218 A  
HETATM   14  C   UNL     1     -10.940  11.454  66.694  1.00  0.00    -0.341 A  
HETATM   15  C   UNL     1     -10.583  10.155  67.086  1.00  0.00    -0.308 A  
BRANCH  13  16
HETATM   16  N   UNL     1      -9.982   8.558  68.897  1.00  0.00    -0.185 NA 
HETATM   17  H   UNL     1      -9.041   8.390  69.254  1.00  0.00     0.000 HD 
BRANCH  16  18
HETATM   18  N   UNL     1     -10.858   7.671  68.817  1.00  0.00    -0.413 NA 
HETATM   19  H   UNL     1     -11.352   7.442  67.955  1.00  0.00     0.000 HD 
BRANCH  18  20
HETATM   20  C   UNL     1     -11.093   7.020  70.049  1.00  0.00    -0.278 A  
HETATM   21  C   UNL     1     -11.906   7.548  71.064  1.00  0.00    -0.319 A  
HETATM   22  C   UNL     1     -12.036   6.901  72.298  1.00  0.00    -0.212 A  
HETATM   23  C   UNL     1     -11.340   5.717  72.535  1.00  0.00    -0.294 A  
HETATM   24  O   UNL     1     -11.454   5.105  73.756  1.00  0.00    -0.427 OA 
HETATM   25  C   UNL     1     -10.523   5.161  71.541  1.00  0.00    -0.256 A  
HETATM   26  C   UNL     1      -9.737   3.905  71.713  1.00  0.00    -0.173 C  
HETATM   27  C   UNL     1     -10.409   5.826  70.305  1.00  0.00    -0.319 A  
HETATM   28  H   UNL     1     -10.979   4.298  73.918  1.00  0.00     0.000 HD 
HETATM   29  O   UNL     1      -9.039   3.443  70.822  1.00  0.00    -0.090 OA 
HETATM   30  O   UNL     1      -9.842   3.313  72.922  1.00  0.00    -0.121 OA 
ENDBRANCH  18  20
ENDBRANCH  16  18
ENDBRANCH  13  16
ENDBRANCH   7  10
ENDBRANCH   5   6
ENDBRANCH   4   5
TORSDOF 6
ENDMDL
MODEL      125
REMARK 921   NORMALIZED FREE ENERGY PREDICTED BY IDOCK:   -5.48 KCAL/MOL
REMARK 922        TOTAL FREE ENERGY PREDICTED BY IDOCK:   -8.39 KCAL/MOL
REMARK 923 INTER-LIGAND FREE ENERGY PREDICTED BY IDOCK:   -7.19 KCAL/MOL
REMARK 924 INTRA-LIGAND FREE ENERGY PREDICTED BY IDOCK:   -1.20 KCAL/MOL
REMARK 927      BINDING AFFINITY PREDICTED BY RF-SCORE:    0.00 PKD
ROOT
HETATM    1  O   UNL     1     -10.340  14.814  65.564  1.00  0.00    -0.315 OA 
HETATM    2  C   UNL     1     -11.654  14.511  65.507  1.00  0.00    -0.350 C  
HETATM    3  O   UNL     1     -12.317  14.267  66.505  1.00  0.00    -0.445 OA 
HETATM    4  C   UNL     1     -12.223  14.502  64.114  1.00  0.00    -0.372 C  
ENDROOT
BRANCH   4   5
HETATM    5  C   UNL     1     -12.055  13.142  63.460  1.00  0.00    -0.514 C  
BRANCH   5   6
HETATM    6  N   UNL     1     -11.522  12.144  64.365  1.00  0.00    -0.336 N  
HETATM    7  C   UNL     1     -10.370  11.441  64.071  1.00  0.00    -0.362 C  
HETATM    8  H   UNL     1     -12.008  11.957  65.242  1.00  0.00     0.000 HD 
HETATM    9  O   UNL     1      -9.716  11.622  63.049  1.00  0.00    -0.396 OA 
BRANCH   7  10
HETATM   10  C   UNL     1      -9.973  10.381  65.044  1.00  0.00    -0.399 A  
HETATM   11  C   UNL     1     -10.425  10.482  66.365  1.00  0.00    -0.258 A  
HETATM   12  C   UNL     1     -10.017   9.548  67.326  1.00  0.00    -0.244 A  
HETATM   13  C   UNL     1      -9.164   8.488  66.993  1.00  0.00    -0.152 A  
HETATM   14  C   UNL     1      -9.159   9.301  64.685  1.00  0.00    -0.177 A  
HETATM   15  C   UNL     1      -8.750   8.373  65.656  1.00  0.00    -0.204 A  
BRANCH  13  16
HETATM   16  N   UNL     1      -8.713   7.646  68.035  1.00  0.00    -0.126 NA 
HETATM   17  H   UNL     1      -7.842   7.795  68.544  1.00  0.00     0.000 HD 
BRANCH  16  18
HETATM   18  N   UNL     1      -9.495   6.700  68.268  1.00  0.00    -0.125 NA 
HETATM   19  H   UNL     1      -9.760   6.002  67.572  1.00  0.00     0.000 HD 
BRANCH  18  20
HETATM   20  C   UNL     1      -9.975   6.699  69.597  1.00  0.00    -0.175 A  
HETATM   21  C   UNL     1     -11.337   6.667  69.931  1.00  0.00    -0.422 A  
HETATM   22  C   UNL     1     -11.760   6.754  71.262  1.00  0.00    -0.384 A  
HETATM   23  C   UNL     1     -10.816   6.887  72.279  1.00  0.00    -0.230 A  
HETATM   24  O   UNL     1     -11.242   6.998  73.578  1.00  0.00    -0.537 OA 
HETATM   25  C   UNL     1      -9.447   6.918  71.980  1.00  0.00    -0.147 A  
HETATM   26  C   UNL     1      -8.373   7.067  73.004  1.00  0.00    -0.106 C  
HETATM   27  C   UNL     1      -9.044   6.825  70.635  1.00  0.00    -0.155 A  
HETATM   28  H   UNL     1     -10.598   7.089  74.271  1.00  0.00     0.000 HD 
HETATM   29  O   UNL     1      -7.187   7.083  72.710  1.00  0.00    -0.073 OA 
HETATM   30  O   UNL     1      -8.797   7.188  74.280  1.00  0.00    -0.187 OA 
ENDBRANCH  18  20
ENDBRANCH  16  18
ENDBRANCH  13  16
ENDBRANCH   7  10
ENDBRANCH   5   6
ENDBRANCH   4   5
TORSDOF 6
ENDMDL
MODEL      126
REMARK 921   NORMALIZED FREE ENERGY PREDICTED BY IDOCK:   -5.47 KCAL/MOL
REMARK 922        TOTAL FREE ENERGY PREDICTED BY IDOCK:   -8.38 KCAL/MOL
REMARK 923 INTER-LIGAND FREE ENERGY PREDICTED BY IDOCK:   -7.41 KCAL/MOL
REMARK 924 INTRA-LIGAND FREE ENERGY PREDICTED BY IDOCK:   -0.97 KCAL/MOL
REMARK 927      BINDING AFFINITY PREDICTED BY RF-SCORE:    0.00 PKD
ROOT
HETATM    1  O   UNL     1      -8.095  11.460  62.353  1.00  0.00    -0.147 OA 
HETATM    2  C   UNL     1      -9.151  10.807  62.883  1.00  0.00    -0.297 C  
HETATM    3  O   UNL     1     -10.276  11.287  62.908  1.00  0.00    -0.265 OA 
HETATM    4  C   UNL     1      -8.820   9.448  63.435  1.00  0.00    -0.199 C  
ENDROOT
BRANCH   4   5
HETATM    5  C   UNL     1      -8.365   9.536  64.881  1.00  0.00    -0.146 C  
BRANCH   5   6
HETATM    6  N   UNL     1      -8.922  10.679  65.576  1.00  0.00    -0.184 N  
HETATM    7  C   UNL     1     -10.035  10.563  66.386  1.00  0.00    -0.218 C  
HETATM    8  H   UNL     1      -8.481  11.592  65.465  1.00  0.00     0.000 HD 
HETATM    9  O   UNL     1     -10.610   9.498  66.587  1.00  0.00    -0.195 OA 
BRANCH   7  10
HETATM   10  C   UNL     1     -10.562  11.829  66.975  1.00  0.00    -0.267 A  
HETATM   11  C   UNL     1     -10.826  11.869  68.349  1.00  0.00    -0.263 A  
HETATM   12  C   UNL     1     -11.389  13.014  68.929  1.00  0.00    -0.333 A  
HETATM   13  C   UNL     1     -11.688  14.146  68.159  1.00  0.00    -0.355 A  
HETATM   14  C   UNL     1     -10.811  12.969  66.201  1.00  0.00    -0.296 A  
HETATM   15  C   UNL     1     -11.380  14.109  66.789  1.00  0.00    -0.353 A  
BRANCH  13  16
HETATM   16  N   UNL     1     -12.347  15.224  68.793  1.00  0.00    -0.585 NA 
HETATM   17  H   UNL     1     -13.307  15.499  68.583  1.00  0.00     0.000 HD 
BRANCH  16  18
HETATM   18  N   UNL     1     -11.631  15.804  69.636  1.00  0.00    -0.342 NA 
HETATM   19  H   UNL     1     -11.855  15.851  70.630  1.00  0.00     0.000 HD 
BRANCH  18  20
HETATM   20  C   UNL     1     -10.478  16.388  69.067  1.00  0.00    -0.288 A  
HETATM   21  C   UNL     1      -9.171  15.961  69.348  1.00  0.00    -0.235 A  
HETATM   22  C   UNL     1      -8.060  16.630  68.823  1.00  0.00    -0.247 A  
HETATM   23  C   UNL     1      -8.247  17.750  68.013  1.00  0.00    -0.248 A  
HETATM   24  O   UNL     1      -7.152  18.414  67.524  1.00  0.00    -0.202 OA 
HETATM   25  C   UNL     1      -9.539  18.200  67.709  1.00  0.00    -0.286 A  
HETATM   26  C   UNL     1      -9.829  19.392  66.861  1.00  0.00    -0.352 C  
HETATM   27  C   UNL     1     -10.643  17.509  68.245  1.00  0.00    -0.354 A  
HETATM   28  H   UNL     1      -7.280  19.177  66.973  1.00  0.00     0.000 HD 
HETATM   29  O   UNL     1     -10.969  19.754  66.609  1.00  0.00    -0.417 OA 
HETATM   30  O   UNL     1      -8.747  20.051  66.392  1.00  0.00    -0.334 OA 
ENDBRANCH  18  20
ENDBRANCH  16  18
ENDBRANCH  13  16
ENDBRANCH   7  10
ENDBRANCH   5   6
ENDBRANCH   4   5
TORSDOF 6
ENDMDL
MODEL      127
REMARK 921   NORMALIZED FREE ENERGY PREDICTED BY IDOCK:   -5.46 KCAL/MOL
REMARK 922        TOTAL FREE ENERGY PREDICTED BY IDOCK:   -8.37 KCAL/MOL
REMARK 923 INTER-LIGAND FREE ENERGY PREDICTED BY IDOCK:   -7.20 KCAL/MOL
REMARK 924 INTRA-LIGAND FREE ENERGY PREDICTED BY IDOCK:   -1.16 KCAL/MOL
REMARK 927      BINDING AFFINITY PREDICTED BY RF-SCORE:    0.00 PKD
ROOT
HETATM    1  O   UNL     1     -13.430  13.740  72.437  1.00  0.00    -0.479 OA 
HETATM    2  C   UNL     1     -13.431  15.084  72.311  1.00  0.00    -0.419 C  
HETATM    3  O   UNL     1     -14.407  15.708  71.919  1.00  0.00    -0.466 OA 
HETATM    4  C   UNL     1     -12.132  15.737  72.694  1.00  0.00    -0.591 C  
ENDROOT
BRANCH   4   5
HETATM    5  C   UNL     1     -11.176  15.797  71.515  1.00  0.00    -0.244 C  
BRANCH   5   6
HETATM    6  N   UNL     1     -11.082  14.539  70.804  1.00  0.00    -0.492 N  
HETATM    7  C   UNL     1     -11.509  14.412  69.496  1.00  0.00    -0.288 C  
HETATM    8  H   UNL     1     -10.690  13.726  71.280  1.00  0.00     0.000 HD 
HETATM    9  O   UNL     1     -11.972  15.345  68.848  1.00  0.00    -0.336 OA 
BRANCH   7  10
HETATM   10  C   UNL     1     -11.439  13.043  68.905  1.00  0.00    -0.345 A  
HETATM   11  C   UNL     1     -11.738  11.946  69.722  1.00  0.00    -0.403 A  
HETATM   12  C   UNL     1     -11.614  10.641  69.227  1.00  0.00    -0.346 A  
HETATM   13  C   UNL     1     -11.204  10.399  67.909  1.00  0.00    -0.263 A  
HETATM   14  C   UNL     1     -11.074  12.820  67.572  1.00  0.00    -0.300 A  
HETATM   15  C   UNL     1     -10.947  11.509  67.087  1.00  0.00    -0.338 A  
BRANCH  13  16
HETATM   16  N   UNL     1     -11.003   9.057  67.512  1.00  0.00    -0.447 NA 
HETATM   17  H   UNL     1     -11.748   8.360  67.483  1.00  0.00     0.000 HD 
BRANCH  16  18
HETATM   18  N   UNL     1      -9.819   8.815  67.199  1.00  0.00    -0.188 NA 
HETATM   19  H   UNL     1      -9.443   8.953  66.260  1.00  0.00     0.000 HD 
BRANCH  18  20
HETATM   20  C   UNL     1      -9.054   8.328  68.283  1.00  0.00    -0.135 A  
HETATM   21  C   UNL     1      -7.799   8.844  68.641  1.00  0.00    -0.102 A  
HETATM   22  C   UNL     1      -7.046   8.269  69.671  1.00  0.00    -0.056 A  
HETATM   23  C   UNL     1      -7.540   7.156  70.349  1.00  0.00    -0.089 A  
HETATM   24  O   UNL     1      -6.783   6.584  71.339  1.00  0.00    -0.056 OA 
HETATM   25  C   UNL     1      -8.791   6.618  70.019  1.00  0.00    -0.141 A  
HETATM   26  C   UNL     1      -9.390   5.426  70.686  1.00  0.00    -0.162 C  
HETATM   27  C   UNL     1      -9.535   7.215  68.983  1.00  0.00    -0.143 A  
HETATM   28  H   UNL     1      -7.120   5.824  71.801  1.00  0.00     0.000 HD 
HETATM   29  O   UNL     1     -10.489   4.987  70.378  1.00  0.00    -0.249 OA 
HETATM   30  O   UNL     1      -8.636   4.858  71.650  1.00  0.00    -0.122 OA 
ENDBRANCH  18  20
ENDBRANCH  16  18
ENDBRANCH  13  16
ENDBRANCH   7  10
ENDBRANCH   5   6
ENDBRANCH   4   5
TORSDOF 6
ENDMDL
MODEL      128
REMARK 921   NORMALIZED FREE ENERGY PREDICTED BY IDOCK:   -5.45 KCAL/MOL
REMARK 922        TOTAL FREE ENERGY PREDICTED BY IDOCK:   -8.35 KCAL/MOL
REMARK 923 INTER-LIGAND FREE ENERGY PREDICTED BY IDOCK:   -7.59 KCAL/MOL
REMARK 924 INTRA-LIGAND FREE ENERGY PREDICTED BY IDOCK:   -0.76 KCAL/MOL
REMARK 927      BINDING AFFINITY PREDICTED BY RF-SCORE:    0.00 PKD
ROOT
HETATM    1  O   UNL     1      -9.042   6.126  73.346  1.00  0.00    -0.132 OA 
HETATM    2  C   UNL     1      -9.806   7.224  73.163  1.00  0.00    -0.235 C  
HETATM    3  O   UNL     1     -11.014   7.224  73.353  1.00  0.00    -0.358 OA 
HETATM    4  C   UNL     1      -9.040   8.436  72.709  1.00  0.00    -0.299 C  
ENDROOT
BRANCH   4   5
HETATM    5  C   UNL     1      -8.919   8.476  71.196  1.00  0.00    -0.186 C  
BRANCH   5   6
HETATM    6  N   UNL     1      -9.586   9.621  70.609  1.00  0.00    -0.322 N  
HETATM    7  C   UNL     1     -10.442   9.488  69.533  1.00  0.00    -0.220 C  
HETATM    8  H   UNL     1      -9.420  10.548  71.001  1.00  0.00     0.000 HD 
HETATM    9  O   UNL     1     -10.710   8.407  69.019  1.00  0.00    -0.185 OA 
BRANCH   7  10
HETATM   10  C   UNL     1     -10.997  10.752  68.967  1.00  0.00    -0.289 A  
HETATM   11  C   UNL     1     -11.160  10.850  67.580  1.00  0.00    -0.376 A  
HETATM   12  C   UNL     1     -11.609  12.046  67.002  1.00  0.00    -0.387 A  
HETATM   13  C   UNL     1     -11.918  13.162  67.790  1.00  0.00    -0.307 A  
HETATM   14  C   UNL     1     -11.346  11.843  69.771  1.00  0.00    -0.223 A  
HETATM   15  C   UNL     1     -11.790  13.038  69.184  1.00  0.00    -0.360 A  
BRANCH  13  16
HETATM   16  N   UNL     1     -12.267  14.363  67.132  1.00  0.00    -0.584 NA 
HETATM   17  H   UNL     1     -13.112  14.895  67.340  1.00  0.00     0.000 HD 
BRANCH  16  18
HETATM   18  N   UNL     1     -11.431  14.706  66.270  1.00  0.00    -0.359 NA 
HETATM   19  H   UNL     1     -11.532  14.505  65.275  1.00  0.00     0.000 HD 
BRANCH  18  20
HETATM   20  C   UNL     1     -10.330  15.400  66.819  1.00  0.00    -0.279 A  
HETATM   21  C   UNL     1      -9.083  14.806  67.068  1.00  0.00    -0.257 A  
HETATM   22  C   UNL     1      -8.052  15.517  67.692  1.00  0.00    -0.162 A  
HETATM   23  C   UNL     1      -8.265  16.837  68.088  1.00  0.00    -0.199 A  
HETATM   24  O   UNL     1      -7.257  17.518  68.722  1.00  0.00    -0.239 OA 
HETATM   25  C   UNL     1      -9.497  17.461  67.851  1.00  0.00    -0.265 A  
HETATM   26  C   UNL     1      -9.812  18.864  68.248  1.00  0.00    -0.374 C  
HETATM   27  C   UNL     1     -10.519  16.729  67.217  1.00  0.00    -0.310 A  
HETATM   28  H   UNL     1      -7.403  18.417  68.992  1.00  0.00     0.000 HD 
HETATM   29  O   UNL     1     -10.896  19.381  68.019  1.00  0.00    -0.327 OA 
HETATM   30  O   UNL     1      -8.822  19.526  68.884  1.00  0.00    -0.355 OA 
ENDBRANCH  18  20
ENDBRANCH  16  18
ENDBRANCH  13  16
ENDBRANCH   7  10
ENDBRANCH   5   6
ENDBRANCH   4   5
TORSDOF 6
ENDMDL
MODEL      129
REMARK 921   NORMALIZED FREE ENERGY PREDICTED BY IDOCK:   -5.45 KCAL/MOL
REMARK 922        TOTAL FREE ENERGY PREDICTED BY IDOCK:   -8.35 KCAL/MOL
REMARK 923 INTER-LIGAND FREE ENERGY PREDICTED BY IDOCK:   -7.60 KCAL/MOL
REMARK 924 INTRA-LIGAND FREE ENERGY PREDICTED BY IDOCK:   -0.75 KCAL/MOL
REMARK 927      BINDING AFFINITY PREDICTED BY RF-SCORE:    0.00 PKD
ROOT
HETATM    1  O   UNL     1     -13.627  16.318  73.792  1.00  0.00    -0.556 OA 
HETATM    2  C   UNL     1     -12.601  15.996  72.977  1.00  0.00    -0.503 C  
HETATM    3  O   UNL     1     -11.681  16.767  72.741  1.00  0.00    -0.427 OA 
HETATM    4  C   UNL     1     -12.692  14.615  72.390  1.00  0.00    -0.429 C  
ENDROOT
BRANCH   4   5
HETATM    5  C   UNL     1     -13.493  14.615  71.100  1.00  0.00    -0.366 C  
BRANCH   5   6
HETATM    6  N   UNL     1     -12.765  14.043  69.986  1.00  0.00    -0.362 N  
HETATM    7  C   UNL     1     -12.012  14.827  69.134  1.00  0.00    -0.282 C  
HETATM    8  H   UNL     1     -12.810  13.036  69.827  1.00  0.00     0.000 HD 
HETATM    9  O   UNL     1     -11.892  16.040  69.269  1.00  0.00    -0.345 OA 
BRANCH   7  10
HETATM   10  C   UNL     1     -11.382  14.129  67.974  1.00  0.00    -0.324 A  
HETATM   11  C   UNL     1     -11.823  12.842  67.648  1.00  0.00    -0.396 A  
HETATM   12  C   UNL     1     -11.208  12.123  66.614  1.00  0.00    -0.375 A  
HETATM   13  C   UNL     1     -10.153  12.674  65.874  1.00  0.00    -0.264 A  
HETATM   14  C   UNL     1     -10.361  14.712  67.214  1.00  0.00    -0.256 A  
HETATM   15  C   UNL     1      -9.747  13.983  66.184  1.00  0.00    -0.300 A  
BRANCH  13  16
HETATM   16  N   UNL     1      -9.515  11.854  64.915  1.00  0.00    -0.438 NA 
HETATM   17  H   UNL     1      -9.896  11.673  63.986  1.00  0.00     0.000 HD 
BRANCH  16  18
HETATM   18  N   UNL     1      -8.437  11.376  65.325  1.00  0.00    -0.371 NA 
HETATM   19  H   UNL     1      -7.655  11.944  65.651  1.00  0.00     0.000 HD 
BRANCH  18  20
HETATM   20  C   UNL     1      -8.415   9.964  65.288  1.00  0.00    -0.150 A  
HETATM   21  C   UNL     1      -7.735   9.223  64.309  1.00  0.00    -0.119 A  
HETATM   22  C   UNL     1      -7.816   7.826  64.270  1.00  0.00    -0.138 A  
HETATM   23  C   UNL     1      -8.594   7.153  65.211  1.00  0.00     0.014 A  
HETATM   24  O   UNL     1      -8.688   5.787  65.149  1.00  0.00    -0.235 OA 
HETATM   25  C   UNL     1      -9.283   7.863  66.204  1.00  0.00    -0.208 A  
HETATM   26  C   UNL     1     -10.142   7.224  67.242  1.00  0.00    -0.225 C  
HETATM   27  C   UNL     1      -9.184   9.267  66.228  1.00  0.00    -0.236 A  
HETATM   28  H   UNL     1      -9.219   5.328  65.790  1.00  0.00     0.000 HD 
HETATM   29  O   UNL     1     -10.724   7.872  68.100  1.00  0.00    -0.152 OA 
HETATM   30  O   UNL     1     -10.243   5.879  67.169  1.00  0.00    -0.157 OA 
ENDBRANCH  18  20
ENDBRANCH  16  18
ENDBRANCH  13  16
ENDBRANCH   7  10
ENDBRANCH   5   6
ENDBRANCH   4   5
TORSDOF 6
ENDMDL
MODEL      130
REMARK 921   NORMALIZED FREE ENERGY PREDICTED BY IDOCK:   -5.44 KCAL/MOL
REMARK 922        TOTAL FREE ENERGY PREDICTED BY IDOCK:   -8.34 KCAL/MOL
REMARK 923 INTER-LIGAND FREE ENERGY PREDICTED BY IDOCK:   -7.12 KCAL/MOL
REMARK 924 INTRA-LIGAND FREE ENERGY PREDICTED BY IDOCK:   -1.22 KCAL/MOL
REMARK 927      BINDING AFFINITY PREDICTED BY RF-SCORE:    0.00 PKD
ROOT
HETATM    1  O   UNL     1     -12.970   7.323  71.344  1.00  0.00    -0.371 OA 
HETATM    2  C   UNL     1     -11.888   7.263  72.149  1.00  0.00    -0.286 C  
HETATM    3  O   UNL     1     -11.368   8.261  72.629  1.00  0.00    -0.390 OA 
HETATM    4  C   UNL     1     -11.385   5.868  72.399  1.00  0.00    -0.358 C  
ENDROOT
BRANCH   4   5
HETATM    5  C   UNL     1     -10.400   5.436  71.327  1.00  0.00    -0.228 C  
BRANCH   5   6
HETATM    6  N   UNL     1     -10.368   6.343  70.197  1.00  0.00    -0.190 N  
HETATM    7  C   UNL     1      -9.288   7.173  69.965  1.00  0.00    -0.154 C  
HETATM    8  H   UNL     1     -11.161   6.369  69.556  1.00  0.00     0.000 HD 
HETATM    9  O   UNL     1      -8.288   7.187  70.675  1.00  0.00    -0.123 OA 
BRANCH   7  10
HETATM   10  C   UNL     1      -9.414   8.121  68.819  1.00  0.00    -0.148 A  
HETATM   11  C   UNL     1     -10.383   7.864  67.842  1.00  0.00    -0.281 A  
HETATM   12  C   UNL     1     -10.485   8.688  66.713  1.00  0.00    -0.298 A  
HETATM   13  C   UNL     1      -9.639   9.791  66.539  1.00  0.00    -0.194 A  
HETATM   14  C   UNL     1      -8.592   9.246  68.683  1.00  0.00    -0.127 A  
HETATM   15  C   UNL     1      -8.699  10.062  67.547  1.00  0.00    -0.125 A  
BRANCH  13  16
HETATM   16  N   UNL     1      -9.733  10.515  65.329  1.00  0.00    -0.247 NA 
HETATM   17  H   UNL     1      -8.960  10.617  64.671  1.00  0.00     0.000 HD 
BRANCH  16  18
HETATM   18  N   UNL     1     -10.862  11.017  65.149  1.00  0.00    -0.173 NA 
HETATM   19  H   UNL     1     -11.667  10.490  64.812  1.00  0.00     0.000 HD 
BRANCH  18  20
HETATM   20  C   UNL     1     -10.906  12.394  65.463  1.00  0.00    -0.281 A  
HETATM   21  C   UNL     1     -10.465  13.403  64.593  1.00  0.00    -0.428 A  
HETATM   22  C   UNL     1     -10.452  14.746  64.987  1.00  0.00    -0.443 A  
HETATM   23  C   UNL     1     -10.872  15.093  66.270  1.00  0.00    -0.333 A  
HETATM   24  O   UNL     1     -10.830  16.408  66.656  1.00  0.00    -0.229 OA 
HETATM   25  C   UNL     1     -11.321  14.111  67.163  1.00  0.00    -0.348 A  
HETATM   26  C   UNL     1     -11.778  14.393  68.554  1.00  0.00    -0.335 C  
HETATM   27  C   UNL     1     -11.330  12.766  66.744  1.00  0.00    -0.362 A  
HETATM   28  H   UNL     1     -11.116  16.645  67.531  1.00  0.00     0.000 HD 
HETATM   29  O   UNL     1     -12.171  13.512  69.305  1.00  0.00    -0.305 OA 
HETATM   30  O   UNL     1     -11.723  15.687  68.934  1.00  0.00    -0.364 OA 
ENDBRANCH  18  20
ENDBRANCH  16  18
ENDBRANCH  13  16
ENDBRANCH   7  10
ENDBRANCH   5   6
ENDBRANCH   4   5
TORSDOF 6
ENDMDL
MODEL      131
REMARK 921   NORMALIZED FREE ENERGY PREDICTED BY IDOCK:   -5.44 KCAL/MOL
REMARK 922        TOTAL FREE ENERGY PREDICTED BY IDOCK:   -8.33 KCAL/MOL
REMARK 923 INTER-LIGAND FREE ENERGY PREDICTED BY IDOCK:   -7.69 KCAL/MOL
REMARK 924 INTRA-LIGAND FREE ENERGY PREDICTED BY IDOCK:   -0.64 KCAL/MOL
REMARK 927      BINDING AFFINITY PREDICTED BY RF-SCORE:    0.00 PKD
ROOT
HETATM    1  O   UNL     1      -8.503   8.566  73.366  1.00  0.00    -0.367 OA 
HETATM    2  C   UNL     1      -8.379   8.650  72.024  1.00  0.00    -0.102 C  
HETATM    3  O   UNL     1      -7.601   9.423  71.483  1.00  0.00    -0.329 OA 
HETATM    4  C   UNL     1      -9.276   7.713  71.264  1.00  0.00    -0.155 C  
ENDROOT
BRANCH   4   5
HETATM    5  C   UNL     1     -10.635   8.340  71.006  1.00  0.00    -0.204 C  
BRANCH   5   6
HETATM    6  N   UNL     1     -10.570   9.471  70.104  1.00  0.00    -0.234 N  
HETATM    7  C   UNL     1     -10.294   9.310  68.759  1.00  0.00    -0.211 C  
HETATM    8  H   UNL     1     -10.731  10.410  70.470  1.00  0.00     0.000 HD 
HETATM    9  O   UNL     1     -10.109   8.216  68.239  1.00  0.00    -0.185 OA 
BRANCH   7  10
HETATM   10  C   UNL     1     -10.169  10.561  67.954  1.00  0.00    -0.213 A  
HETATM   11  C   UNL     1      -8.910  10.909  67.451  1.00  0.00    -0.133 A  
HETATM   12  C   UNL     1      -8.734  12.112  66.753  1.00  0.00    -0.183 A  
HETATM   13  C   UNL     1      -9.807  12.986  66.529  1.00  0.00    -0.263 A  
HETATM   14  C   UNL     1     -11.259  11.401  67.699  1.00  0.00    -0.346 A  
HETATM   15  C   UNL     1     -11.073  12.606  67.004  1.00  0.00    -0.322 A  
BRANCH  13  16
HETATM   16  N   UNL     1      -9.535  14.225  65.907  1.00  0.00    -0.517 NA 
HETATM   17  H   UNL     1      -8.639  14.455  65.475  1.00  0.00     0.000 HD 
BRANCH  16  18
HETATM   18  N   UNL     1     -10.505  15.010  65.942  1.00  0.00    -0.309 NA 
HETATM   19  H   UNL     1     -11.341  14.900  65.367  1.00  0.00     0.000 HD 
BRANCH  18  20
HETATM   20  C   UNL     1     -10.323  16.067  66.862  1.00  0.00    -0.289 A  
HETATM   21  C   UNL     1     -10.345  15.897  68.254  1.00  0.00    -0.242 A  
HETATM   22  C   UNL     1     -10.244  16.992  69.121  1.00  0.00    -0.288 A  
HETATM   23  C   UNL     1     -10.132  18.279  68.596  1.00  0.00    -0.385 A  
HETATM   24  O   UNL     1     -10.060  19.347  69.453  1.00  0.00    -0.555 OA 
HETATM   25  C   UNL     1     -10.104  18.483  67.210  1.00  0.00    -0.376 A  
HETATM   26  C   UNL     1      -9.995  19.824  66.566  1.00  0.00    -0.459 C  
HETATM   27  C   UNL     1     -10.201  17.367  66.357  1.00  0.00    -0.339 A  
HETATM   28  H   UNL     1      -9.984  20.225  69.096  1.00  0.00     0.000 HD 
HETATM   29  O   UNL     1      -9.965  19.967  65.353  1.00  0.00    -0.286 OA 
HETATM   30  O   UNL     1      -9.938  20.874  67.413  1.00  0.00    -0.397 OA 
ENDBRANCH  18  20
ENDBRANCH  16  18
ENDBRANCH  13  16
ENDBRANCH   7  10
ENDBRANCH   5   6
ENDBRANCH   4   5
TORSDOF 6
ENDMDL
MODEL      132
REMARK 921   NORMALIZED FREE ENERGY PREDICTED BY IDOCK:   -5.42 KCAL/MOL
REMARK 922        TOTAL FREE ENERGY PREDICTED BY IDOCK:   -8.31 KCAL/MOL
REMARK 923 INTER-LIGAND FREE ENERGY PREDICTED BY IDOCK:   -7.38 KCAL/MOL
REMARK 924 INTRA-LIGAND FREE ENERGY PREDICTED BY IDOCK:   -0.92 KCAL/MOL
REMARK 927      BINDING AFFINITY PREDICTED BY RF-SCORE:    0.00 PKD
ROOT
HETATM    1  O   UNL     1     -12.985  13.681  71.353  1.00  0.00    -0.342 OA 
HETATM    2  C   UNL     1     -13.166  14.912  71.875  1.00  0.00    -0.350 C  
HETATM    3  O   UNL     1     -14.274  15.365  72.123  1.00  0.00    -0.528 OA 
HETATM    4  C   UNL     1     -11.890  15.669  72.121  1.00  0.00    -0.567 C  
ENDROOT
BRANCH   4   5
HETATM    5  C   UNL     1     -11.460  16.441  70.886  1.00  0.00    -0.179 C  
BRANCH   5   6
HETATM    6  N   UNL     1     -11.370  15.607  69.705  1.00  0.00    -0.302 N  
HETATM    7  C   UNL     1     -11.092  16.140  68.461  1.00  0.00    -0.357 C  
HETATM    8  H   UNL     1     -11.515  14.601  69.794  1.00  0.00     0.000 HD 
HETATM    9  O   UNL     1     -10.885  17.334  68.274  1.00  0.00    -0.365 OA 
BRANCH   7  10
HETATM   10  C   UNL     1     -11.113  15.188  67.312  1.00  0.00    -0.332 A  
HETATM   11  C   UNL     1     -11.817  13.986  67.452  1.00  0.00    -0.445 A  
HETATM   12  C   UNL     1     -11.801  13.033  66.425  1.00  0.00    -0.465 A  
HETATM   13  C   UNL     1     -11.099  13.259  65.233  1.00  0.00    -0.288 A  
HETATM   14  C   UNL     1     -10.446  15.449  66.109  1.00  0.00    -0.325 A  
HETATM   15  C   UNL     1     -10.431  14.487  65.088  1.00  0.00    -0.439 A  
BRANCH  13  16
HETATM   16  N   UNL     1     -11.044  12.212  64.285  1.00  0.00    -0.322 NA 
HETATM   17  H   UNL     1     -11.871  11.789  63.864  1.00  0.00     0.000 HD 
BRANCH  16  18
HETATM   18  N   UNL     1      -9.877  11.860  64.017  1.00  0.00    -0.460 NA 
HETATM   19  H   UNL     1      -9.305  12.301  63.296  1.00  0.00     0.000 HD 
BRANCH  18  20
HETATM   20  C   UNL     1      -9.431  10.785  64.818  1.00  0.00    -0.247 A  
HETATM   21  C   UNL     1     -10.288   9.979  65.583  1.00  0.00    -0.171 A  
HETATM   22  C   UNL     1      -9.785   8.980  66.425  1.00  0.00    -0.337 A  
HETATM   23  C   UNL     1      -8.408   8.786  66.520  1.00  0.00    -0.112 A  
HETATM   24  O   UNL     1      -7.924   7.823  67.367  1.00  0.00    -0.115 OA 
HETATM   25  C   UNL     1      -7.524   9.571  65.767  1.00  0.00    -0.100 A  
HETATM   26  C   UNL     1      -6.040   9.436  65.814  1.00  0.00    -0.056 C  
HETATM   27  C   UNL     1      -8.052  10.566  64.922  1.00  0.00    -0.086 A  
HETATM   28  H   UNL     1      -6.985   7.690  67.432  1.00  0.00     0.000 HD 
HETATM   29  O   UNL     1      -5.297  10.132  65.138  1.00  0.00    -0.058 OA 
HETATM   30  O   UNL     1      -5.567   8.495  66.659  1.00  0.00    -0.035 OA 
ENDBRANCH  18  20
ENDBRANCH  16  18
ENDBRANCH  13  16
ENDBRANCH   7  10
ENDBRANCH   5   6
ENDBRANCH   4   5
TORSDOF 6
ENDMDL
MODEL      133
REMARK 921   NORMALIZED FREE ENERGY PREDICTED BY IDOCK:   -5.41 KCAL/MOL
REMARK 922        TOTAL FREE ENERGY PREDICTED BY IDOCK:   -8.29 KCAL/MOL
REMARK 923 INTER-LIGAND FREE ENERGY PREDICTED BY IDOCK:   -7.30 KCAL/MOL
REMARK 924 INTRA-LIGAND FREE ENERGY PREDICTED BY IDOCK:   -0.99 KCAL/MOL
REMARK 927      BINDING AFFINITY PREDICTED BY RF-SCORE:    0.00 PKD
ROOT
HETATM    1  O   UNL     1     -11.059  19.643  66.234  1.00  0.00    -0.286 OA 
HETATM    2  C   UNL     1     -10.104  18.692  66.139  1.00  0.00    -0.369 C  
HETATM    3  O   UNL     1     -10.314  17.597  65.637  1.00  0.00    -0.606 OA 
HETATM    4  C   UNL     1      -8.772  19.101  66.703  1.00  0.00    -0.333 C  
ENDROOT
BRANCH   4   5
HETATM    5  C   UNL     1      -8.686  18.799  68.189  1.00  0.00    -0.306 C  
BRANCH   5   6
HETATM    6  N   UNL     1      -9.575  17.730  68.597  1.00  0.00    -0.320 N  
HETATM    7  C   UNL     1      -9.098  16.474  68.917  1.00  0.00    -0.245 C  
HETATM    8  H   UNL     1     -10.578  17.910  68.650  1.00  0.00     0.000 HD 
HETATM    9  O   UNL     1      -7.907  16.184  68.899  1.00  0.00    -0.187 OA 
BRANCH   7  10
HETATM   10  C   UNL     1     -10.124  15.437  69.237  1.00  0.00    -0.253 A  
HETATM   11  C   UNL     1     -10.906  15.602  70.386  1.00  0.00    -0.358 A  
HETATM   12  C   UNL     1     -11.829  14.617  70.762  1.00  0.00    -0.372 A  
HETATM   13  C   UNL     1     -12.003  13.455  69.997  1.00  0.00    -0.337 A  
HETATM   14  C   UNL     1     -10.319  14.305  68.437  1.00  0.00    -0.247 A  
HETATM   15  C   UNL     1     -11.242  13.321  68.824  1.00  0.00    -0.317 A  
BRANCH  13  16
HETATM   16  N   UNL     1     -12.877  12.460  70.492  1.00  0.00     0.063 NA 
HETATM   17  H   UNL     1     -13.764  12.219  70.050  1.00  0.00     0.000 HD 
BRANCH  16  18
HETATM   18  N   UNL     1     -12.448  11.907  71.526  1.00  0.00    -0.162 NA 
HETATM   19  H   UNL     1     -12.250  12.407  72.393  1.00  0.00     0.000 HD 
BRANCH  18  20
HETATM   20  C   UNL     1     -12.267  10.515  71.368  1.00  0.00    -0.327 A  
HETATM   21  C   UNL     1     -12.685   9.565  72.312  1.00  0.00    -0.388 A  
HETATM   22  C   UNL     1     -12.404   8.204  72.146  1.00  0.00    -0.383 A  
HETATM   23  C   UNL     1     -11.686   7.779  71.029  1.00  0.00    -0.281 A  
HETATM   24  O   UNL     1     -11.394   6.447  70.888  1.00  0.00    -0.304 OA 
HETATM   25  C   UNL     1     -11.257   8.701  70.065  1.00  0.00    -0.098 A  
HETATM   26  C   UNL     1     -10.478   8.334  68.847  1.00  0.00    -0.191 C  
HETATM   27  C   UNL     1     -11.555  10.065  70.250  1.00  0.00    -0.354 A  
HETATM   28  H   UNL     1     -10.904   6.157  70.127  1.00  0.00     0.000 HD 
HETATM   29  O   UNL     1     -10.126   9.163  68.021  1.00  0.00    -0.176 OA 
HETATM   30  O   UNL     1     -10.181   7.023  68.719  1.00  0.00    -0.165 OA 
ENDBRANCH  18  20
ENDBRANCH  16  18
ENDBRANCH  13  16
ENDBRANCH   7  10
ENDBRANCH   5   6
ENDBRANCH   4   5
TORSDOF 6
ENDMDL
MODEL      134
REMARK 921   NORMALIZED FREE ENERGY PREDICTED BY IDOCK:   -5.41 KCAL/MOL
REMARK 922        TOTAL FREE ENERGY PREDICTED BY IDOCK:   -8.29 KCAL/MOL
REMARK 923 INTER-LIGAND FREE ENERGY PREDICTED BY IDOCK:   -7.13 KCAL/MOL
REMARK 924 INTRA-LIGAND FREE ENERGY PREDICTED BY IDOCK:   -1.16 KCAL/MOL
REMARK 927      BINDING AFFINITY PREDICTED BY RF-SCORE:    0.00 PKD
ROOT
HETATM    1  O   UNL     1      -6.523   8.830  73.268  1.00  0.00    -0.250 OA 
HETATM    2  C   UNL     1      -7.035   7.608  73.009  1.00  0.00    -0.072 C  
HETATM    3  O   UNL     1      -6.910   7.059  71.923  1.00  0.00    -0.059 OA 
HETATM    4  C   UNL     1      -7.768   6.991  74.168  1.00  0.00    -0.124 C  
ENDROOT
BRANCH   4   5
HETATM    5  C   UNL     1      -9.227   7.412  74.185  1.00  0.00    -0.204 C  
BRANCH   5   6
HETATM    6  N   UNL     1      -9.605   8.176  73.014  1.00  0.00    -0.278 N  
HETATM    7  C   UNL     1     -10.735   7.868  72.282  1.00  0.00    -0.283 C  
HETATM    8  H   UNL     1      -9.022   8.962  72.723  1.00  0.00     0.000 HD 
HETATM    9  O   UNL     1     -11.497   6.955  72.578  1.00  0.00    -0.264 OA 
BRANCH   7  10
HETATM   10  C   UNL     1     -10.966   8.676  71.048  1.00  0.00    -0.314 A  
HETATM   11  C   UNL     1     -10.318   8.295  69.868  1.00  0.00    -0.218 A  
HETATM   12  C   UNL     1     -10.450   9.068  68.706  1.00  0.00    -0.230 A  
HETATM   13  C   UNL     1     -11.239  10.226  68.690  1.00  0.00    -0.208 A  
HETATM   14  C   UNL     1     -11.795   9.804  71.036  1.00  0.00    -0.442 A  
HETATM   15  C   UNL     1     -11.917  10.576  69.869  1.00  0.00    -0.339 A  
BRANCH  13  16
HETATM   16  N   UNL     1     -11.243  11.010  67.514  1.00  0.00    -0.362 NA 
HETATM   17  H   UNL     1     -10.574  10.889  66.753  1.00  0.00     0.000 HD 
BRANCH  16  18
HETATM   18  N   UNL     1     -12.152  11.866  67.503  1.00  0.00    -0.528 NA 
HETATM   19  H   UNL     1     -13.144  11.637  67.568  1.00  0.00     0.000 HD 
BRANCH  18  20
HETATM   20  C   UNL     1     -11.662  13.186  67.391  1.00  0.00    -0.370 A  
HETATM   21  C   UNL     1     -11.194  13.741  66.190  1.00  0.00    -0.301 A  
HETATM   22  C   UNL     1     -10.639  15.026  66.153  1.00  0.00    -0.314 A  
HETATM   23  C   UNL     1     -10.535  15.768  67.328  1.00  0.00    -0.308 A  
HETATM   24  O   UNL     1      -9.967  17.015  67.286  1.00  0.00    -0.261 OA 
HETATM   25  C   UNL     1     -10.996  15.244  68.544  1.00  0.00    -0.266 A  
HETATM   26  C   UNL     1     -10.915  15.964  69.847  1.00  0.00    -0.343 C  
HETATM   27  C   UNL     1     -11.555  13.952  68.558  1.00  0.00    -0.367 A  
HETATM   28  H   UNL     1      -9.895  17.520  68.087  1.00  0.00     0.000 HD 
HETATM   29  O   UNL     1     -11.333  15.481  70.889  1.00  0.00    -0.311 OA 
HETATM   30  O   UNL     1     -10.342  17.186  69.803  1.00  0.00    -0.115 OA 
ENDBRANCH  18  20
ENDBRANCH  16  18
ENDBRANCH  13  16
ENDBRANCH   7  10
ENDBRANCH   5   6
ENDBRANCH   4   5
TORSDOF 6
ENDMDL
MODEL      135
REMARK 921   NORMALIZED FREE ENERGY PREDICTED BY IDOCK:   -5.41 KCAL/MOL
REMARK 922        TOTAL FREE ENERGY PREDICTED BY IDOCK:   -8.29 KCAL/MOL
REMARK 923 INTER-LIGAND FREE ENERGY PREDICTED BY IDOCK:   -7.56 KCAL/MOL
REMARK 924 INTRA-LIGAND FREE ENERGY PREDICTED BY IDOCK:   -0.73 KCAL/MOL
REMARK 927      BINDING AFFINITY PREDICTED BY RF-SCORE:    0.00 PKD
ROOT
HETATM    1  O   UNL     1     -10.032   4.343  71.912  1.00  0.00    -0.175 OA 
HETATM    2  C   UNL     1     -10.866   5.171  72.577  1.00  0.00    -0.223 C  
HETATM    3  O   UNL     1     -11.577   4.789  73.496  1.00  0.00    -0.281 OA 
HETATM    4  C   UNL     1     -10.838   6.593  72.090  1.00  0.00    -0.259 C  
ENDROOT
BRANCH   4   5
HETATM    5  C   UNL     1     -11.816   6.803  70.947  1.00  0.00    -0.385 C  
BRANCH   5   6
HETATM    6  N   UNL     1     -11.353   7.781  69.984  1.00  0.00    -0.458 N  
HETATM    7  C   UNL     1     -10.557   7.422  68.913  1.00  0.00    -0.176 C  
HETATM    8  H   UNL     1     -11.622   8.758  70.099  1.00  0.00     0.000 HD 
HETATM    9  O   UNL     1     -10.208   6.268  68.694  1.00  0.00    -0.152 OA 
BRANCH   7  10
HETATM   10  C   UNL     1     -10.075   8.536  68.044  1.00  0.00    -0.245 A  
HETATM   11  C   UNL     1      -9.423   9.619  68.643  1.00  0.00    -0.147 A  
HETATM   12  C   UNL     1      -9.021  10.719  67.873  1.00  0.00    -0.139 A  
HETATM   13  C   UNL     1      -9.245  10.758  66.490  1.00  0.00    -0.168 A  
HETATM   14  C   UNL     1     -10.264   8.539  66.657  1.00  0.00    -0.345 A  
HETATM   15  C   UNL     1      -9.863   9.646  65.893  1.00  0.00    -0.358 A  
BRANCH  13  16
HETATM   16  N   UNL     1      -8.903  11.940  65.795  1.00  0.00    -0.407 NA 
HETATM   17  H   UNL     1      -7.946  12.279  65.695  1.00  0.00     0.000 HD 
BRANCH  16  18
HETATM   18  N   UNL     1      -9.897  12.527  65.317  1.00  0.00    -0.432 NA 
HETATM   19  H   UNL     1     -10.442  12.167  64.534  1.00  0.00     0.000 HD 
BRANCH  18  20
HETATM   20  C   UNL     1     -10.185  13.743  65.976  1.00  0.00    -0.308 A  
HETATM   21  C   UNL     1      -9.739  14.995  65.525  1.00  0.00    -0.294 A  
HETATM   22  C   UNL     1      -9.981  16.160  66.263  1.00  0.00    -0.336 A  
HETATM   23  C   UNL     1     -10.667  16.080  67.474  1.00  0.00    -0.314 A  
HETATM   24  O   UNL     1     -10.876  17.223  68.202  1.00  0.00    -0.375 OA 
HETATM   25  C   UNL     1     -11.128  14.846  67.951  1.00  0.00    -0.304 A  
HETATM   26  C   UNL     1     -11.861  14.670  69.238  1.00  0.00    -0.321 C  
HETATM   27  C   UNL     1     -10.878  13.688  67.191  1.00  0.00    -0.292 A  
HETATM   28  H   UNL     1     -11.343  17.169  69.028  1.00  0.00     0.000 HD 
HETATM   29  O   UNL     1     -12.257  13.580  69.622  1.00  0.00    -0.304 OA 
HETATM   30  O   UNL     1     -12.053  15.796  69.958  1.00  0.00    -0.365 OA 
ENDBRANCH  18  20
ENDBRANCH  16  18
ENDBRANCH  13  16
ENDBRANCH   7  10
ENDBRANCH   5   6
ENDBRANCH   4   5
TORSDOF 6
ENDMDL
MODEL      136
REMARK 921   NORMALIZED FREE ENERGY PREDICTED BY IDOCK:   -5.40 KCAL/MOL
REMARK 922        TOTAL FREE ENERGY PREDICTED BY IDOCK:   -8.27 KCAL/MOL
REMARK 923 INTER-LIGAND FREE ENERGY PREDICTED BY IDOCK:   -7.50 KCAL/MOL
REMARK 924 INTRA-LIGAND FREE ENERGY PREDICTED BY IDOCK:   -0.77 KCAL/MOL
REMARK 927      BINDING AFFINITY PREDICTED BY RF-SCORE:    0.00 PKD
ROOT
HETATM    1  O   UNL     1     -12.108  16.353  72.264  1.00  0.00    -0.501 OA 
HETATM    2  C   UNL     1     -12.957  15.744  73.118  1.00  0.00    -0.544 C  
HETATM    3  O   UNL     1     -12.880  15.878  74.331  1.00  0.00    -0.604 OA 
HETATM    4  C   UNL     1     -13.998  14.892  72.446  1.00  0.00    -0.582 C  
ENDROOT
BRANCH   4   5
HETATM    5  C   UNL     1     -13.489  13.480  72.213  1.00  0.00    -0.571 C  
BRANCH   5   6
HETATM    6  N   UNL     1     -12.721  13.355  70.991  1.00  0.00    -0.333 N  
HETATM    7  C   UNL     1     -12.407  12.120  70.457  1.00  0.00    -0.272 C  
HETATM    8  H   UNL     1     -12.404  14.199  70.514  1.00  0.00     0.000 HD 
HETATM    9  O   UNL     1     -12.767  11.061  70.958  1.00  0.00    -0.359 OA 
BRANCH   7  10
HETATM   10  C   UNL     1     -11.537  12.125  69.243  1.00  0.00    -0.377 A  
HETATM   11  C   UNL     1     -10.472  11.219  69.180  1.00  0.00    -0.191 A  
HETATM   12  C   UNL     1      -9.588  11.240  68.092  1.00  0.00    -0.186 A  
HETATM   13  C   UNL     1      -9.752  12.151  67.040  1.00  0.00    -0.202 A  
HETATM   14  C   UNL     1     -11.742  13.009  68.178  1.00  0.00    -0.391 A  
HETATM   15  C   UNL     1     -10.849  13.027  67.095  1.00  0.00    -0.278 A  
BRANCH  13  16
HETATM   16  N   UNL     1      -8.766  12.182  66.029  1.00  0.00    -0.404 NA 
HETATM   17  H   UNL     1      -8.778  12.840  65.249  1.00  0.00     0.000 HD 
BRANCH  16  18
HETATM   18  N   UNL     1      -7.877  11.319  66.190  1.00  0.00    -0.345 NA 
HETATM   19  H   UNL     1      -7.144  11.390  66.896  1.00  0.00     0.000 HD 
BRANCH  18  20
HETATM   20  C   UNL     1      -7.995  10.236  65.291  1.00  0.00    -0.148 A  
HETATM   21  C   UNL     1      -8.313  10.385  63.932  1.00  0.00    -0.143 A  
HETATM   22  C   UNL     1      -8.501   9.273  63.105  1.00  0.00    -0.212 A  
HETATM   23  C   UNL     1      -8.384   7.989  63.636  1.00  0.00     0.048 A  
HETATM   24  O   UNL     1      -8.596   6.905  62.824  1.00  0.00    -0.353 OA 
HETATM   25  C   UNL     1      -8.064   7.805  64.988  1.00  0.00    -0.139 A  
HETATM   26  C   UNL     1      -7.929   6.470  65.639  1.00  0.00    -0.114 C  
HETATM   27  C   UNL     1      -7.874   8.938  65.802  1.00  0.00    -0.099 A  
HETATM   28  H   UNL     1      -8.516   6.030  63.186  1.00  0.00     0.000 HD 
HETATM   29  O   UNL     1      -7.641   6.344  66.821  1.00  0.00    -0.095 OA 
HETATM   30  O   UNL     1      -8.151   5.406  64.838  1.00  0.00    -0.108 OA 
ENDBRANCH  18  20
ENDBRANCH  16  18
ENDBRANCH  13  16
ENDBRANCH   7  10
ENDBRANCH   5   6
ENDBRANCH   4   5
TORSDOF 6
ENDMDL
MODEL      137
REMARK 921   NORMALIZED FREE ENERGY PREDICTED BY IDOCK:   -5.39 KCAL/MOL
REMARK 922        TOTAL FREE ENERGY PREDICTED BY IDOCK:   -8.27 KCAL/MOL
REMARK 923 INTER-LIGAND FREE ENERGY PREDICTED BY IDOCK:   -7.34 KCAL/MOL
REMARK 924 INTRA-LIGAND FREE ENERGY PREDICTED BY IDOCK:   -0.93 KCAL/MOL
REMARK 927      BINDING AFFINITY PREDICTED BY RF-SCORE:    0.00 PKD
ROOT
HETATM    1  O   UNL     1      -8.417  19.128  67.896  1.00  0.00    -0.286 OA 
HETATM    2  C   UNL     1      -9.723  18.792  67.952  1.00  0.00    -0.329 C  
HETATM    3  O   UNL     1     -10.167  18.011  68.782  1.00  0.00    -0.377 OA 
HETATM    4  C   UNL     1     -10.575  19.462  66.910  1.00  0.00    -0.581 C  
ENDROOT
BRANCH   4   5
HETATM    5  C   UNL     1     -10.600  18.661  65.620  1.00  0.00    -0.132 C  
BRANCH   5   6
HETATM    6  N   UNL     1     -10.384  17.244  65.835  1.00  0.00    -0.332 N  
HETATM    7  C   UNL     1     -10.971  16.291  65.025  1.00  0.00    -0.298 C  
HETATM    8  H   UNL     1      -9.784  16.943  66.603  1.00  0.00     0.000 HD 
HETATM    9  O   UNL     1     -11.687  16.571  64.070  1.00  0.00    -1.111 OA 
BRANCH   7  10
HETATM   10  C   UNL     1     -10.740  14.866  65.404  1.00  0.00    -0.391 A  
HETATM   11  C   UNL     1      -9.840  14.586  66.439  1.00  0.00    -0.306 A  
HETATM   12  C   UNL     1      -9.540  13.260  66.777  1.00  0.00    -0.258 A  
HETATM   13  C   UNL     1     -10.137  12.185  66.105  1.00  0.00    -0.228 A  
HETATM   14  C   UNL     1     -11.380  13.804  64.754  1.00  0.00    -0.367 A  
HETATM   15  C   UNL     1     -11.070  12.479  65.096  1.00  0.00    -0.335 A  
BRANCH  13  16
HETATM   16  N   UNL     1      -9.711  10.878  66.431  1.00  0.00    -0.195 NA 
HETATM   17  H   UNL     1      -8.894  10.431  66.014  1.00  0.00     0.000 HD 
BRANCH  16  18
HETATM   18  N   UNL     1     -10.438  10.328  67.284  1.00  0.00    -0.236 NA 
HETATM   19  H   UNL     1     -11.193  10.807  67.775  1.00  0.00     0.000 HD 
BRANCH  18  20
HETATM   20  C   UNL     1     -10.104   8.972  67.496  1.00  0.00    -0.228 A  
HETATM   21  C   UNL     1     -10.297   8.307  68.717  1.00  0.00    -0.223 A  
HETATM   22  C   UNL     1      -9.870   6.986  68.899  1.00  0.00    -0.150 A  
HETATM   23  C   UNL     1      -9.230   6.317  67.856  1.00  0.00    -0.116 A  
HETATM   24  O   UNL     1      -8.792   5.033  68.053  1.00  0.00    -0.102 OA 
HETATM   25  C   UNL     1      -9.025   6.951  66.623  1.00  0.00    -0.157 A  
HETATM   26  C   UNL     1      -8.344   6.314  65.460  1.00  0.00    -0.147 C  
HETATM   27  C   UNL     1      -9.467   8.278  66.460  1.00  0.00    -0.284 A  
HETATM   28  H   UNL     1      -8.356   4.577  67.342  1.00  0.00     0.000 HD 
HETATM   29  O   UNL     1      -8.188   6.893  64.395  1.00  0.00    -0.086 OA 
HETATM   30  O   UNL     1      -7.902   5.054  65.662  1.00  0.00    -0.089 OA 
ENDBRANCH  18  20
ENDBRANCH  16  18
ENDBRANCH  13  16
ENDBRANCH   7  10
ENDBRANCH   5   6
ENDBRANCH   4   5
TORSDOF 6
ENDMDL
MODEL      138
REMARK 921   NORMALIZED FREE ENERGY PREDICTED BY IDOCK:   -5.39 KCAL/MOL
REMARK 922        TOTAL FREE ENERGY PREDICTED BY IDOCK:   -8.26 KCAL/MOL
REMARK 923 INTER-LIGAND FREE ENERGY PREDICTED BY IDOCK:   -7.19 KCAL/MOL
REMARK 924 INTRA-LIGAND FREE ENERGY PREDICTED BY IDOCK:   -1.07 KCAL/MOL
REMARK 927      BINDING AFFINITY PREDICTED BY RF-SCORE:    0.00 PKD
ROOT
HETATM    1  O   UNL     1      -7.161   8.665  66.165  1.00  0.00    -0.081 OA 
HETATM    2  C   UNL     1      -8.357   8.638  65.538  1.00  0.00    -0.150 C  
HETATM    3  O   UNL     1      -8.646   9.414  64.639  1.00  0.00    -0.165 OA 
HETATM    4  C   UNL     1      -9.291   7.573  66.044  1.00  0.00    -0.061 C  
ENDROOT
BRANCH   4   5
HETATM    5  C   UNL     1     -10.110   8.073  67.221  1.00  0.00    -0.240 C  
BRANCH   5   6
HETATM    6  N   UNL     1     -10.259   9.514  67.230  1.00  0.00    -0.218 N  
HETATM    7  C   UNL     1     -10.875  10.171  68.278  1.00  0.00    -0.252 C  
HETATM    8  H   UNL     1      -9.901  10.056  66.444  1.00  0.00     0.000 HD 
HETATM    9  O   UNL     1     -11.313   9.594  69.267  1.00  0.00    -0.111 OA 
BRANCH   7  10
HETATM   10  C   UNL     1     -11.043  11.647  68.126  1.00  0.00    -0.298 A  
HETATM   11  C   UNL     1     -10.956  12.451  69.268  1.00  0.00    -0.145 A  
HETATM   12  C   UNL     1     -11.180  13.832  69.181  1.00  0.00    -0.307 A  
HETATM   13  C   UNL     1     -11.482  14.443  67.957  1.00  0.00    -0.310 A  
HETATM   14  C   UNL     1     -11.298  12.249  66.888  1.00  0.00    -0.392 A  
HETATM   15  C   UNL     1     -11.527  13.631  66.811  1.00  0.00    -0.370 A  
BRANCH  13  16
HETATM   16  N   UNL     1     -11.796  15.821  67.962  1.00  0.00    -0.275 NA 
HETATM   17  H   UNL     1     -12.581  16.222  67.450  1.00  0.00     0.000 HD 
BRANCH  16  18
HETATM   18  N   UNL     1     -11.011  16.495  68.661  1.00  0.00    -0.344 NA 
HETATM   19  H   UNL     1     -10.873  16.345  69.661  1.00  0.00     0.000 HD 
BRANCH  18  20
HETATM   20  C   UNL     1     -10.334  17.489  67.920  1.00  0.00    -0.371 A  
HETATM   21  C   UNL     1     -10.902  18.726  67.577  1.00  0.00    -0.396 A  
HETATM   22  C   UNL     1     -10.218  19.640  66.769  1.00  0.00    -0.563 A  
HETATM   23  C   UNL     1      -8.952  19.319  66.282  1.00  0.00    -0.328 A  
HETATM   24  O   UNL     1      -8.300  20.210  65.469  1.00  0.00    -0.467 OA 
HETATM   25  C   UNL     1      -8.353  18.094  66.608  1.00  0.00    -0.283 A  
HETATM   26  C   UNL     1      -7.009  17.667  66.124  1.00  0.00    -0.303 C  
HETATM   27  C   UNL     1      -9.058  17.191  67.427  1.00  0.00    -0.226 A  
HETATM   28  H   UNL     1      -7.437  19.991  65.137  1.00  0.00     0.000 HD 
HETATM   29  O   UNL     1      -6.512  16.594  66.433  1.00  0.00    -0.236 OA 
HETATM   30  O   UNL     1      -6.377  18.542  65.313  1.00  0.00    -0.300 OA 
ENDBRANCH  18  20
ENDBRANCH  16  18
ENDBRANCH  13  16
ENDBRANCH   7  10
ENDBRANCH   5   6
ENDBRANCH   4   5
TORSDOF 6
ENDMDL
MODEL      139
REMARK 921   NORMALIZED FREE ENERGY PREDICTED BY IDOCK:   -5.38 KCAL/MOL
REMARK 922        TOTAL FREE ENERGY PREDICTED BY IDOCK:   -8.25 KCAL/MOL
REMARK 923 INTER-LIGAND FREE ENERGY PREDICTED BY IDOCK:   -7.47 KCAL/MOL
REMARK 924 INTRA-LIGAND FREE ENERGY PREDICTED BY IDOCK:   -0.79 KCAL/MOL
REMARK 927      BINDING AFFINITY PREDICTED BY RF-SCORE:    0.00 PKD
ROOT
HETATM    1  O   UNL     1      -5.393   3.538  63.423  1.00  0.00    -0.008 OA 
HETATM    2  C   UNL     1      -5.860   4.800  63.521  1.00  0.00    -0.017 C  
HETATM    3  O   UNL     1      -5.186   5.719  63.967  1.00  0.00    -0.015 OA 
HETATM    4  C   UNL     1      -7.273   4.972  63.036  1.00  0.00    -0.043 C  
ENDROOT
BRANCH   4   5
HETATM    5  C   UNL     1      -8.274   4.697  64.144  1.00  0.00    -0.114 C  
BRANCH   5   6
HETATM    6  N   UNL     1      -8.870   5.906  64.676  1.00  0.00    -0.362 N  
HETATM    7  C   UNL     1      -8.400   6.496  65.834  1.00  0.00    -0.140 C  
HETATM    8  H   UNL     1      -9.655   6.332  64.183  1.00  0.00     0.000 HD 
HETATM    9  O   UNL     1      -7.449   6.058  66.472  1.00  0.00    -0.086 OA 
BRANCH   7  10
HETATM   10  C   UNL     1      -9.155   7.687  66.324  1.00  0.00    -0.204 A  
HETATM   11  C   UNL     1      -9.854   7.586  67.532  1.00  0.00    -0.209 A  
HETATM   12  C   UNL     1     -10.634   8.656  67.990  1.00  0.00    -0.205 A  
HETATM   13  C   UNL     1     -10.724   9.852  67.266  1.00  0.00    -0.238 A  
HETATM   14  C   UNL     1      -9.197   8.892  65.612  1.00  0.00    -0.268 A  
HETATM   15  C   UNL     1      -9.985   9.957  66.076  1.00  0.00    -0.338 A  
BRANCH  13  16
HETATM   16  N   UNL     1     -11.609  10.849  67.737  1.00  0.00    -0.591 NA 
HETATM   17  H   UNL     1     -12.607  10.862  67.527  1.00  0.00     0.000 HD 
BRANCH  16  18
HETATM   18  N   UNL     1     -11.040  11.711  68.439  1.00  0.00    -0.214 NA 
HETATM   19  H   UNL     1     -10.157  12.153  68.184  1.00  0.00     0.000 HD 
BRANCH  18  20
HETATM   20  C   UNL     1     -11.750  12.009  69.624  1.00  0.00    -0.335 A  
HETATM   21  C   UNL     1     -12.211  11.032  70.519  1.00  0.00    -0.472 A  
HETATM   22  C   UNL     1     -12.984  11.377  71.634  1.00  0.00    -0.523 A  
HETATM   23  C   UNL     1     -13.314  12.713  71.859  1.00  0.00    -0.387 A  
HETATM   24  O   UNL     1     -14.092  13.038  72.940  1.00  0.00    -0.647 OA 
HETATM   25  C   UNL     1     -12.866  13.714  70.987  1.00  0.00    -0.360 A  
HETATM   26  C   UNL     1     -13.179  15.163  71.147  1.00  0.00    -0.469 C  
HETATM   27  C   UNL     1     -12.086  13.345  69.873  1.00  0.00    -0.389 A  
HETATM   28  H   UNL     1     -14.318  13.948  73.093  1.00  0.00     0.000 HD 
HETATM   29  O   UNL     1     -12.766  16.012  70.371  1.00  0.00    -0.324 OA 
HETATM   30  O   UNL     1     -13.957  15.476  72.205  1.00  0.00    -0.507 OA 
ENDBRANCH  18  20
ENDBRANCH  16  18
ENDBRANCH  13  16
ENDBRANCH   7  10
ENDBRANCH   5   6
ENDBRANCH   4   5
TORSDOF 6
ENDMDL
MODEL      140
REMARK 921   NORMALIZED FREE ENERGY PREDICTED BY IDOCK:   -5.37 KCAL/MOL
REMARK 922        TOTAL FREE ENERGY PREDICTED BY IDOCK:   -8.24 KCAL/MOL
REMARK 923 INTER-LIGAND FREE ENERGY PREDICTED BY IDOCK:   -8.95 KCAL/MOL
REMARK 924 INTRA-LIGAND FREE ENERGY PREDICTED BY IDOCK:    0.71 KCAL/MOL
REMARK 927      BINDING AFFINITY PREDICTED BY RF-SCORE:    0.00 PKD
ROOT
HETATM    1  O   UNL     1     -11.825  16.076  72.147  1.00  0.00    -0.453 OA 
HETATM    2  C   UNL     1     -12.847  15.883  73.008  1.00  0.00    -0.513 C  
HETATM    3  O   UNL     1     -12.808  16.258  74.171  1.00  0.00    -0.689 OA 
HETATM    4  C   UNL     1     -14.028  15.171  72.409  1.00  0.00    -0.616 C  
ENDROOT
BRANCH   4   5
HETATM    5  C   UNL     1     -13.876  13.663  72.518  1.00  0.00    -0.515 C  
BRANCH   5   6
HETATM    6  N   UNL     1     -13.132  13.093  71.413  1.00  0.00    -0.310 N  
HETATM    7  C   UNL     1     -12.879  11.737  71.334  1.00  0.00    -0.335 C  
HETATM    8  H   UNL     1     -12.786  13.707  70.676  1.00  0.00     0.000 HD 
HETATM    9  O   UNL     1     -13.278  10.931  72.168  1.00  0.00    -0.474 OA 
BRANCH   7  10
HETATM   10  C   UNL     1     -12.028  11.287  70.194  1.00  0.00    -0.452 A  
HETATM   11  C   UNL     1     -12.370  11.698  68.900  1.00  0.00     0.095 A  
HETATM   12  C   UNL     1     -11.641  11.239  67.795  1.00  0.00    -0.307 A  
HETATM   13  C   UNL     1     -10.549  10.374  67.953  1.00  0.00    -0.232 A  
HETATM   14  C   UNL     1     -10.912  10.461  70.372  1.00  0.00    -0.320 A  
HETATM   15  C   UNL     1     -10.190  10.002  69.259  1.00  0.00    -0.229 A  
BRANCH  13  16
HETATM   16  N   UNL     1      -9.926   9.873  66.788  1.00  0.00    -0.202 NA 
HETATM   17  H   UNL     1      -9.307   9.061  66.785  1.00  0.00     0.000 HD 
BRANCH  16  18
HETATM   18  N   UNL     1     -10.212  10.527  65.764  1.00  0.00    -0.257 NA 
HETATM   19  H   UNL     1     -10.656  10.120  64.940  1.00  0.00     0.000 HD 
BRANCH  18  20
HETATM   20  C   UNL     1      -9.854  11.890  65.866  1.00  0.00    -0.237 A  
HETATM   21  C   UNL     1      -8.772  12.354  66.629  1.00  0.00    -0.119 A  
HETATM   22  C   UNL     1      -8.513  13.722  66.764  1.00  0.00     0.007 A  
HETATM   23  C   UNL     1      -9.349  14.648  66.141  1.00  0.00    -0.230 A  
HETATM   24  O   UNL     1      -9.103  15.987  66.300  1.00  0.00    -0.284 OA 
HETATM   25  C   UNL     1     -10.436  14.218  65.368  1.00  0.00    -0.382 A  
HETATM   26  C   UNL     1     -11.384  15.138  64.676  1.00  0.00    -0.356 C  
HETATM   27  C   UNL     1     -10.675  12.836  65.242  1.00  0.00    -0.319 A  
HETATM   28  H   UNL     1      -9.673  16.618  65.876  1.00  0.00     0.000 HD 
HETATM   29  O   UNL     1     -12.319  14.730  64.003  1.00  0.00    -0.712 OA 
HETATM   30  O   UNL     1     -11.145  16.456  64.846  1.00  0.00    -0.510 OA 
ENDBRANCH  18  20
ENDBRANCH  16  18
ENDBRANCH  13  16
ENDBRANCH   7  10
ENDBRANCH   5   6
ENDBRANCH   4   5
TORSDOF 6
ENDMDL
MODEL      141
REMARK 921   NORMALIZED FREE ENERGY PREDICTED BY IDOCK:   -5.37 KCAL/MOL
REMARK 922        TOTAL FREE ENERGY PREDICTED BY IDOCK:   -8.24 KCAL/MOL
REMARK 923 INTER-LIGAND FREE ENERGY PREDICTED BY IDOCK:   -7.21 KCAL/MOL
REMARK 924 INTRA-LIGAND FREE ENERGY PREDICTED BY IDOCK:   -1.02 KCAL/MOL
REMARK 927      BINDING AFFINITY PREDICTED BY RF-SCORE:    0.00 PKD
ROOT
HETATM    1  O   UNL     1     -12.606  15.611  70.267  1.00  0.00    -0.407 OA 
HETATM    2  C   UNL     1     -12.565  15.577  71.616  1.00  0.00    -0.419 C  
HETATM    3  O   UNL     1     -11.565  15.880  72.252  1.00  0.00    -0.427 OA 
HETATM    4  C   UNL     1     -13.851  15.136  72.259  1.00  0.00    -0.618 C  
ENDROOT
BRANCH   4   5
HETATM    5  C   UNL     1     -13.911  13.625  72.393  1.00  0.00    -0.589 C  
BRANCH   5   6
HETATM    6  N   UNL     1     -13.137  12.940  71.377  1.00  0.00    -0.299 N  
HETATM    7  C   UNL     1     -12.952  11.571  71.408  1.00  0.00    -0.348 C  
HETATM    8  H   UNL     1     -12.720  13.482  70.620  1.00  0.00     0.000 HD 
HETATM    9  O   UNL     1     -13.438  10.848  72.271  1.00  0.00    -0.324 OA 
BRANCH   7  10
HETATM   10  C   UNL     1     -12.063  10.999  70.354  1.00  0.00    -0.463 A  
HETATM   11  C   UNL     1     -12.160  11.502  69.051  1.00  0.00    -0.303 A  
HETATM   12  C   UNL     1     -11.397  10.943  68.018  1.00  0.00    -0.382 A  
HETATM   13  C   UNL     1     -10.512   9.883  68.259  1.00  0.00    -0.210 A  
HETATM   14  C   UNL     1     -11.150   9.972  70.620  1.00  0.00    -0.408 A  
HETATM   15  C   UNL     1     -10.394   9.414  69.578  1.00  0.00    -0.223 A  
BRANCH  13  16
HETATM   16  N   UNL     1      -9.852   9.304  67.152  1.00  0.00    -0.181 NA 
HETATM   17  H   UNL     1      -8.949   9.625  66.803  1.00  0.00     0.000 HD 
BRANCH  16  18
HETATM   18  N   UNL     1     -10.492   8.359  66.644  1.00  0.00    -0.349 NA 
HETATM   19  H   UNL     1     -11.387   8.473  66.170  1.00  0.00     0.000 HD 
BRANCH  18  20
HETATM   20  C   UNL     1      -9.843   7.113  66.798  1.00  0.00    -0.205 A  
HETATM   21  C   UNL     1     -10.513   5.881  66.776  1.00  0.00    -0.344 A  
HETATM   22  C   UNL     1      -9.833   4.681  67.018  1.00  0.00    -0.232 A  
HETATM   23  C   UNL     1      -8.468   4.705  67.300  1.00  0.00    -0.104 A  
HETATM   24  O   UNL     1      -7.817   3.528  67.561  1.00  0.00    -0.077 OA 
HETATM   25  C   UNL     1      -7.768   5.919  67.326  1.00  0.00    -0.101 A  
HETATM   26  C   UNL     1      -6.312   6.037  67.627  1.00  0.00    -0.041 C  
HETATM   27  C   UNL     1      -8.470   7.114  67.075  1.00  0.00    -0.122 A  
HETATM   28  H   UNL     1      -6.886   3.544  67.754  1.00  0.00     0.000 HD 
HETATM   29  O   UNL     1      -5.730   7.112  67.635  1.00  0.00    -0.026 OA 
HETATM   30  O   UNL     1      -5.678   4.876  67.897  1.00  0.00    -0.016 OA 
ENDBRANCH  18  20
ENDBRANCH  16  18
ENDBRANCH  13  16
ENDBRANCH   7  10
ENDBRANCH   5   6
ENDBRANCH   4   5
TORSDOF 6
ENDMDL
MODEL      142
REMARK 921   NORMALIZED FREE ENERGY PREDICTED BY IDOCK:   -5.36 KCAL/MOL
REMARK 922        TOTAL FREE ENERGY PREDICTED BY IDOCK:   -8.22 KCAL/MOL
REMARK 923 INTER-LIGAND FREE ENERGY PREDICTED BY IDOCK:   -7.34 KCAL/MOL
REMARK 924 INTRA-LIGAND FREE ENERGY PREDICTED BY IDOCK:   -0.88 KCAL/MOL
REMARK 927      BINDING AFFINITY PREDICTED BY RF-SCORE:    0.00 PKD
ROOT
HETATM    1  O   UNL     1      -9.164   5.109  71.555  1.00  0.00    -0.142 OA 
HETATM    2  C   UNL     1      -8.654   4.041  70.907  1.00  0.00    -0.075 C  
HETATM    3  O   UNL     1      -7.630   3.479  71.268  1.00  0.00    -0.046 OA 
HETATM    4  C   UNL     1      -9.455   3.609  69.709  1.00  0.00    -0.254 C  
ENDROOT
BRANCH   4   5
HETATM    5  C   UNL     1      -9.026   4.359  68.460  1.00  0.00    -0.115 C  
BRANCH   5   6
HETATM    6  N   UNL     1      -9.040   5.797  68.635  1.00  0.00    -0.115 N  
HETATM    7  C   UNL     1     -10.177   6.544  68.394  1.00  0.00    -0.172 C  
HETATM    8  H   UNL     1      -8.191   6.269  68.944  1.00  0.00     0.000 HD 
HETATM    9  O   UNL     1     -11.242   6.050  68.040  1.00  0.00    -0.253 OA 
BRANCH   7  10
HETATM   10  C   UNL     1     -10.037   8.025  68.526  1.00  0.00    -0.218 A  
HETATM   11  C   UNL     1     -10.412   8.831  67.446  1.00  0.00    -0.349 A  
HETATM   12  C   UNL     1     -10.228  10.220  67.502  1.00  0.00    -0.254 A  
HETATM   13  C   UNL     1      -9.683  10.835  68.636  1.00  0.00    -0.186 A  
HETATM   14  C   UNL     1      -9.534   8.629  69.684  1.00  0.00    -0.162 A  
HETATM   15  C   UNL     1      -9.349  10.019  69.730  1.00  0.00    -0.233 A  
BRANCH  13  16
HETATM   16  N   UNL     1      -9.433  12.225  68.582  1.00  0.00    -0.391 NA 
HETATM   17  H   UNL     1      -8.622  12.670  69.011  1.00  0.00     0.000 HD 
BRANCH  16  18
HETATM   18  N   UNL     1     -10.311  12.853  67.952  1.00  0.00    -0.225 NA 
HETATM   19  H   UNL     1     -10.407  12.823  66.937  1.00  0.00     0.000 HD 
BRANCH  18  20
HETATM   20  C   UNL     1     -11.156  13.608  68.795  1.00  0.00    -0.270 A  
HETATM   21  C   UNL     1     -11.295  15.002  68.707  1.00  0.00    -0.306 A  
HETATM   22  C   UNL     1     -12.081  15.711  69.623  1.00  0.00    -0.329 A  
HETATM   23  C   UNL     1     -12.731  15.029  70.650  1.00  0.00    -0.376 A  
HETATM   24  O   UNL     1     -13.477  15.736  71.557  1.00  0.00    -0.473 OA 
HETATM   25  C   UNL     1     -12.615  13.637  70.764  1.00  0.00    -0.397 A  
HETATM   26  C   UNL     1     -13.267  12.830  71.835  1.00  0.00    -0.412 C  
HETATM   27  C   UNL     1     -11.823  12.942  69.830  1.00  0.00    -0.380 A  
HETATM   28  H   UNL     1     -13.919  15.270  72.258  1.00  0.00     0.000 HD 
HETATM   29  O   UNL     1     -13.152  11.615  71.902  1.00  0.00    -0.478 OA 
HETATM   30  O   UNL     1     -13.991  13.532  72.734  1.00  0.00    -0.733 OA 
ENDBRANCH  18  20
ENDBRANCH  16  18
ENDBRANCH  13  16
ENDBRANCH   7  10
ENDBRANCH   5   6
ENDBRANCH   4   5
TORSDOF 6
ENDMDL
MODEL      143
REMARK 921   NORMALIZED FREE ENERGY PREDICTED BY IDOCK:   -5.36 KCAL/MOL
REMARK 922        TOTAL FREE ENERGY PREDICTED BY IDOCK:   -8.22 KCAL/MOL
REMARK 923 INTER-LIGAND FREE ENERGY PREDICTED BY IDOCK:   -7.23 KCAL/MOL
REMARK 924 INTRA-LIGAND FREE ENERGY PREDICTED BY IDOCK:   -0.99 KCAL/MOL
REMARK 927      BINDING AFFINITY PREDICTED BY RF-SCORE:    0.00 PKD
ROOT
HETATM    1  O   UNL     1      -7.460   3.338  67.202  1.00  0.00    -0.072 OA 
HETATM    2  C   UNL     1      -8.786   3.085  67.194  1.00  0.00    -0.143 C  
HETATM    3  O   UNL     1      -9.582   3.765  66.560  1.00  0.00    -0.198 OA 
HETATM    4  C   UNL     1      -9.191   1.901  68.027  1.00  0.00    -0.227 C  
ENDROOT
BRANCH   4   5
HETATM    5  C   UNL     1      -9.449   2.304  69.469  1.00  0.00    -0.047 C  
BRANCH   5   6
HETATM    6  N   UNL     1      -9.511   3.741  69.647  1.00  0.00    -0.180 N  
HETATM    7  C   UNL     1      -9.837   4.305  70.865  1.00  0.00    -0.189 C  
HETATM    8  H   UNL     1      -9.308   4.350  68.855  1.00  0.00     0.000 HD 
HETATM    9  O   UNL     1     -10.073   3.643  71.870  1.00  0.00    -0.174 OA 
BRANCH   7  10
HETATM   10  C   UNL     1      -9.952   5.793  70.896  1.00  0.00    -0.243 A  
HETATM   11  C   UNL     1     -11.124   6.363  71.407  1.00  0.00    -0.328 A  
HETATM   12  C   UNL     1     -11.303   7.753  71.386  1.00  0.00    -0.281 A  
HETATM   13  C   UNL     1     -10.316   8.605  70.872  1.00  0.00    -0.211 A  
HETATM   14  C   UNL     1      -8.938   6.633  70.422  1.00  0.00    -0.152 A  
HETATM   15  C   UNL     1      -9.128   8.024  70.400  1.00  0.00    -0.150 A  
BRANCH  13  16
HETATM   16  N   UNL     1     -10.608   9.986  70.791  1.00  0.00    -0.378 NA 
HETATM   17  H   UNL     1     -10.521  10.628  71.579  1.00  0.00     0.000 HD 
BRANCH  16  18
HETATM   18  N   UNL     1     -10.982  10.337  69.653  1.00  0.00    -0.252 NA 
HETATM   19  H   UNL     1     -10.966   9.723  68.838  1.00  0.00     0.000 HD 
BRANCH  18  20
HETATM   20  C   UNL     1     -11.431  11.676  69.612  1.00  0.00    -0.288 A  
HETATM   21  C   UNL     1     -11.006  12.609  68.654  1.00  0.00    -0.292 A  
HETATM   22  C   UNL     1     -11.417  13.946  68.711  1.00  0.00    -0.327 A  
HETATM   23  C   UNL     1     -12.254  14.368  69.743  1.00  0.00    -0.321 A  
HETATM   24  O   UNL     1     -12.630  15.685  69.805  1.00  0.00    -0.569 OA 
HETATM   25  C   UNL     1     -12.700  13.461  70.714  1.00  0.00    -0.301 A  
HETATM   26  C   UNL     1     -13.588  13.829  71.854  1.00  0.00    -0.429 C  
HETATM   27  C   UNL     1     -12.278  12.120  70.635  1.00  0.00    -0.392 A  
HETATM   28  H   UNL     1     -13.200  15.973  70.509  1.00  0.00     0.000 HD 
HETATM   29  O   UNL     1     -13.965  13.010  72.681  1.00  0.00    -0.657 OA 
HETATM   30  O   UNL     1     -13.945  15.129  71.919  1.00  0.00    -0.427 OA 
ENDBRANCH  18  20
ENDBRANCH  16  18
ENDBRANCH  13  16
ENDBRANCH   7  10
ENDBRANCH   5   6
ENDBRANCH   4   5
TORSDOF 6
ENDMDL
MODEL      144
REMARK 921   NORMALIZED FREE ENERGY PREDICTED BY IDOCK:   -5.35 KCAL/MOL
REMARK 922        TOTAL FREE ENERGY PREDICTED BY IDOCK:   -8.22 KCAL/MOL
REMARK 923 INTER-LIGAND FREE ENERGY PREDICTED BY IDOCK:   -7.22 KCAL/MOL
REMARK 924 INTRA-LIGAND FREE ENERGY PREDICTED BY IDOCK:   -1.00 KCAL/MOL
REMARK 927      BINDING AFFINITY PREDICTED BY RF-SCORE:    0.00 PKD
ROOT
HETATM    1  O   UNL     1      -7.473  16.283  67.114  1.00  0.00    -0.161 OA 
HETATM    2  C   UNL     1      -8.803  16.328  67.343  1.00  0.00    -0.186 C  
HETATM    3  O   UNL     1      -9.286  16.148  68.452  1.00  0.00    -0.197 OA 
HETATM    4  C   UNL     1      -9.627  16.620  66.120  1.00  0.00    -0.323 C  
ENDROOT
BRANCH   4   5
HETATM    5  C   UNL     1      -9.972  15.344  65.371  1.00  0.00    -0.321 C  
BRANCH   5   6
HETATM    6  N   UNL     1     -10.138  14.205  66.250  1.00  0.00    -0.290 N  
HETATM    7  C   UNL     1     -11.388  13.785  66.663  1.00  0.00    -0.328 C  
HETATM    8  H   UNL     1      -9.312  13.700  66.572  1.00  0.00     0.000 HD 
HETATM    9  O   UNL     1     -12.429  14.324  66.304  1.00  0.00    -0.445 OA 
BRANCH   7  10
HETATM   10  C   UNL     1     -11.419  12.654  67.636  1.00  0.00    -0.390 A  
HETATM   11  C   UNL     1     -11.044  11.380  67.195  1.00  0.00    -0.366 A  
HETATM   12  C   UNL     1     -11.129  10.278  68.057  1.00  0.00    -0.336 A  
HETATM   13  C   UNL     1     -11.574  10.421  69.377  1.00  0.00    -0.202 A  
HETATM   14  C   UNL     1     -11.822  12.821  68.966  1.00  0.00    -0.344 A  
HETATM   15  C   UNL     1     -11.909  11.711  69.821  1.00  0.00    -0.428 A  
BRANCH  13  16
HETATM   16  N   UNL     1     -11.730   9.252  70.156  1.00  0.00    -0.465 NA 
HETATM   17  H   UNL     1     -12.009   8.350  69.769  1.00  0.00     0.000 HD 
BRANCH  16  18
HETATM   18  N   UNL     1     -11.490   9.439  71.367  1.00  0.00    -0.352 NA 
HETATM   19  H   UNL     1     -11.944  10.160  71.928  1.00  0.00     0.000 HD 
BRANCH  18  20
HETATM   20  C   UNL     1     -10.523   8.545  71.879  1.00  0.00    -0.317 A  
HETATM   21  C   UNL     1      -9.143   8.798  71.856  1.00  0.00    -0.291 A  
HETATM   22  C   UNL     1      -8.223   7.842  72.299  1.00  0.00    -0.149 A  
HETATM   23  C   UNL     1      -8.678   6.608  72.762  1.00  0.00    -0.122 A  
HETATM   24  O   UNL     1      -7.767   5.668  73.170  1.00  0.00    -0.099 OA 
HETATM   25  C   UNL     1     -10.050   6.325  72.801  1.00  0.00    -0.194 A  
HETATM   26  C   UNL     1     -10.621   5.030  73.272  1.00  0.00    -0.234 C  
HETATM   27  C   UNL     1     -10.958   7.303  72.355  1.00  0.00    -0.306 A  
HETATM   28  H   UNL     1      -8.077   4.826  73.485  1.00  0.00     0.000 HD 
HETATM   29  O   UNL     1     -11.824   4.817  73.301  1.00  0.00    -0.261 OA 
HETATM   30  O   UNL     1      -9.720   4.102  73.660  1.00  0.00    -0.111 OA 
ENDBRANCH  18  20
ENDBRANCH  16  18
ENDBRANCH  13  16
ENDBRANCH   7  10
ENDBRANCH   5   6
ENDBRANCH   4   5
TORSDOF 6
ENDMDL
MODEL      145
REMARK 921   NORMALIZED FREE ENERGY PREDICTED BY IDOCK:   -5.35 KCAL/MOL
REMARK 922        TOTAL FREE ENERGY PREDICTED BY IDOCK:   -8.21 KCAL/MOL
REMARK 923 INTER-LIGAND FREE ENERGY PREDICTED BY IDOCK:   -7.43 KCAL/MOL
REMARK 924 INTRA-LIGAND FREE ENERGY PREDICTED BY IDOCK:   -0.78 KCAL/MOL
REMARK 927      BINDING AFFINITY PREDICTED BY RF-SCORE:    0.00 PKD
ROOT
HETATM    1  O   UNL     1      -8.860  20.397  67.990  1.00  0.00    -0.159 OA 
HETATM    2  C   UNL     1      -9.019  20.051  66.694  1.00  0.00    -0.355 C  
HETATM    3  O   UNL     1     -10.118  19.838  66.200  1.00  0.00    -0.435 OA 
HETATM    4  C   UNL     1      -7.733  19.952  65.922  1.00  0.00    -0.327 C  
ENDROOT
BRANCH   4   5
HETATM    5  C   UNL     1      -7.124  18.566  66.042  1.00  0.00    -0.271 C  
BRANCH   5   6
HETATM    6  N   UNL     1      -8.119  17.513  66.035  1.00  0.00    -0.188 N  
HETATM    7  C   UNL     1      -8.446  16.818  67.184  1.00  0.00    -0.186 C  
HETATM    8  H   UNL     1      -8.589  17.278  65.161  1.00  0.00     0.000 HD 
HETATM    9  O   UNL     1      -7.942  17.054  68.276  1.00  0.00    -0.204 OA 
BRANCH   7  10
HETATM   10  C   UNL     1      -9.422  15.700  67.027  1.00  0.00    -0.236 A  
HETATM   11  C   UNL     1      -9.785  14.964  68.161  1.00  0.00    -0.214 A  
HETATM   12  C   UNL     1     -10.641  13.861  68.045  1.00  0.00    -0.252 A  
HETATM   13  C   UNL     1     -11.164  13.474  66.804  1.00  0.00    -0.310 A  
HETATM   14  C   UNL     1      -9.973  15.355  65.787  1.00  0.00    -0.393 A  
HETATM   15  C   UNL     1     -10.825  14.245  65.679  1.00  0.00    -0.311 A  
BRANCH  13  16
HETATM   16  N   UNL     1     -11.938  12.293  66.748  1.00  0.00    -0.605 NA 
HETATM   17  H   UNL     1     -12.714  12.157  66.100  1.00  0.00     0.000 HD 
BRANCH  16  18
HETATM   18  N   UNL     1     -11.571  11.432  67.576  1.00  0.00    -0.558 NA 
HETATM   19  H   UNL     1     -11.770  11.489  68.575  1.00  0.00     0.000 HD 
BRANCH  18  20
HETATM   20  C   UNL     1     -10.852  10.371  66.981  1.00  0.00    -0.203 A  
HETATM   21  C   UNL     1     -10.598   9.150  67.623  1.00  0.00    -0.307 A  
HETATM   22  C   UNL     1      -9.807   8.165  67.021  1.00  0.00    -0.299 A  
HETATM   23  C   UNL     1      -9.249   8.400  65.765  1.00  0.00    -0.111 A  
HETATM   24  O   UNL     1      -8.454   7.439  65.194  1.00  0.00    -0.268 OA 
HETATM   25  C   UNL     1      -9.486   9.607  65.095  1.00  0.00    -0.332 A  
HETATM   26  C   UNL     1      -8.922   9.944  63.756  1.00  0.00    -0.250 C  
HETATM   27  C   UNL     1     -10.289  10.583  65.717  1.00  0.00    -0.270 A  
HETATM   28  H   UNL     1      -8.074   7.599  64.338  1.00  0.00     0.000 HD 
HETATM   29  O   UNL     1      -9.156  11.005  63.195  1.00  0.00    -0.240 OA 
HETATM   30  O   UNL     1      -8.130   9.000  63.204  1.00  0.00    -0.150 OA 
ENDBRANCH  18  20
ENDBRANCH  16  18
ENDBRANCH  13  16
ENDBRANCH   7  10
ENDBRANCH   5   6
ENDBRANCH   4   5
TORSDOF 6
ENDMDL
MODEL      146
REMARK 921   NORMALIZED FREE ENERGY PREDICTED BY IDOCK:   -5.35 KCAL/MOL
REMARK 922        TOTAL FREE ENERGY PREDICTED BY IDOCK:   -8.21 KCAL/MOL
REMARK 923 INTER-LIGAND FREE ENERGY PREDICTED BY IDOCK:   -7.56 KCAL/MOL
REMARK 924 INTRA-LIGAND FREE ENERGY PREDICTED BY IDOCK:   -0.65 KCAL/MOL
REMARK 927      BINDING AFFINITY PREDICTED BY RF-SCORE:    0.00 PKD
ROOT
HETATM    1  O   UNL     1      -7.555  16.809  66.611  1.00  0.00    -0.217 OA 
HETATM    2  C   UNL     1      -8.337  16.417  67.639  1.00  0.00    -0.165 C  
HETATM    3  O   UNL     1      -7.936  15.676  68.526  1.00  0.00    -0.129 OA 
HETATM    4  C   UNL     1      -9.734  16.971  67.595  1.00  0.00    -0.257 C  
ENDROOT
BRANCH   4   5
HETATM    5  C   UNL     1     -10.654  16.081  66.778  1.00  0.00    -0.297 C  
BRANCH   5   6
HETATM    6  N   UNL     1     -10.984  14.843  67.455  1.00  0.00    -0.305 N  
HETATM    7  C   UNL     1     -11.738  14.830  68.613  1.00  0.00    -0.325 C  
HETATM    8  H   UNL     1     -10.652  13.960  67.067  1.00  0.00     0.000 HD 
HETATM    9  O   UNL     1     -12.191  15.845  69.130  1.00  0.00    -0.264 OA 
BRANCH   7  10
HETATM   10  C   UNL     1     -11.934  13.499  69.260  1.00  0.00    -0.378 A  
HETATM   11  C   UNL     1     -11.668  12.346  68.513  1.00  0.00    -0.373 A  
HETATM   12  C   UNL     1     -11.909  11.077  69.058  1.00  0.00    -0.399 A  
HETATM   13  C   UNL     1     -12.405  10.929  70.360  1.00  0.00    -0.351 A  
HETATM   14  C   UNL     1     -12.386  13.366  70.578  1.00  0.00    -0.401 A  
HETATM   15  C   UNL     1     -12.630  12.092  71.114  1.00  0.00    -0.360 A  
BRANCH  13  16
HETATM   16  N   UNL     1     -12.719   9.625  70.806  1.00  0.00    -0.519 NA 
HETATM   17  H   UNL     1     -13.584   9.139  70.565  1.00  0.00     0.000 HD 
BRANCH  16  18
HETATM   18  N   UNL     1     -11.827   9.129  71.525  1.00  0.00    -0.331 NA 
HETATM   19  H   UNL     1     -11.418   9.607  72.327  1.00  0.00     0.000 HD 
BRANCH  18  20
HETATM   20  C   UNL     1     -11.443   7.834  71.108  1.00  0.00    -0.274 A  
HETATM   21  C   UNL     1     -11.060   6.815  71.993  1.00  0.00    -0.283 A  
HETATM   22  C   UNL     1     -10.607   5.577  71.523  1.00  0.00    -0.302 A  
HETATM   23  C   UNL     1     -10.522   5.350  70.150  1.00  0.00    -0.290 A  
HETATM   24  O   UNL     1     -10.053   4.143  69.698  1.00  0.00    -0.121 OA 
HETATM   25  C   UNL     1     -10.901   6.345  69.239  1.00  0.00    -0.387 A  
HETATM   26  C   UNL     1     -10.833   6.189  67.757  1.00  0.00    -0.325 C  
HETATM   27  C   UNL     1     -11.358   7.581  69.734  1.00  0.00     0.007 A  
HETATM   28  H   UNL     1      -9.995   3.988  68.762  1.00  0.00     0.000 HD 
HETATM   29  O   UNL     1     -11.178   7.076  66.989  1.00  0.00    -0.328 OA 
HETATM   30  O   UNL     1     -10.358   5.005  67.317  1.00  0.00    -0.188 OA 
ENDBRANCH  18  20
ENDBRANCH  16  18
ENDBRANCH  13  16
ENDBRANCH   7  10
ENDBRANCH   5   6
ENDBRANCH   4   5
TORSDOF 6
ENDMDL
MODEL      147
REMARK 921   NORMALIZED FREE ENERGY PREDICTED BY IDOCK:   -5.35 KCAL/MOL
REMARK 922        TOTAL FREE ENERGY PREDICTED BY IDOCK:   -8.21 KCAL/MOL
REMARK 923 INTER-LIGAND FREE ENERGY PREDICTED BY IDOCK:   -7.91 KCAL/MOL
REMARK 924 INTRA-LIGAND FREE ENERGY PREDICTED BY IDOCK:   -0.29 KCAL/MOL
REMARK 927      BINDING AFFINITY PREDICTED BY RF-SCORE:    0.00 PKD
ROOT
HETATM    1  O   UNL     1     -11.724  16.299  72.782  1.00  0.00    -0.477 OA 
HETATM    2  C   UNL     1     -12.617  15.523  73.432  1.00  0.00    -0.525 C  
HETATM    3  O   UNL     1     -12.289  14.726  74.299  1.00  0.00    -0.535 OA 
HETATM    4  C   UNL     1     -14.042  15.729  72.996  1.00  0.00    -0.167 C  
ENDROOT
BRANCH   4   5
HETATM    5  C   UNL     1     -14.389  14.843  71.813  1.00  0.00    -0.578 C  
BRANCH   5   6
HETATM    6  N   UNL     1     -13.650  15.188  70.616  1.00  0.00    -0.704 N  
HETATM    7  C   UNL     1     -12.633  14.385  70.135  1.00  0.00    -0.286 C  
HETATM    8  H   UNL     1     -13.887  16.045  70.115  1.00  0.00     0.000 HD 
HETATM    9  O   UNL     1     -12.303  13.331  70.667  1.00  0.00    -0.356 OA 
BRANCH   7  10
HETATM   10  C   UNL     1     -11.892  14.896  68.945  1.00  0.00    -0.334 A  
HETATM   11  C   UNL     1     -11.412  13.973  68.009  1.00  0.00    -0.342 A  
HETATM   12  C   UNL     1     -10.648  14.405  66.916  1.00  0.00    -0.278 A  
HETATM   13  C   UNL     1     -10.359  15.762  66.722  1.00  0.00    -0.293 A  
HETATM   14  C   UNL     1     -11.652  16.260  68.740  1.00  0.00    -0.223 A  
HETATM   15  C   UNL     1     -10.882  16.683  67.645  1.00  0.00    -0.258 A  
BRANCH  13  16
HETATM   16  N   UNL     1      -9.500  16.113  65.656  1.00  0.00    -0.443 NA 
HETATM   17  H   UNL     1      -9.548  15.687  64.730  1.00  0.00     0.000 HD 
BRANCH  16  18
HETATM   18  N   UNL     1      -8.677  16.999  65.966  1.00  0.00    -0.523 NA 
HETATM   19  H   UNL     1      -8.582  17.882  65.465  1.00  0.00     0.000 HD 
BRANCH  18  20
HETATM   20  C   UNL     1      -7.889  16.647  67.085  1.00  0.00    -0.179 A  
HETATM   21  C   UNL     1      -7.517  17.554  68.089  1.00  0.00    -0.218 A  
HETATM   22  C   UNL     1      -6.664  17.173  69.131  1.00  0.00    -0.238 A  
HETATM   23  C   UNL     1      -6.161  15.873  69.172  1.00  0.00    -0.140 A  
HETATM   24  O   UNL     1      -5.306  15.517  70.182  1.00  0.00    -0.117 OA 
HETATM   25  C   UNL     1      -6.516  14.941  68.187  1.00  0.00    -0.140 A  
HETATM   26  C   UNL     1      -6.018  13.536  68.150  1.00  0.00    -0.115 C  
HETATM   27  C   UNL     1      -7.379  15.344  67.150  1.00  0.00    -0.203 A  
HETATM   28  H   UNL     1      -4.963  14.631  70.210  1.00  0.00     0.000 HD 
HETATM   29  O   UNL     1      -6.353  12.746  67.279  1.00  0.00    -0.174 OA 
HETATM   30  O   UNL     1      -5.166  13.193  69.139  1.00  0.00    -0.069 OA 
ENDBRANCH  18  20
ENDBRANCH  16  18
ENDBRANCH  13  16
ENDBRANCH   7  10
ENDBRANCH   5   6
ENDBRANCH   4   5
TORSDOF 6
ENDMDL
MODEL      148
REMARK 921   NORMALIZED FREE ENERGY PREDICTED BY IDOCK:   -5.33 KCAL/MOL
REMARK 922        TOTAL FREE ENERGY PREDICTED BY IDOCK:   -8.19 KCAL/MOL
REMARK 923 INTER-LIGAND FREE ENERGY PREDICTED BY IDOCK:   -7.84 KCAL/MOL
REMARK 924 INTRA-LIGAND FREE ENERGY PREDICTED BY IDOCK:   -0.35 KCAL/MOL
REMARK 927      BINDING AFFINITY PREDICTED BY RF-SCORE:    0.00 PKD
ROOT
HETATM    1  O   UNL     1     -10.182  10.708  64.689  1.00  0.00    -0.333 OA 
HETATM    2  C   UNL     1     -10.370  11.414  63.554  1.00  0.00    -0.423 C  
HETATM    3  O   UNL     1      -9.460  11.668  62.778  1.00  0.00    -0.348 OA 
HETATM    4  C   UNL     1     -11.791  11.853  63.332  1.00  0.00    -0.512 C  
ENDROOT
BRANCH   4   5
HETATM    5  C   UNL     1     -12.066  13.187  64.005  1.00  0.00    -0.446 C  
BRANCH   5   6
HETATM    6  N   UNL     1     -11.046  13.552  64.966  1.00  0.00    -0.315 N  
HETATM    7  C   UNL     1     -11.336  13.707  66.308  1.00  0.00    -0.312 C  
HETATM    8  H   UNL     1     -10.089  13.699  64.644  1.00  0.00     0.000 HD 
HETATM    9  O   UNL     1     -12.455  13.530  66.776  1.00  0.00    -0.310 OA 
BRANCH   7  10
HETATM   10  C   UNL     1     -10.216  14.171  67.179  1.00  0.00    -0.258 A  
HETATM   11  C   UNL     1     -10.508  15.038  68.238  1.00  0.00    -0.237 A  
HETATM   12  C   UNL     1      -9.476  15.554  69.035  1.00  0.00    -0.242 A  
HETATM   13  C   UNL     1      -8.138  15.209  68.805  1.00  0.00    -0.166 A  
HETATM   14  C   UNL     1      -8.890  13.779  66.965  1.00  0.00    -0.230 A  
HETATM   15  C   UNL     1      -7.863  14.305  67.765  1.00  0.00    -0.173 A  
BRANCH  13  16
HETATM   16  N   UNL     1      -7.145  15.846  69.582  1.00  0.00    -0.176 NA 
HETATM   17  H   UNL     1      -7.179  15.908  70.600  1.00  0.00     0.000 HD 
BRANCH  16  18
HETATM   18  N   UNL     1      -6.221  16.325  68.892  1.00  0.00    -0.133 NA 
HETATM   19  H   UNL     1      -5.247  16.033  68.972  1.00  0.00     0.000 HD 
BRANCH  18  20
HETATM   20  C   UNL     1      -6.668  17.317  67.990  1.00  0.00    -0.173 A  
HETATM   21  C   UNL     1      -6.013  17.624  66.787  1.00  0.00    -0.203 A  
HETATM   22  C   UNL     1      -6.450  18.674  65.971  1.00  0.00    -0.261 A  
HETATM   23  C   UNL     1      -7.549  19.439  66.360  1.00  0.00    -0.271 A  
HETATM   24  O   UNL     1      -7.954  20.482  65.567  1.00  0.00    -0.497 OA 
HETATM   25  C   UNL     1      -8.227  19.156  67.553  1.00  0.00    -0.310 A  
HETATM   26  C   UNL     1      -9.403  19.929  68.048  1.00  0.00    -0.329 C  
HETATM   27  C   UNL     1      -7.773  18.093  68.357  1.00  0.00    -0.303 A  
HETATM   28  H   UNL     1      -8.702  21.004  65.832  1.00  0.00     0.000 HD 
HETATM   29  O   UNL     1      -9.977  19.651  69.091  1.00  0.00    -0.441 OA 
HETATM   30  O   UNL     1      -9.790  20.962  67.271  1.00  0.00    -0.444 OA 
ENDBRANCH  18  20
ENDBRANCH  16  18
ENDBRANCH  13  16
ENDBRANCH   7  10
ENDBRANCH   5   6
ENDBRANCH   4   5
TORSDOF 6
ENDMDL
MODEL      149
REMARK 921   NORMALIZED FREE ENERGY PREDICTED BY IDOCK:   -5.33 KCAL/MOL
REMARK 922        TOTAL FREE ENERGY PREDICTED BY IDOCK:   -8.19 KCAL/MOL
REMARK 923 INTER-LIGAND FREE ENERGY PREDICTED BY IDOCK:   -7.37 KCAL/MOL
REMARK 924 INTRA-LIGAND FREE ENERGY PREDICTED BY IDOCK:   -0.82 KCAL/MOL
REMARK 927      BINDING AFFINITY PREDICTED BY RF-SCORE:    0.00 PKD
ROOT
HETATM    1  O   UNL     1      -8.977   3.584  66.872  1.00  0.00    -0.129 OA 
HETATM    2  C   UNL     1      -9.900   4.445  67.352  1.00  0.00    -0.143 C  
HETATM    3  O   UNL     1     -10.675   5.050  66.625  1.00  0.00    -0.254 OA 
HETATM    4  C   UNL     1      -9.885   4.591  68.848  1.00  0.00    -0.190 C  
ENDROOT
BRANCH   4   5
HETATM    5  C   UNL     1      -8.903   5.662  69.288  1.00  0.00    -0.111 C  
BRANCH   5   6
HETATM    6  N   UNL     1      -9.317   6.996  68.903  1.00  0.00    -0.139 N  
HETATM    7  C   UNL     1     -10.155   7.753  69.699  1.00  0.00    -0.196 C  
HETATM    8  H   UNL     1      -8.981   7.386  68.022  1.00  0.00     0.000 HD 
HETATM    9  O   UNL     1     -10.585   7.364  70.780  1.00  0.00    -0.219 OA 
BRANCH   7  10
HETATM   10  C   UNL     1     -10.577   9.075  69.148  1.00  0.00    -0.219 A  
HETATM   11  C   UNL     1     -11.243   9.970  69.994  1.00  0.00    -0.345 A  
HETATM   12  C   UNL     1     -11.721  11.190  69.497  1.00  0.00    -0.405 A  
HETATM   13  C   UNL     1     -11.534  11.552  68.157  1.00  0.00    -0.315 A  
HETATM   14  C   UNL     1     -10.342   9.442  67.819  1.00  0.00    -0.291 A  
HETATM   15  C   UNL     1     -10.828  10.664  67.329  1.00  0.00    -0.345 A  
BRANCH  13  16
HETATM   16  N   UNL     1     -12.130  12.751  67.703  1.00  0.00    -0.351 NA 
HETATM   17  H   UNL     1     -13.083  13.031  67.938  1.00  0.00     0.000 HD 
BRANCH  16  18
HETATM   18  N   UNL     1     -11.369  13.432  66.986  1.00  0.00    -0.305 NA 
HETATM   19  H   UNL     1     -11.048  13.136  66.063  1.00  0.00     0.000 HD 
BRANCH  18  20
HETATM   20  C   UNL     1     -10.998  14.656  67.586  1.00  0.00    -0.293 A  
HETATM   21  C   UNL     1     -10.799  14.815  68.966  1.00  0.00    -0.250 A  
HETATM   22  C   UNL     1     -10.516  16.069  69.519  1.00  0.00    -0.286 A  
HETATM   23  C   UNL     1     -10.439  17.187  68.690  1.00  0.00    -0.366 A  
HETATM   24  O   UNL     1     -10.186  18.416  69.244  1.00  0.00    -0.443 OA 
HETATM   25  C   UNL     1     -10.628  17.062  67.307  1.00  0.00    -0.267 A  
HETATM   26  C   UNL     1     -10.572  18.205  66.351  1.00  0.00    -0.271 C  
HETATM   27  C   UNL     1     -10.907  15.791  66.772  1.00  0.00    -0.254 A  
HETATM   28  H   UNL     1     -10.134  19.178  68.679  1.00  0.00     0.000 HD 
HETATM   29  O   UNL     1     -10.734  18.061  65.148  1.00  0.00    -0.612 OA 
HETATM   30  O   UNL     1     -10.336  19.415  66.902  1.00  0.00    -0.373 OA 
ENDBRANCH  18  20
ENDBRANCH  16  18
ENDBRANCH  13  16
ENDBRANCH   7  10
ENDBRANCH   5   6
ENDBRANCH   4   5
TORSDOF 6
ENDMDL
MODEL      150
REMARK 921   NORMALIZED FREE ENERGY PREDICTED BY IDOCK:   -5.33 KCAL/MOL
REMARK 922        TOTAL FREE ENERGY PREDICTED BY IDOCK:   -8.19 KCAL/MOL
REMARK 923 INTER-LIGAND FREE ENERGY PREDICTED BY IDOCK:   -7.51 KCAL/MOL
REMARK 924 INTRA-LIGAND FREE ENERGY PREDICTED BY IDOCK:   -0.68 KCAL/MOL
REMARK 927      BINDING AFFINITY PREDICTED BY RF-SCORE:    0.00 PKD
ROOT
HETATM    1  O   UNL     1      -9.334   2.947  71.678  1.00  0.00    -0.105 OA 
HETATM    2  C   UNL     1      -9.903   2.493  72.815  1.00  0.00    -0.127 C  
HETATM    3  O   UNL     1     -10.607   1.494  72.845  1.00  0.00    -0.119 OA 
HETATM    4  C   UNL     1      -9.593   3.322  74.031  1.00  0.00    -0.127 C  
ENDROOT
BRANCH   4   5
HETATM    5  C   UNL     1     -10.587   4.460  74.189  1.00  0.00    -0.270 C  
BRANCH   5   6
HETATM    6  N   UNL     1     -10.598   5.358  73.052  1.00  0.00    -0.216 N  
HETATM    7  C   UNL     1      -9.959   6.582  73.090  1.00  0.00    -0.178 C  
HETATM    8  H   UNL     1     -11.090   5.080  72.203  1.00  0.00     0.000 HD 
HETATM    9  O   UNL     1      -9.330   6.981  74.064  1.00  0.00    -0.200 OA 
BRANCH   7  10
HETATM   10  C   UNL     1     -10.119   7.451  71.886  1.00  0.00    -0.204 A  
HETATM   11  C   UNL     1      -9.580   8.742  71.916  1.00  0.00    -0.372 A  
HETATM   12  C   UNL     1      -9.771   9.614  70.836  1.00  0.00    -0.125 A  
HETATM   13  C   UNL     1     -10.488   9.218  69.700  1.00  0.00    -0.224 A  
HETATM   14  C   UNL     1     -10.798   7.023  70.739  1.00  0.00    -0.272 A  
HETATM   15  C   UNL     1     -10.989   7.906  69.664  1.00  0.00    -0.114 A  
BRANCH  13  16
HETATM   16  N   UNL     1     -10.727  10.183  68.695  1.00  0.00    -0.211 NA 
HETATM   17  H   UNL     1     -10.006  10.527  68.061  1.00  0.00     0.000 HD 
BRANCH  16  18
HETATM   18  N   UNL     1     -11.914  10.569  68.665  1.00  0.00    -0.769 NA 
HETATM   19  H   UNL     1     -12.563  10.340  67.911  1.00  0.00     0.000 HD 
BRANCH  18  20
HETATM   20  C   UNL     1     -12.263  11.358  69.784  1.00  0.00    -0.265 A  
HETATM   21  C   UNL     1     -12.962  10.863  70.895  1.00  0.00    -0.347 A  
HETATM   22  C   UNL     1     -13.356  11.707  71.939  1.00  0.00    -0.403 A  
HETATM   23  C   UNL     1     -13.063  13.069  71.874  1.00  0.00    -0.384 A  
HETATM   24  O   UNL     1     -13.477  13.892  72.889  1.00  0.00    -0.653 OA 
HETATM   25  C   UNL     1     -12.364  13.595  70.780  1.00  0.00    -0.446 A  
HETATM   26  C   UNL     1     -12.018  15.037  70.626  1.00  0.00    -0.318 C  
HETATM   27  C   UNL     1     -11.972  12.727  69.743  1.00  0.00    -0.362 A  
HETATM   28  H   UNL     1     -13.278  14.820  72.845  1.00  0.00     0.000 HD 
HETATM   29  O   UNL     1     -11.399  15.463  69.661  1.00  0.00    -0.262 OA 
HETATM   30  O   UNL     1     -12.439  15.847  71.622  1.00  0.00    -0.435 OA 
ENDBRANCH  18  20
ENDBRANCH  16  18
ENDBRANCH  13  16
ENDBRANCH   7  10
ENDBRANCH   5   6
ENDBRANCH   4   5
TORSDOF 6
ENDMDL
MODEL      151
REMARK 921   NORMALIZED FREE ENERGY PREDICTED BY IDOCK:   -5.32 KCAL/MOL
REMARK 922        TOTAL FREE ENERGY PREDICTED BY IDOCK:   -8.18 KCAL/MOL
REMARK 923 INTER-LIGAND FREE ENERGY PREDICTED BY IDOCK:   -7.07 KCAL/MOL
REMARK 924 INTRA-LIGAND FREE ENERGY PREDICTED BY IDOCK:   -1.11 KCAL/MOL
REMARK 927      BINDING AFFINITY PREDICTED BY RF-SCORE:    0.00 PKD
ROOT
HETATM    1  O   UNL     1     -12.124   8.970  72.052  1.00  0.00    -0.354 OA 
HETATM    2  C   UNL     1     -11.169   8.017  72.121  1.00  0.00    -0.319 C  
HETATM    3  O   UNL     1     -10.025   8.257  72.481  1.00  0.00    -0.266 OA 
HETATM    4  C   UNL     1     -11.639   6.647  71.717  1.00  0.00    -0.347 C  
ENDROOT
BRANCH   4   5
HETATM    5  C   UNL     1     -11.501   6.437  70.219  1.00  0.00    -0.402 C  
BRANCH   5   6
HETATM    6  N   UNL     1     -11.191   7.660  69.506  1.00  0.00    -0.452 N  
HETATM    7  C   UNL     1     -10.765   7.644  68.192  1.00  0.00    -0.066 C  
HETATM    8  H   UNL     1     -11.290   8.554  69.986  1.00  0.00     0.000 HD 
HETATM    9  O   UNL     1     -10.641   6.614  67.540  1.00  0.00    -0.207 OA 
BRANCH   7  10
HETATM   10  C   UNL     1     -10.395   8.963  67.599  1.00  0.00    -0.313 A  
HETATM   11  C   UNL     1     -10.257   9.058  66.210  1.00  0.00    -0.237 A  
HETATM   12  C   UNL     1      -9.840  10.258  65.620  1.00  0.00    -0.332 A  
HETATM   13  C   UNL     1      -9.565  11.393  66.396  1.00  0.00    -0.205 A  
HETATM   14  C   UNL     1     -10.170  10.100  68.384  1.00  0.00    -0.192 A  
HETATM   15  C   UNL     1      -9.747  11.297  67.785  1.00  0.00    -0.184 A  
BRANCH  13  16
HETATM   16  N   UNL     1      -9.052  12.536  65.742  1.00  0.00    -0.428 NA 
HETATM   17  H   UNL     1      -8.061  12.674  65.543  1.00  0.00     0.000 HD 
BRANCH  16  18
HETATM   18  N   UNL     1      -9.940  13.358  65.433  1.00  0.00    -0.478 NA 
HETATM   19  H   UNL     1     -10.694  13.155  64.777  1.00  0.00     0.000 HD 
BRANCH  18  20
HETATM   20  C   UNL     1      -9.788  14.601  66.088  1.00  0.00    -0.312 A  
HETATM   21  C   UNL     1     -10.749  15.622  66.049  1.00  0.00    -0.322 A  
HETATM   22  C   UNL     1     -10.511  16.866  66.645  1.00  0.00    -0.257 A  
HETATM   23  C   UNL     1      -9.293  17.106  67.280  1.00  0.00    -0.242 A  
HETATM   24  O   UNL     1      -9.059  18.336  67.838  1.00  0.00    -0.270 OA 
HETATM   25  C   UNL     1      -8.313  16.106  67.339  1.00  0.00    -0.191 A  
HETATM   26  C   UNL     1      -6.982  16.280  67.990  1.00  0.00    -0.130 C  
HETATM   27  C   UNL     1      -8.575  14.860  66.738  1.00  0.00    -0.256 A  
HETATM   28  H   UNL     1      -8.229  18.499  68.270  1.00  0.00     0.000 HD 
HETATM   29  O   UNL     1      -6.151  15.385  68.031  1.00  0.00    -0.119 OA 
HETATM   30  O   UNL     1      -6.751  17.498  68.526  1.00  0.00    -0.186 OA 
ENDBRANCH  18  20
ENDBRANCH  16  18
ENDBRANCH  13  16
ENDBRANCH   7  10
ENDBRANCH   5   6
ENDBRANCH   4   5
TORSDOF 6
ENDMDL
MODEL      152
REMARK 921   NORMALIZED FREE ENERGY PREDICTED BY IDOCK:   -5.32 KCAL/MOL
REMARK 922        TOTAL FREE ENERGY PREDICTED BY IDOCK:   -8.18 KCAL/MOL
REMARK 923 INTER-LIGAND FREE ENERGY PREDICTED BY IDOCK:   -7.17 KCAL/MOL
REMARK 924 INTRA-LIGAND FREE ENERGY PREDICTED BY IDOCK:   -1.01 KCAL/MOL
REMARK 927      BINDING AFFINITY PREDICTED BY RF-SCORE:    0.00 PKD
ROOT
HETATM    1  O   UNL     1      -8.363  18.751  66.201  1.00  0.00    -0.413 OA 
HETATM    2  C   UNL     1      -8.415  19.401  67.383  1.00  0.00    -0.296 C  
HETATM    3  O   UNL     1      -7.419  19.860  67.926  1.00  0.00    -0.280 OA 
HETATM    4  C   UNL     1      -9.797  19.508  67.965  1.00  0.00    -0.500 C  
ENDROOT
BRANCH   4   5
HETATM    5  C   UNL     1     -10.134  18.292  68.812  1.00  0.00    -0.370 C  
BRANCH   5   6
HETATM    6  N   UNL     1     -10.218  17.073  68.035  1.00  0.00    -0.303 N  
HETATM    7  C   UNL     1     -11.047  16.032  68.408  1.00  0.00    -0.351 C  
HETATM    8  H   UNL     1      -9.652  16.980  67.191  1.00  0.00     0.000 HD 
HETATM    9  O   UNL     1     -11.773  16.074  69.395  1.00  0.00    -0.337 OA 
BRANCH   7  10
HETATM   10  C   UNL     1     -10.977  14.797  67.572  1.00  0.00    -0.304 A  
HETATM   11  C   UNL     1     -10.168  14.806  66.431  1.00  0.00    -0.299 A  
HETATM   12  C   UNL     1     -10.132  13.693  65.579  1.00  0.00    -0.293 A  
HETATM   13  C   UNL     1     -10.886  12.545  65.852  1.00  0.00    -0.269 A  
HETATM   14  C   UNL     1     -11.701  13.640  67.884  1.00  0.00    -0.395 A  
HETATM   15  C   UNL     1     -11.662  12.532  67.023  1.00  0.00    -0.437 A  
BRANCH  13  16
HETATM   16  N   UNL     1     -10.878  11.503  64.898  1.00  0.00    -0.298 NA 
HETATM   17  H   UNL     1     -11.724  11.105  64.490  1.00  0.00     0.000 HD 
BRANCH  16  18
HETATM   18  N   UNL     1      -9.726  11.120  64.606  1.00  0.00    -0.248 NA 
HETATM   19  H   UNL     1      -9.248  11.375  63.741  1.00  0.00     0.000 HD 
BRANCH  18  20
HETATM   20  C   UNL     1      -9.153  10.296  65.600  1.00  0.00    -0.175 A  
HETATM   21  C   UNL     1      -7.878  10.510  66.146  1.00  0.00    -0.145 A  
HETATM   22  C   UNL     1      -7.324   9.613  67.068  1.00  0.00    -0.087 A  
HETATM   23  C   UNL     1      -8.042   8.479  67.445  1.00  0.00    -0.106 A  
HETATM   24  O   UNL     1      -7.480   7.594  68.328  1.00  0.00    -0.099 OA 
HETATM   25  C   UNL     1      -9.319   8.238  66.921  1.00  0.00    -0.222 A  
HETATM   26  C   UNL     1     -10.150   7.048  67.263  1.00  0.00    -0.204 C  
HETATM   27  C   UNL     1      -9.859   9.155  65.999  1.00  0.00    -0.342 A  
HETATM   28  H   UNL     1      -7.969   6.821  68.585  1.00  0.00     0.000 HD 
HETATM   29  O   UNL     1     -11.265   6.871  66.793  1.00  0.00    -0.279 OA 
HETATM   30  O   UNL     1      -9.588   6.172  68.123  1.00  0.00    -0.116 OA 
ENDBRANCH  18  20
ENDBRANCH  16  18
ENDBRANCH  13  16
ENDBRANCH   7  10
ENDBRANCH   5   6
ENDBRANCH   4   5
TORSDOF 6
ENDMDL
MODEL      153
REMARK 921   NORMALIZED FREE ENERGY PREDICTED BY IDOCK:   -5.30 KCAL/MOL
REMARK 922        TOTAL FREE ENERGY PREDICTED BY IDOCK:   -8.14 KCAL/MOL
REMARK 923 INTER-LIGAND FREE ENERGY PREDICTED BY IDOCK:   -7.50 KCAL/MOL
REMARK 924 INTRA-LIGAND FREE ENERGY PREDICTED BY IDOCK:   -0.65 KCAL/MOL
REMARK 927      BINDING AFFINITY PREDICTED BY RF-SCORE:    0.00 PKD
ROOT
HETATM    1  O   UNL     1     -13.503  16.441  73.802  1.00  0.00    -0.614 OA 
HETATM    2  C   UNL     1     -12.556  15.852  73.041  1.00  0.00    -0.501 C  
HETATM    3  O   UNL     1     -11.755  16.493  72.376  1.00  0.00    -0.507 OA 
HETATM    4  C   UNL     1     -12.577  14.350  73.088  1.00  0.00    -0.368 C  
ENDROOT
BRANCH   4   5
HETATM    5  C   UNL     1     -13.525  13.779  72.048  1.00  0.00    -0.470 C  
BRANCH   5   6
HETATM    6  N   UNL     1     -12.843  13.007  71.029  1.00  0.00    -0.250 N  
HETATM    7  C   UNL     1     -12.693  11.638  71.137  1.00  0.00    -0.325 C  
HETATM    8  H   UNL     1     -12.465  13.486  70.212  1.00  0.00     0.000 HD 
HETATM    9  O   UNL     1     -13.137  10.987  72.077  1.00  0.00    -0.496 OA 
BRANCH   7  10
HETATM   10  C   UNL     1     -11.896  10.972  70.065  1.00  0.00    -0.435 A  
HETATM   11  C   UNL     1     -11.102   9.871  70.408  1.00  0.00    -0.382 A  
HETATM   12  C   UNL     1     -10.282   9.263  69.447  1.00  0.00    -0.214 A  
HETATM   13  C   UNL     1     -10.245   9.726  68.126  1.00  0.00    -0.186 A  
HETATM   14  C   UNL     1     -11.906  11.417  68.738  1.00  0.00    -0.388 A  
HETATM   15  C   UNL     1     -11.078  10.805  67.784  1.00  0.00    -0.381 A  
BRANCH  13  16
HETATM   16  N   UNL     1      -9.321   9.130  67.239  1.00  0.00    -0.133 NA 
HETATM   17  H   UNL     1      -9.045   9.545  66.348  1.00  0.00     0.000 HD 
BRANCH  16  18
HETATM   18  N   UNL     1      -8.877   8.041  67.659  1.00  0.00    -0.125 NA 
HETATM   19  H   UNL     1      -8.258   7.957  68.466  1.00  0.00     0.000 HD 
BRANCH  18  20
HETATM   20  C   UNL     1      -9.322   6.937  66.899  1.00  0.00    -0.148 A  
HETATM   21  C   UNL     1     -10.552   6.295  67.108  1.00  0.00    -0.380 A  
HETATM   22  C   UNL     1     -10.907   5.152  66.382  1.00  0.00    -0.174 A  
HETATM   23  C   UNL     1     -10.021   4.629  65.441  1.00  0.00    -0.148 A  
HETATM   24  O   UNL     1     -10.367   3.494  64.753  1.00  0.00    -0.386 OA 
HETATM   25  C   UNL     1      -8.787   5.248  65.205  1.00  0.00    -0.130 A  
HETATM   26  C   UNL     1      -7.778   4.752  64.224  1.00  0.00    -0.079 C  
HETATM   27  C   UNL     1      -8.452   6.400  65.942  1.00  0.00    -0.147 A  
HETATM   28  H   UNL     1      -9.763   3.138  64.112  1.00  0.00     0.000 HD 
HETATM   29  O   UNL     1      -6.712   5.320  64.037  1.00  0.00    -0.043 OA 
HETATM   30  O   UNL     1      -8.117   3.627  63.559  1.00  0.00    -0.086 OA 
ENDBRANCH  18  20
ENDBRANCH  16  18
ENDBRANCH  13  16
ENDBRANCH   7  10
ENDBRANCH   5   6
ENDBRANCH   4   5
TORSDOF 6
ENDMDL
MODEL      154
REMARK 921   NORMALIZED FREE ENERGY PREDICTED BY IDOCK:   -5.30 KCAL/MOL
REMARK 922        TOTAL FREE ENERGY PREDICTED BY IDOCK:   -8.14 KCAL/MOL
REMARK 923 INTER-LIGAND FREE ENERGY PREDICTED BY IDOCK:   -7.24 KCAL/MOL
REMARK 924 INTRA-LIGAND FREE ENERGY PREDICTED BY IDOCK:   -0.91 KCAL/MOL
REMARK 927      BINDING AFFINITY PREDICTED BY RF-SCORE:    0.00 PKD
ROOT
HETATM    1  O   UNL     1     -12.473  15.647  70.243  1.00  0.00    -0.410 OA 
HETATM    2  C   UNL     1     -12.663  15.816  71.569  1.00  0.00    -0.450 C  
HETATM    3  O   UNL     1     -11.856  16.398  72.280  1.00  0.00    -0.534 OA 
HETATM    4  C   UNL     1     -13.948  15.229  72.085  1.00  0.00    -0.650 C  
ENDROOT
BRANCH   4   5
HETATM    5  C   UNL     1     -13.772  13.770  72.469  1.00  0.00    -0.561 C  
BRANCH   5   6
HETATM    6  N   UNL     1     -12.983  13.028  71.507  1.00  0.00    -0.352 N  
HETATM    7  C   UNL     1     -12.974  11.646  71.490  1.00  0.00    -0.358 C  
HETATM    8  H   UNL     1     -12.421  13.537  70.825  1.00  0.00     0.000 HD 
HETATM    9  O   UNL     1     -13.637  10.962  72.262  1.00  0.00    -0.243 OA 
BRANCH   7  10
HETATM   10  C   UNL     1     -12.053  11.001  70.508  1.00  0.00    -0.470 A  
HETATM   11  C   UNL     1     -11.207   9.980  70.955  1.00  0.00    -0.415 A  
HETATM   12  C   UNL     1     -10.276   9.399  70.082  1.00  0.00    -0.271 A  
HETATM   13  C   UNL     1     -10.177   9.811  68.747  1.00  0.00    -0.194 A  
HETATM   14  C   UNL     1     -11.999  11.391  69.165  1.00  0.00    -0.395 A  
HETATM   15  C   UNL     1     -11.060  10.808  68.299  1.00  0.00    -0.327 A  
BRANCH  13  16
HETATM   16  N   UNL     1      -9.149   9.252  67.954  1.00  0.00    -0.127 NA 
HETATM   17  H   UNL     1      -8.804   9.680  67.095  1.00  0.00     0.000 HD 
BRANCH  16  18
HETATM   18  N   UNL     1      -8.706   8.180  68.417  1.00  0.00    -0.134 NA 
HETATM   19  H   UNL     1      -8.462   8.047  69.399  1.00  0.00     0.000 HD 
BRANCH  18  20
HETATM   20  C   UNL     1      -8.579   7.171  67.437  1.00  0.00    -0.121 A  
HETATM   21  C   UNL     1      -8.238   7.425  66.100  1.00  0.00    -0.130 A  
HETATM   22  C   UNL     1      -8.208   6.397  65.151  1.00  0.00    -0.134 A  
HETATM   23  C   UNL     1      -8.535   5.096  65.531  1.00  0.00    -0.138 A  
HETATM   24  O   UNL     1      -8.529   4.101  64.588  1.00  0.00    -0.105 OA 
HETATM   25  C   UNL     1      -8.877   4.807  66.859  1.00  0.00    -0.110 A  
HETATM   26  C   UNL     1      -9.248   3.448  67.349  1.00  0.00    -0.195 C  
HETATM   27  C   UNL     1      -8.895   5.856  67.799  1.00  0.00    -0.109 A  
HETATM   28  H   UNL     1      -8.752   3.214  64.848  1.00  0.00     0.000 HD 
HETATM   29  O   UNL     1      -9.534   3.229  68.517  1.00  0.00    -0.178 OA 
HETATM   30  O   UNL     1      -9.253   2.474  66.415  1.00  0.00    -0.123 OA 
ENDBRANCH  18  20
ENDBRANCH  16  18
ENDBRANCH  13  16
ENDBRANCH   7  10
ENDBRANCH   5   6
ENDBRANCH   4   5
TORSDOF 6
ENDMDL
MODEL      155
REMARK 921   NORMALIZED FREE ENERGY PREDICTED BY IDOCK:   -5.29 KCAL/MOL
REMARK 922        TOTAL FREE ENERGY PREDICTED BY IDOCK:   -8.13 KCAL/MOL
REMARK 923 INTER-LIGAND FREE ENERGY PREDICTED BY IDOCK:   -7.13 KCAL/MOL
REMARK 924 INTRA-LIGAND FREE ENERGY PREDICTED BY IDOCK:   -1.01 KCAL/MOL
REMARK 927      BINDING AFFINITY PREDICTED BY RF-SCORE:    0.00 PKD
ROOT
HETATM    1  O   UNL     1      -7.833   4.026  64.055  1.00  0.00    -0.082 OA 
HETATM    2  C   UNL     1      -8.477   3.208  64.914  1.00  0.00    -0.096 C  
HETATM    3  O   UNL     1      -9.678   2.990  64.841  1.00  0.00    -0.134 OA 
HETATM    4  C   UNL     1      -7.588   2.593  65.960  1.00  0.00    -0.072 C  
ENDROOT
BRANCH   4   5
HETATM    5  C   UNL     1      -7.465   3.493  67.177  1.00  0.00    -0.074 C  
BRANCH   5   6
HETATM    6  N   UNL     1      -7.905   4.849  66.919  1.00  0.00    -0.098 N  
HETATM    7  C   UNL     1      -8.910   5.438  67.662  1.00  0.00    -0.105 C  
HETATM    8  H   UNL     1      -7.462   5.383  66.171  1.00  0.00     0.000 HD 
HETATM    9  O   UNL     1      -9.478   4.871  68.589  1.00  0.00    -0.127 OA 
BRANCH   7  10
HETATM   10  C   UNL     1      -9.331   6.806  67.241  1.00  0.00    -0.148 A  
HETATM   11  C   UNL     1      -8.643   7.424  66.190  1.00  0.00    -0.154 A  
HETATM   12  C   UNL     1      -8.959   8.736  65.812  1.00  0.00    -0.253 A  
HETATM   13  C   UNL     1      -9.972   9.456  66.460  1.00  0.00    -0.269 A  
HETATM   14  C   UNL     1     -10.377   7.494  67.866  1.00  0.00    -0.266 A  
HETATM   15  C   UNL     1     -10.683   8.810  67.485  1.00  0.00    -0.213 A  
BRANCH  13  16
HETATM   16  N   UNL     1     -10.165  10.807  66.093  1.00  0.00    -0.244 NA 
HETATM   17  H   UNL     1     -10.368  11.109  65.140  1.00  0.00     0.000 HD 
BRANCH  16  18
HETATM   18  N   UNL     1     -10.062  11.592  67.059  1.00  0.00    -0.206 NA 
HETATM   19  H   UNL     1     -10.107  11.296  68.034  1.00  0.00     0.000 HD 
BRANCH  18  20
HETATM   20  C   UNL     1      -9.878  12.934  66.657  1.00  0.00    -0.250 A  
HETATM   21  C   UNL     1      -8.896  13.778  67.198  1.00  0.00    -0.240 A  
HETATM   22  C   UNL     1      -8.812  15.125  66.825  1.00  0.00    -0.302 A  
HETATM   23  C   UNL     1      -9.724  15.646  65.908  1.00  0.00    -0.353 A  
HETATM   24  O   UNL     1      -9.649  16.972  65.568  1.00  0.00    -0.522 OA 
HETATM   25  C   UNL     1     -10.714  14.828  65.346  1.00  0.00    -0.385 A  
HETATM   26  C   UNL     1     -11.732  15.305  64.366  1.00  0.00    -0.285 C  
HETATM   27  C   UNL     1     -10.778  13.476  65.731  1.00  0.00    -0.278 A  
HETATM   28  H   UNL     1     -10.271  17.327  64.943  1.00  0.00     0.000 HD 
HETATM   29  O   UNL     1     -12.579  14.563  63.889  1.00  0.00    -0.827 OA 
HETATM   30  O   UNL     1     -11.663  16.614  64.045  1.00  0.00    -1.143 OA 
ENDBRANCH  18  20
ENDBRANCH  16  18
ENDBRANCH  13  16
ENDBRANCH   7  10
ENDBRANCH   5   6
ENDBRANCH   4   5
TORSDOF 6
ENDMDL
MODEL      156
REMARK 921   NORMALIZED FREE ENERGY PREDICTED BY IDOCK:   -5.29 KCAL/MOL
REMARK 922        TOTAL FREE ENERGY PREDICTED BY IDOCK:   -8.13 KCAL/MOL
REMARK 923 INTER-LIGAND FREE ENERGY PREDICTED BY IDOCK:   -7.42 KCAL/MOL
REMARK 924 INTRA-LIGAND FREE ENERGY PREDICTED BY IDOCK:   -0.71 KCAL/MOL
REMARK 927      BINDING AFFINITY PREDICTED BY RF-SCORE:    0.00 PKD
ROOT
HETATM    1  O   UNL     1      -9.636   3.907  65.714  1.00  0.00    -0.171 OA 
HETATM    2  C   UNL     1      -8.526   3.895  66.481  1.00  0.00    -0.105 C  
HETATM    3  O   UNL     1      -8.090   2.872  66.991  1.00  0.00    -0.078 OA 
HETATM    4  C   UNL     1      -7.880   5.242  66.649  1.00  0.00    -0.100 C  
ENDROOT
BRANCH   4   5
HETATM    5  C   UNL     1      -8.477   5.997  67.824  1.00  0.00    -0.107 C  
BRANCH   5   6
HETATM    6  N   UNL     1      -8.773   7.380  67.510  1.00  0.00    -0.124 N  
HETATM    7  C   UNL     1      -9.987   7.757  66.969  1.00  0.00    -0.244 C  
HETATM    8  H   UNL     1      -8.068   8.094  67.694  1.00  0.00     0.000 HD 
HETATM    9  O   UNL     1     -10.893   6.963  66.739  1.00  0.00    -0.321 OA 
BRANCH   7  10
HETATM   10  C   UNL     1     -10.135   9.198  66.611  1.00  0.00    -0.343 A  
HETATM   11  C   UNL     1     -10.882  10.025  67.458  1.00  0.00    -0.326 A  
HETATM   12  C   UNL     1     -11.106  11.367  67.121  1.00  0.00    -0.366 A  
HETATM   13  C   UNL     1     -10.582  11.917  65.944  1.00  0.00    -0.266 A  
HETATM   14  C   UNL     1      -9.566   9.745  65.455  1.00  0.00    -0.348 A  
HETATM   15  C   UNL     1      -9.799  11.088  65.122  1.00  0.00    -0.319 A  
BRANCH  13  16
HETATM   16  N   UNL     1     -10.933  13.247  65.619  1.00  0.00    -0.276 NA 
HETATM   17  H   UNL     1     -11.892  13.552  65.450  1.00  0.00     0.000 HD 
BRANCH  16  18
HETATM   18  N   UNL     1      -9.946  14.010  65.560  1.00  0.00    -0.477 NA 
HETATM   19  H   UNL     1      -9.152  13.859  64.939  1.00  0.00     0.000 HD 
BRANCH  18  20
HETATM   20  C   UNL     1     -10.047  15.106  66.446  1.00  0.00    -0.273 A  
HETATM   21  C   UNL     1     -10.929  15.144  67.537  1.00  0.00    -0.310 A  
HETATM   22  C   UNL     1     -11.049  16.289  68.333  1.00  0.00    -0.362 A  
HETATM   23  C   UNL     1     -10.289  17.420  68.036  1.00  0.00    -0.362 A  
HETATM   24  O   UNL     1     -10.433  18.545  68.806  1.00  0.00    -0.420 OA 
HETATM   25  C   UNL     1      -9.396  17.413  66.956  1.00  0.00    -0.265 A  
HETATM   26  C   UNL     1      -8.554  18.580  66.563  1.00  0.00    -0.276 C  
HETATM   27  C   UNL     1      -9.288  16.250  66.171  1.00  0.00    -0.374 A  
HETATM   28  H   UNL     1      -9.916  19.316  68.603  1.00  0.00     0.000 HD 
HETATM   29  O   UNL     1      -7.778  18.538  65.619  1.00  0.00    -0.509 OA 
HETATM   30  O   UNL     1      -8.708  19.690  67.316  1.00  0.00    -0.292 OA 
ENDBRANCH  18  20
ENDBRANCH  16  18
ENDBRANCH  13  16
ENDBRANCH   7  10
ENDBRANCH   5   6
ENDBRANCH   4   5
TORSDOF 6
ENDMDL
MODEL      157
REMARK 921   NORMALIZED FREE ENERGY PREDICTED BY IDOCK:   -5.27 KCAL/MOL
REMARK 922        TOTAL FREE ENERGY PREDICTED BY IDOCK:   -8.10 KCAL/MOL
REMARK 923 INTER-LIGAND FREE ENERGY PREDICTED BY IDOCK:   -7.31 KCAL/MOL
REMARK 924 INTRA-LIGAND FREE ENERGY PREDICTED BY IDOCK:   -0.79 KCAL/MOL
REMARK 927      BINDING AFFINITY PREDICTED BY RF-SCORE:    0.00 PKD
ROOT
HETATM    1  O   UNL     1      -7.179   7.542  74.119  1.00  0.00    -0.106 OA 
HETATM    2  C   UNL     1      -7.342   6.449  73.344  1.00  0.00    -0.086 C  
HETATM    3  O   UNL     1      -6.963   6.404  72.182  1.00  0.00    -0.071 OA 
HETATM    4  C   UNL     1      -8.027   5.303  74.036  1.00  0.00    -0.104 C  
ENDROOT
BRANCH   4   5
HETATM    5  C   UNL     1      -9.537   5.407  73.912  1.00  0.00    -0.142 C  
BRANCH   5   6
HETATM    6  N   UNL     1      -9.962   6.611  73.227  1.00  0.00    -0.176 N  
HETATM    7  C   UNL     1     -10.936   6.581  72.247  1.00  0.00    -0.249 C  
HETATM    8  H   UNL     1      -9.533   7.502  73.475  1.00  0.00     0.000 HD 
HETATM    9  O   UNL     1     -11.514   5.555  71.907  1.00  0.00    -0.154 OA 
BRANCH   7  10
HETATM   10  C   UNL     1     -11.222   7.874  71.558  1.00  0.00    -0.286 A  
HETATM   11  C   UNL     1     -10.360   8.294  70.539  1.00  0.00    -0.217 A  
HETATM   12  C   UNL     1     -10.550   9.535  69.917  1.00  0.00    -0.269 A  
HETATM   13  C   UNL     1     -11.609  10.377  70.284  1.00  0.00    -0.327 A  
HETATM   14  C   UNL     1     -12.312   8.682  71.904  1.00  0.00    -0.414 A  
HETATM   15  C   UNL     1     -12.492   9.926  71.279  1.00  0.00    -0.479 A  
BRANCH  13  16
HETATM   16  N   UNL     1     -11.679  11.655  69.685  1.00  0.00    -0.323 NA 
HETATM   17  H   UNL     1     -12.552  12.161  69.536  1.00  0.00     0.000 HD 
BRANCH  16  18
HETATM   18  N   UNL     1     -10.559  12.101  69.359  1.00  0.00    -0.434 NA 
HETATM   19  H   UNL     1      -9.918  12.551  70.013  1.00  0.00     0.000 HD 
BRANCH  18  20
HETATM   20  C   UNL     1     -10.274  11.918  67.987  1.00  0.00    -0.192 A  
HETATM   21  C   UNL     1      -9.023  11.509  67.502  1.00  0.00    -0.159 A  
HETATM   22  C   UNL     1      -8.770  11.425  66.128  1.00  0.00    -0.153 A  
HETATM   23  C   UNL     1      -9.772  11.763  65.219  1.00  0.00    -0.211 A  
HETATM   24  O   UNL     1      -9.506  11.703  63.876  1.00  0.00    -0.430 OA 
HETATM   25  C   UNL     1     -11.034  12.172  65.671  1.00  0.00    -0.337 A  
HETATM   26  C   UNL     1     -12.157  12.561  64.770  1.00  0.00    -0.434 C  
HETATM   27  C   UNL     1     -11.268  12.245  67.057  1.00  0.00    -0.367 A  
HETATM   28  H   UNL     1     -10.189  11.934  63.256  1.00  0.00     0.000 HD 
HETATM   29  O   UNL     1     -13.249  12.906  65.197  1.00  0.00    -0.702 OA 
HETATM   30  O   UNL     1     -11.887  12.512  63.448  1.00  0.00    -0.491 OA 
ENDBRANCH  18  20
ENDBRANCH  16  18
ENDBRANCH  13  16
ENDBRANCH   7  10
ENDBRANCH   5   6
ENDBRANCH   4   5
TORSDOF 6
ENDMDL
MODEL      158
REMARK 921   NORMALIZED FREE ENERGY PREDICTED BY IDOCK:   -5.27 KCAL/MOL
REMARK 922        TOTAL FREE ENERGY PREDICTED BY IDOCK:   -8.10 KCAL/MOL
REMARK 923 INTER-LIGAND FREE ENERGY PREDICTED BY IDOCK:   -6.95 KCAL/MOL
REMARK 924 INTRA-LIGAND FREE ENERGY PREDICTED BY IDOCK:   -1.15 KCAL/MOL
REMARK 927      BINDING AFFINITY PREDICTED BY RF-SCORE:    0.00 PKD
ROOT
HETATM    1  O   UNL     1     -10.334  15.551  70.204  1.00  0.00    -0.304 OA 
HETATM    2  C   UNL     1     -11.345  16.066  69.473  1.00  0.00    -0.344 C  
HETATM    3  O   UNL     1     -12.517  15.965  69.807  1.00  0.00    -0.220 OA 
HETATM    4  C   UNL     1     -10.901  16.771  68.221  1.00  0.00    -0.366 C  
ENDROOT
BRANCH   4   5
HETATM    5  C   UNL     1     -10.779  15.803  67.057  1.00  0.00    -0.306 C  
BRANCH   5   6
HETATM    6  N   UNL     1     -10.946  14.420  67.457  1.00  0.00    -0.286 N  
HETATM    7  C   UNL     1      -9.977  13.470  67.199  1.00  0.00    -0.246 C  
HETATM    8  H   UNL     1     -11.799  14.142  67.941  1.00  0.00     0.000 HD 
HETATM    9  O   UNL     1      -8.916  13.728  66.641  1.00  0.00    -0.217 OA 
BRANCH   7  10
HETATM   10  C   UNL     1     -10.307  12.066  67.584  1.00  0.00    -0.213 A  
HETATM   11  C   UNL     1     -10.864  11.831  68.846  1.00  0.00    -0.265 A  
HETATM   12  C   UNL     1     -11.120  10.521  69.274  1.00  0.00    -0.298 A  
HETATM   13  C   UNL     1     -10.842   9.421  68.453  1.00  0.00    -0.109 A  
HETATM   14  C   UNL     1     -10.067  10.980  66.733  1.00  0.00    -0.260 A  
HETATM   15  C   UNL     1     -10.322   9.671  67.172  1.00  0.00    -0.319 A  
BRANCH  13  16
HETATM   16  N   UNL     1     -11.032   8.127  68.990  1.00  0.00    -0.428 NA 
HETATM   17  H   UNL     1     -10.759   7.271  68.507  1.00  0.00     0.000 HD 
BRANCH  16  18
HETATM   18  N   UNL     1     -11.568   8.143  70.118  1.00  0.00    -0.468 NA 
HETATM   19  H   UNL     1     -12.169   8.899  70.447  1.00  0.00     0.000 HD 
BRANCH  18  20
HETATM   20  C   UNL     1     -11.255   7.002  70.890  1.00  0.00    -0.282 A  
HETATM   21  C   UNL     1     -11.413   6.939  72.282  1.00  0.00    -0.313 A  
HETATM   22  C   UNL     1     -11.006   5.814  73.009  1.00  0.00    -0.314 A  
HETATM   23  C   UNL     1     -10.423   4.737  72.344  1.00  0.00    -0.195 A  
HETATM   24  O   UNL     1     -10.004   3.650  73.067  1.00  0.00    -0.129 OA 
HETATM   25  C   UNL     1     -10.254   4.765  70.953  1.00  0.00    -0.247 A  
HETATM   26  C   UNL     1      -9.632   3.663  70.165  1.00  0.00    -0.172 C  
HETATM   27  C   UNL     1     -10.674   5.905  70.241  1.00  0.00    -0.383 A  
HETATM   28  H   UNL     1      -9.606   2.915  72.614  1.00  0.00     0.000 HD 
HETATM   29  O   UNL     1      -9.506   3.716  68.950  1.00  0.00    -0.161 OA 
HETATM   30  O   UNL     1      -9.209   2.600  70.883  1.00  0.00    -0.106 OA 
ENDBRANCH  18  20
ENDBRANCH  16  18
ENDBRANCH  13  16
ENDBRANCH   7  10
ENDBRANCH   5   6
ENDBRANCH   4   5
TORSDOF 6
ENDMDL
MODEL      159
REMARK 921   NORMALIZED FREE ENERGY PREDICTED BY IDOCK:   -5.26 KCAL/MOL
REMARK 922        TOTAL FREE ENERGY PREDICTED BY IDOCK:   -8.10 KCAL/MOL
REMARK 923 INTER-LIGAND FREE ENERGY PREDICTED BY IDOCK:   -7.26 KCAL/MOL
REMARK 924 INTRA-LIGAND FREE ENERGY PREDICTED BY IDOCK:   -0.83 KCAL/MOL
REMARK 927      BINDING AFFINITY PREDICTED BY RF-SCORE:    0.00 PKD
ROOT
HETATM    1  O   UNL     1     -13.187  14.913  73.615  1.00  0.00    -0.485 OA 
HETATM    2  C   UNL     1     -13.828  14.356  72.565  1.00  0.00    -0.456 C  
HETATM    3  O   UNL     1     -14.072  13.159  72.504  1.00  0.00    -0.672 OA 
HETATM    4  C   UNL     1     -14.212  15.334  71.490  1.00  0.00    -0.629 C  
ENDROOT
BRANCH   4   5
HETATM    5  C   UNL     1     -13.087  15.518  70.486  1.00  0.00    -0.215 C  
BRANCH   5   6
HETATM    6  N   UNL     1     -12.584  14.261  69.969  1.00  0.00    -0.461 N  
HETATM    7  C   UNL     1     -12.027  14.168  68.708  1.00  0.00    -0.332 C  
HETATM    8  H   UNL     1     -12.643  13.425  70.550  1.00  0.00     0.000 HD 
HETATM    9  O   UNL     1     -11.902  15.129  67.958  1.00  0.00    -0.331 OA 
BRANCH   7  10
HETATM   10  C   UNL     1     -11.627  12.801  68.260  1.00  0.00    -0.375 A  
HETATM   11  C   UNL     1     -11.548  11.781  69.214  1.00  0.00    -0.378 A  
HETATM   12  C   UNL     1     -11.106  10.502  68.848  1.00  0.00    -0.312 A  
HETATM   13  C   UNL     1     -10.748  10.208  67.525  1.00  0.00    -0.290 A  
HETATM   14  C   UNL     1     -11.318  12.511  66.926  1.00  0.00    -0.383 A  
HETATM   15  C   UNL     1     -10.872  11.229  66.569  1.00  0.00    -0.319 A  
BRANCH  13  16
HETATM   16  N   UNL     1     -10.216   8.927  67.251  1.00  0.00    -0.237 NA 
HETATM   17  H   UNL     1     -10.271   8.143  67.901  1.00  0.00     0.000 HD 
BRANCH  16  18
HETATM   18  N   UNL     1      -9.673   8.857  66.129  1.00  0.00    -0.308 NA 
HETATM   19  H   UNL     1      -9.669   9.623  65.455  1.00  0.00     0.000 HD 
BRANCH  18  20
HETATM   20  C   UNL     1      -9.064   7.605  65.892  1.00  0.00    -0.052 A  
HETATM   21  C   UNL     1      -8.246   7.336  64.784  1.00  0.00    -0.055 A  
HETATM   22  C   UNL     1      -7.737   6.053  64.552  1.00  0.00    -0.100 A  
HETATM   23  C   UNL     1      -8.055   5.015  65.427  1.00  0.00    -0.116 A  
HETATM   24  O   UNL     1      -7.573   3.756  65.177  1.00  0.00    -0.079 OA 
HETATM   25  C   UNL     1      -8.866   5.251  66.546  1.00  0.00    -0.116 A  
HETATM   26  C   UNL     1      -9.261   4.199  67.526  1.00  0.00    -0.157 C  
HETATM   27  C   UNL     1      -9.363   6.550  66.763  1.00  0.00    -0.179 A  
HETATM   28  H   UNL     1      -7.789   3.049  65.774  1.00  0.00     0.000 HD 
HETATM   29  O   UNL     1      -9.965   4.439  68.496  1.00  0.00    -0.108 OA 
HETATM   30  O   UNL     1      -8.795   2.958  67.269  1.00  0.00    -0.117 OA 
ENDBRANCH  18  20
ENDBRANCH  16  18
ENDBRANCH  13  16
ENDBRANCH   7  10
ENDBRANCH   5   6
ENDBRANCH   4   5
TORSDOF 6
ENDMDL
MODEL      160
REMARK 921   NORMALIZED FREE ENERGY PREDICTED BY IDOCK:   -5.26 KCAL/MOL
REMARK 922        TOTAL FREE ENERGY PREDICTED BY IDOCK:   -8.09 KCAL/MOL
REMARK 923 INTER-LIGAND FREE ENERGY PREDICTED BY IDOCK:   -7.16 KCAL/MOL
REMARK 924 INTRA-LIGAND FREE ENERGY PREDICTED BY IDOCK:   -0.93 KCAL/MOL
REMARK 927      BINDING AFFINITY PREDICTED BY RF-SCORE:    0.00 PKD
ROOT
HETATM    1  O   UNL     1      -8.874  19.087  68.717  1.00  0.00    -0.349 OA 
HETATM    2  C   UNL     1     -10.039  18.459  68.449  1.00  0.00    -0.390 C  
HETATM    3  O   UNL     1     -10.440  17.508  69.107  1.00  0.00    -0.347 OA 
HETATM    4  C   UNL     1     -10.791  19.030  67.280  1.00  0.00    -0.494 C  
ENDROOT
BRANCH   4   5
HETATM    5  C   UNL     1     -10.344  18.396  65.974  1.00  0.00    -0.375 C  
BRANCH   5   6
HETATM    6  N   UNL     1     -10.142  16.965  66.086  1.00  0.00    -0.329 N  
HETATM    7  C   UNL     1     -10.667  16.085  65.159  1.00  0.00    -0.409 C  
HETATM    8  H   UNL     1      -9.598  16.599  66.867  1.00  0.00     0.000 HD 
HETATM    9  O   UNL     1     -11.314  16.447  64.183  1.00  0.00    -0.941 OA 
BRANCH   7  10
HETATM   10  C   UNL     1     -10.462  14.632  65.435  1.00  0.00    -0.400 A  
HETATM   11  C   UNL     1      -9.806  14.261  66.614  1.00  0.00    -0.288 A  
HETATM   12  C   UNL     1      -9.528  12.913  66.875  1.00  0.00    -0.237 A  
HETATM   13  C   UNL     1      -9.908  11.905  65.978  1.00  0.00    -0.235 A  
HETATM   14  C   UNL     1     -10.890  13.635  64.551  1.00  0.00    -0.416 A  
HETATM   15  C   UNL     1     -10.602  12.287  64.818  1.00  0.00    -0.332 A  
BRANCH  13  16
HETATM   16  N   UNL     1      -9.505  10.580  66.259  1.00  0.00    -0.172 NA 
HETATM   17  H   UNL     1      -8.550  10.243  66.136  1.00  0.00     0.000 HD 
BRANCH  16  18
HETATM   18  N   UNL     1     -10.441   9.865  66.674  1.00  0.00    -0.200 NA 
HETATM   19  H   UNL     1     -11.414   9.988  66.392  1.00  0.00     0.000 HD 
BRANCH  18  20
HETATM   20  C   UNL     1     -10.010   8.867  67.577  1.00  0.00    -0.203 A  
HETATM   21  C   UNL     1     -10.776   7.740  67.912  1.00  0.00    -0.165 A  
HETATM   22  C   UNL     1     -10.337   6.826  68.877  1.00  0.00    -0.208 A  
HETATM   23  C   UNL     1      -9.124   7.039  69.529  1.00  0.00    -0.146 A  
HETATM   24  O   UNL     1      -8.715   6.152  70.491  1.00  0.00    -0.139 OA 
HETATM   25  C   UNL     1      -8.333   8.153  69.215  1.00  0.00    -0.130 A  
HETATM   26  C   UNL     1      -7.029   8.462  69.869  1.00  0.00    -0.043 C  
HETATM   27  C   UNL     1      -8.791   9.058  68.238  1.00  0.00    -0.134 A  
HETATM   28  H   UNL     1      -7.888   6.298  70.936  1.00  0.00     0.000 HD 
HETATM   29  O   UNL     1      -6.360   9.439  69.567  1.00  0.00    -0.039 OA 
HETATM   30  O   UNL     1      -6.637   7.593  70.825  1.00  0.00    -0.038 OA 
ENDBRANCH  18  20
ENDBRANCH  16  18
ENDBRANCH  13  16
ENDBRANCH   7  10
ENDBRANCH   5   6
ENDBRANCH   4   5
TORSDOF 6
ENDMDL
MODEL      161
REMARK 921   NORMALIZED FREE ENERGY PREDICTED BY IDOCK:   -5.25 KCAL/MOL
REMARK 922        TOTAL FREE ENERGY PREDICTED BY IDOCK:   -8.08 KCAL/MOL
REMARK 923 INTER-LIGAND FREE ENERGY PREDICTED BY IDOCK:   -6.81 KCAL/MOL
REMARK 924 INTRA-LIGAND FREE ENERGY PREDICTED BY IDOCK:   -1.27 KCAL/MOL
REMARK 927      BINDING AFFINITY PREDICTED BY RF-SCORE:    0.00 PKD
ROOT
HETATM    1  O   UNL     1     -11.828  14.867  66.935  1.00  0.00    -0.315 OA 
HETATM    2  C   UNL     1     -12.080  13.722  66.265  1.00  0.00    -0.446 C  
HETATM    3  O   UNL     1     -12.399  12.685  66.831  1.00  0.00    -0.430 OA 
HETATM    4  C   UNL     1     -11.934  13.838  64.773  1.00  0.00    -0.429 C  
ENDROOT
BRANCH   4   5
HETATM    5  C   UNL     1     -10.503  13.577  64.338  1.00  0.00    -0.346 C  
BRANCH   5   6
HETATM    6  N   UNL     1      -9.845  12.569  65.144  1.00  0.00    -0.448 N  
HETATM    7  C   UNL     1      -9.875  11.232  64.796  1.00  0.00    -0.266 C  
HETATM    8  H   UNL     1      -9.348  12.852  65.988  1.00  0.00     0.000 HD 
HETATM    9  O   UNL     1     -10.432  10.813  63.788  1.00  0.00    -0.319 OA 
BRANCH   7  10
HETATM   10  C   UNL     1      -9.234  10.283  65.755  1.00  0.00    -0.215 A  
HETATM   11  C   UNL     1      -8.850   9.020  65.291  1.00  0.00    -0.234 A  
HETATM   12  C   UNL     1      -8.312   8.075  66.175  1.00  0.00    -0.125 A  
HETATM   13  C   UNL     1      -8.133   8.369  67.533  1.00  0.00    -0.110 A  
HETATM   14  C   UNL     1      -9.019  10.609  67.099  1.00  0.00    -0.143 A  
HETATM   15  C   UNL     1      -8.485   9.654  67.978  1.00  0.00    -0.118 A  
BRANCH  13  16
HETATM   16  N   UNL     1      -7.682   7.334  68.382  1.00  0.00    -0.118 NA 
HETATM   17  H   UNL     1      -6.838   7.399  68.952  1.00  0.00     0.000 HD 
BRANCH  16  18
HETATM   18  N   UNL     1      -8.424   6.330  68.363  1.00  0.00    -0.115 NA 
HETATM   19  H   UNL     1      -8.319   5.562  67.700  1.00  0.00     0.000 HD 
BRANCH  18  20
HETATM   20  C   UNL     1      -9.427   6.371  69.357  1.00  0.00    -0.140 A  
HETATM   21  C   UNL     1     -10.801   6.304  69.078  1.00  0.00    -0.400 A  
HETATM   22  C   UNL     1     -11.755   6.434  70.094  1.00  0.00    -0.372 A  
HETATM   23  C   UNL     1     -11.340   6.646  71.408  1.00  0.00    -0.289 A  
HETATM   24  O   UNL     1     -12.282   6.799  72.392  1.00  0.00    -0.492 OA 
HETATM   25  C   UNL     1      -9.976   6.715  71.721  1.00  0.00    -0.188 A  
HETATM   26  C   UNL     1      -9.446   6.947  73.096  1.00  0.00    -0.150 C  
HETATM   27  C   UNL     1      -9.033   6.576  70.685  1.00  0.00    -0.148 A  
HETATM   28  H   UNL     1     -12.000   6.944  73.287  1.00  0.00     0.000 HD 
HETATM   29  O   UNL     1      -8.249   6.994  73.337  1.00  0.00    -0.106 OA 
HETATM   30  O   UNL     1     -10.378   7.110  74.059  1.00  0.00    -0.349 OA 
ENDBRANCH  18  20
ENDBRANCH  16  18
ENDBRANCH  13  16
ENDBRANCH   7  10
ENDBRANCH   5   6
ENDBRANCH   4   5
TORSDOF 6
ENDMDL
MODEL      162
REMARK 921   NORMALIZED FREE ENERGY PREDICTED BY IDOCK:   -5.23 KCAL/MOL
REMARK 922        TOTAL FREE ENERGY PREDICTED BY IDOCK:   -8.05 KCAL/MOL
REMARK 923 INTER-LIGAND FREE ENERGY PREDICTED BY IDOCK:   -7.11 KCAL/MOL
REMARK 924 INTRA-LIGAND FREE ENERGY PREDICTED BY IDOCK:   -0.94 KCAL/MOL
REMARK 927      BINDING AFFINITY PREDICTED BY RF-SCORE:    0.00 PKD
ROOT
HETATM    1  O   UNL     1      -7.338   4.061  62.940  1.00  0.00    -0.047 OA 
HETATM    2  C   UNL     1      -8.490   4.759  62.847  1.00  0.00    -0.116 C  
HETATM    3  O   UNL     1      -8.522   5.981  62.862  1.00  0.00    -0.050 OA 
HETATM    4  C   UNL     1      -9.719   3.901  62.721  1.00  0.00    -0.138 C  
ENDROOT
BRANCH   4   5
HETATM    5  C   UNL     1     -10.262   3.515  64.086  1.00  0.00    -0.219 C  
BRANCH   5   6
HETATM    6  N   UNL     1     -10.391   4.647  64.980  1.00  0.00    -0.438 N  
HETATM    7  C   UNL     1      -9.909   4.605  66.275  1.00  0.00    -0.226 C  
HETATM    8  H   UNL     1     -10.847   5.496  64.647  1.00  0.00     0.000 HD 
HETATM    9  O   UNL     1      -9.330   3.632  66.744  1.00  0.00    -0.171 OA 
BRANCH   7  10
HETATM   10  C   UNL     1     -10.181   5.804  67.122  1.00  0.00    -0.250 A  
HETATM   11  C   UNL     1      -9.819   7.065  66.634  1.00  0.00    -0.223 A  
HETATM   12  C   UNL     1      -9.990   8.207  67.427  1.00  0.00    -0.271 A  
HETATM   13  C   UNL     1     -10.537   8.122  68.715  1.00  0.00    -0.121 A  
HETATM   14  C   UNL     1     -10.772   5.708  68.387  1.00  0.00    -0.229 A  
HETATM   15  C   UNL     1     -10.935   6.857  69.177  1.00  0.00    -0.240 A  
BRANCH  13  16
HETATM   16  N   UNL     1     -10.585   9.300  69.494  1.00  0.00    -0.221 NA 
HETATM   17  H   UNL     1      -9.759   9.745  69.895  1.00  0.00     0.000 HD 
BRANCH  16  18
HETATM   18  N   UNL     1     -11.745   9.740  69.640  1.00  0.00    -0.451 NA 
HETATM   19  H   UNL     1     -12.563   9.143  69.762  1.00  0.00     0.000 HD 
BRANCH  18  20
HETATM   20  C   UNL     1     -11.804  11.151  69.616  1.00  0.00    -0.348 A  
HETATM   21  C   UNL     1     -12.162  11.932  70.726  1.00  0.00    -0.401 A  
HETATM   22  C   UNL     1     -12.287  13.322  70.624  1.00  0.00    -0.416 A  
HETATM   23  C   UNL     1     -12.064  13.948  69.398  1.00  0.00    -0.337 A  
HETATM   24  O   UNL     1     -12.214  15.307  69.303  1.00  0.00    -0.526 OA 
HETATM   25  C   UNL     1     -11.701  13.198  68.272  1.00  0.00    -0.384 A  
HETATM   26  C   UNL     1     -11.454  13.784  66.923  1.00  0.00    -0.347 C  
HETATM   27  C   UNL     1     -11.576  11.801  68.397  1.00  0.00    -0.380 A  
HETATM   28  H   UNL     1     -12.063  15.734  68.467  1.00  0.00     0.000 HD 
HETATM   29  O   UNL     1     -11.131  13.102  65.962  1.00  0.00    -0.278 OA 
HETATM   30  O   UNL     1     -11.615  15.121  66.830  1.00  0.00    -0.285 OA 
ENDBRANCH  18  20
ENDBRANCH  16  18
ENDBRANCH  13  16
ENDBRANCH   7  10
ENDBRANCH   5   6
ENDBRANCH   4   5
TORSDOF 6
ENDMDL
MODEL      163
REMARK 921   NORMALIZED FREE ENERGY PREDICTED BY IDOCK:   -5.23 KCAL/MOL
REMARK 922        TOTAL FREE ENERGY PREDICTED BY IDOCK:   -8.05 KCAL/MOL
REMARK 923 INTER-LIGAND FREE ENERGY PREDICTED BY IDOCK:   -7.28 KCAL/MOL
REMARK 924 INTRA-LIGAND FREE ENERGY PREDICTED BY IDOCK:   -0.77 KCAL/MOL
REMARK 927      BINDING AFFINITY PREDICTED BY RF-SCORE:    0.00 PKD
ROOT
HETATM    1  O   UNL     1     -10.235   7.462  73.983  1.00  0.00    -0.262 OA 
HETATM    2  C   UNL     1     -10.103   6.445  73.105  1.00  0.00    -0.189 C  
HETATM    3  O   UNL     1      -9.042   6.182  72.557  1.00  0.00    -0.139 OA 
HETATM    4  C   UNL     1     -11.369   5.670  72.868  1.00  0.00    -0.325 C  
ENDROOT
BRANCH   4   5
HETATM    5  C   UNL     1     -12.197   6.294  71.759  1.00  0.00    -0.159 C  
BRANCH   5   6
HETATM    6  N   UNL     1     -11.433   7.206  70.932  1.00  0.00    -0.285 N  
HETATM    7  C   UNL     1     -11.070   6.882  69.639  1.00  0.00    -0.258 C  
HETATM    8  H   UNL     1     -11.155   8.110  71.315  1.00  0.00     0.000 HD 
HETATM    9  O   UNL     1     -11.382   5.825  69.101  1.00  0.00    -0.193 OA 
BRANCH   7  10
HETATM   10  C   UNL     1     -10.210   7.870  68.924  1.00  0.00    -0.215 A  
HETATM   11  C   UNL     1     -10.396   8.048  67.549  1.00  0.00    -0.330 A  
HETATM   12  C   UNL     1      -9.561   8.911  66.827  1.00  0.00    -0.262 A  
HETATM   13  C   UNL     1      -8.534   9.625  67.458  1.00  0.00    -0.125 A  
HETATM   14  C   UNL     1      -9.219   8.611  69.578  1.00  0.00    -0.150 A  
HETATM   15  C   UNL     1      -8.383   9.470  68.846  1.00  0.00    -0.121 A  
BRANCH  13  16
HETATM   16  N   UNL     1      -7.669  10.397  66.651  1.00  0.00    -0.113 NA 
HETATM   17  H   UNL     1      -6.668  10.490  66.825  1.00  0.00     0.000 HD 
BRANCH  16  18
HETATM   18  N   UNL     1      -8.258  10.955  65.701  1.00  0.00    -0.293 NA 
HETATM   19  H   UNL     1      -8.102  10.716  64.722  1.00  0.00     0.000 HD 
BRANCH  18  20
HETATM   20  C   UNL     1      -9.164  11.952  66.127  1.00  0.00    -0.199 A  
HETATM   21  C   UNL     1      -8.996  12.704  67.300  1.00  0.00    -0.194 A  
HETATM   22  C   UNL     1      -9.967  13.620  67.720  1.00  0.00    -0.235 A  
HETATM   23  C   UNL     1     -11.131  13.785  66.970  1.00  0.00    -0.302 A  
HETATM   24  O   UNL     1     -12.088  14.665  67.403  1.00  0.00    -0.535 OA 
HETATM   25  C   UNL     1     -11.328  13.052  65.792  1.00  0.00    -0.331 A  
HETATM   26  C   UNL     1     -12.545  13.159  64.936  1.00  0.00    -0.407 C  
HETATM   27  C   UNL     1     -10.336  12.139  65.385  1.00  0.00    -0.301 A  
HETATM   28  H   UNL     1     -12.881  14.777  66.893  1.00  0.00     0.000 HD 
HETATM   29  O   UNL     1     -12.683  12.510  63.910  1.00  0.00    -0.679 OA 
HETATM   30  O   UNL     1     -13.491  14.018  65.374  1.00  0.00    -0.679 OA 
ENDBRANCH  18  20
ENDBRANCH  16  18
ENDBRANCH  13  16
ENDBRANCH   7  10
ENDBRANCH   5   6
ENDBRANCH   4   5
TORSDOF 6
ENDMDL
MODEL      164
REMARK 921   NORMALIZED FREE ENERGY PREDICTED BY IDOCK:   -5.22 KCAL/MOL
REMARK 922        TOTAL FREE ENERGY PREDICTED BY IDOCK:   -8.04 KCAL/MOL
REMARK 923 INTER-LIGAND FREE ENERGY PREDICTED BY IDOCK:   -7.24 KCAL/MOL
REMARK 924 INTRA-LIGAND FREE ENERGY PREDICTED BY IDOCK:   -0.79 KCAL/MOL
REMARK 927      BINDING AFFINITY PREDICTED BY RF-SCORE:    0.00 PKD
ROOT
HETATM    1  O   UNL     1      -7.645  16.950  68.110  1.00  0.00    -0.176 OA 
HETATM    2  C   UNL     1      -8.164  18.118  67.674  1.00  0.00    -0.242 C  
HETATM    3  O   UNL     1      -7.887  19.193  68.188  1.00  0.00    -0.279 OA 
HETATM    4  C   UNL     1      -9.104  17.976  66.510  1.00  0.00    -0.283 C  
ENDROOT
BRANCH   4   5
HETATM    5  C   UNL     1     -10.525  17.716  66.978  1.00  0.00    -0.305 C  
BRANCH   5   6
HETATM    6  N   UNL     1     -10.846  16.304  67.040  1.00  0.00    -0.236 N  
HETATM    7  C   UNL     1     -11.251  15.705  68.218  1.00  0.00    -0.353 C  
HETATM    8  H   UNL     1     -10.771  15.739  66.195  1.00  0.00     0.000 HD 
HETATM    9  O   UNL     1     -11.386  16.319  69.271  1.00  0.00    -0.325 OA 
BRANCH   7  10
HETATM   10  C   UNL     1     -11.467  14.229  68.170  1.00  0.00    -0.336 A  
HETATM   11  C   UNL     1     -12.002  13.594  69.297  1.00  0.00    -0.384 A  
HETATM   12  C   UNL     1     -12.153  12.201  69.320  1.00  0.00    -0.234 A  
HETATM   13  C   UNL     1     -11.788  11.412  68.221  1.00  0.00    -0.249 A  
HETATM   14  C   UNL     1     -11.143  13.460  67.046  1.00  0.00    -0.310 A  
HETATM   15  C   UNL     1     -11.292  12.065  67.080  1.00  0.00    -0.396 A  
BRANCH  13  16
HETATM   16  N   UNL     1     -11.873  10.008  68.354  1.00  0.00    -0.450 NA 
HETATM   17  H   UNL     1     -12.604   9.535  68.886  1.00  0.00     0.000 HD 
BRANCH  16  18
HETATM   18  N   UNL     1     -10.960   9.406  67.751  1.00  0.00    -0.499 NA 
HETATM   19  H   UNL     1     -10.485   9.780  66.929  1.00  0.00     0.000 HD 
BRANCH  18  20
HETATM   20  C   UNL     1     -10.656   8.153  68.326  1.00  0.00    -0.098 A  
HETATM   21  C   UNL     1     -10.484   6.977  67.580  1.00  0.00    -0.301 A  
HETATM   22  C   UNL     1     -10.268   5.744  68.207  1.00  0.00    -0.235 A  
HETATM   23  C   UNL     1     -10.233   5.675  69.600  1.00  0.00    -0.251 A  
HETATM   24  O   UNL     1     -10.047   4.459  70.205  1.00  0.00    -0.218 OA 
HETATM   25  C   UNL     1     -10.397   6.831  70.374  1.00  0.00    -0.223 A  
HETATM   26  C   UNL     1     -10.382   6.845  71.865  1.00  0.00    -0.189 C  
HETATM   27  C   UNL     1     -10.609   8.061  69.722  1.00  0.00    -0.238 A  
HETATM   28  H   UNL     1     -10.023   4.412  71.154  1.00  0.00     0.000 HD 
HETATM   29  O   UNL     1     -10.521   7.874  72.512  1.00  0.00    -0.249 OA 
HETATM   30  O   UNL     1     -10.212   5.644  72.458  1.00  0.00    -0.182 OA 
ENDBRANCH  18  20
ENDBRANCH  16  18
ENDBRANCH  13  16
ENDBRANCH   7  10
ENDBRANCH   5   6
ENDBRANCH   4   5
TORSDOF 6
ENDMDL
MODEL      165
REMARK 921   NORMALIZED FREE ENERGY PREDICTED BY IDOCK:   -5.21 KCAL/MOL
REMARK 922        TOTAL FREE ENERGY PREDICTED BY IDOCK:   -8.03 KCAL/MOL
REMARK 923 INTER-LIGAND FREE ENERGY PREDICTED BY IDOCK:   -6.88 KCAL/MOL
REMARK 924 INTRA-LIGAND FREE ENERGY PREDICTED BY IDOCK:   -1.14 KCAL/MOL
REMARK 927      BINDING AFFINITY PREDICTED BY RF-SCORE:    0.00 PKD
ROOT
HETATM    1  O   UNL     1     -11.271   5.027  72.960  1.00  0.00    -0.283 OA 
HETATM    2  C   UNL     1      -9.994   5.094  73.396  1.00  0.00    -0.166 C  
HETATM    3  O   UNL     1      -9.573   6.032  74.058  1.00  0.00    -0.146 OA 
HETATM    4  C   UNL     1      -9.147   3.918  72.995  1.00  0.00    -0.120 C  
ENDROOT
BRANCH   4   5
HETATM    5  C   UNL     1      -8.514   4.134  71.632  1.00  0.00    -0.095 C  
BRANCH   5   6
HETATM    6  N   UNL     1      -8.910   5.386  71.021  1.00  0.00    -0.137 N  
HETATM    7  C   UNL     1      -7.977   6.319  70.612  1.00  0.00    -0.112 C  
HETATM    8  H   UNL     1      -9.902   5.583  70.888  1.00  0.00     0.000 HD 
HETATM    9  O   UNL     1      -6.768   6.149  70.717  1.00  0.00    -0.056 OA 
BRANCH   7  10
HETATM   10  C   UNL     1      -8.516   7.605  70.077  1.00  0.00    -0.136 A  
HETATM   11  C   UNL     1      -9.290   8.409  70.922  1.00  0.00    -0.201 A  
HETATM   12  C   UNL     1      -9.875   9.586  70.438  1.00  0.00    -0.329 A  
HETATM   13  C   UNL     1      -9.693   9.996  69.111  1.00  0.00    -0.209 A  
HETATM   14  C   UNL     1      -8.286   8.024  68.762  1.00  0.00    -0.126 A  
HETATM   15  C   UNL     1      -8.880   9.203  68.284  1.00  0.00    -0.129 A  
BRANCH  13  16
HETATM   16  N   UNL     1     -10.396  11.139  68.666  1.00  0.00    -0.195 NA 
HETATM   17  H   UNL     1     -11.359  11.346  68.929  1.00  0.00     0.000 HD 
BRANCH  16  18
HETATM   18  N   UNL     1      -9.713  11.869  67.918  1.00  0.00    -0.186 NA 
HETATM   19  H   UNL     1      -8.738  12.110  68.100  1.00  0.00     0.000 HD 
BRANCH  18  20
HETATM   20  C   UNL     1     -10.433  12.327  66.792  1.00  0.00    -0.218 A  
HETATM   21  C   UNL     1     -11.007  11.473  65.838  1.00  0.00    -0.301 A  
HETATM   22  C   UNL     1     -11.638  11.981  64.696  1.00  0.00    -0.364 A  
HETATM   23  C   UNL     1     -11.689  13.359  64.490  1.00  0.00    -0.384 A  
HETATM   24  O   UNL     1     -12.286  13.845  63.356  1.00  0.00    -1.063 OA 
HETATM   25  C   UNL     1     -11.129  14.239  65.426  1.00  0.00    -0.327 A  
HETATM   26  C   UNL     1     -11.132  15.723  65.281  1.00  0.00    -0.273 C  
HETATM   27  C   UNL     1     -10.504  13.707  66.570  1.00  0.00    -0.281 A  
HETATM   28  H   UNL     1     -12.321  14.784  63.216  1.00  0.00     0.000 HD 
HETATM   29  O   UNL     1     -10.641  16.464  66.120  1.00  0.00    -0.311 OA 
HETATM   30  O   UNL     1     -11.709  16.197  64.156  1.00  0.00    -0.735 OA 
ENDBRANCH  18  20
ENDBRANCH  16  18
ENDBRANCH  13  16
ENDBRANCH   7  10
ENDBRANCH   5   6
ENDBRANCH   4   5
TORSDOF 6
ENDMDL
MODEL      166
REMARK 921   NORMALIZED FREE ENERGY PREDICTED BY IDOCK:   -5.15 KCAL/MOL
REMARK 922        TOTAL FREE ENERGY PREDICTED BY IDOCK:   -7.95 KCAL/MOL
REMARK 923 INTER-LIGAND FREE ENERGY PREDICTED BY IDOCK:   -6.84 KCAL/MOL
REMARK 924 INTRA-LIGAND FREE ENERGY PREDICTED BY IDOCK:   -1.10 KCAL/MOL
REMARK 927      BINDING AFFINITY PREDICTED BY RF-SCORE:    0.00 PKD
ROOT
HETATM    1  O   UNL     1      -7.638  16.199  67.008  1.00  0.00    -0.179 OA 
HETATM    2  C   UNL     1      -8.971  16.363  67.149  1.00  0.00    -0.202 C  
HETATM    3  O   UNL     1      -9.522  16.361  68.241  1.00  0.00    -0.209 OA 
HETATM    4  C   UNL     1      -9.708  16.547  65.851  1.00  0.00    -0.303 C  
ENDROOT
BRANCH   4   5
HETATM    5  C   UNL     1     -10.107  15.211  65.250  1.00  0.00    -0.330 C  
BRANCH   5   6
HETATM    6  N   UNL     1     -10.312  14.184  66.251  1.00  0.00    -0.285 N  
HETATM    7  C   UNL     1     -11.579  13.777  66.623  1.00  0.00    -0.369 C  
HETATM    8  H   UNL     1      -9.501  13.749  66.692  1.00  0.00     0.000 HD 
HETATM    9  O   UNL     1     -12.602  14.234  66.127  1.00  0.00    -0.436 OA 
BRANCH   7  10
HETATM   10  C   UNL     1     -11.656  12.774  67.726  1.00  0.00    -0.405 A  
HETATM   11  C   UNL     1     -11.372  11.435  67.434  1.00  0.00    -0.359 A  
HETATM   12  C   UNL     1     -11.504  10.452  68.424  1.00  0.00    -0.227 A  
HETATM   13  C   UNL     1     -11.906  10.779  69.726  1.00  0.00    -0.335 A  
HETATM   14  C   UNL     1     -12.013  13.125  69.034  1.00  0.00    -0.329 A  
HETATM   15  C   UNL     1     -12.147  12.132  70.017  1.00  0.00    -0.352 A  
BRANCH  13  16
HETATM   16  N   UNL     1     -12.114   9.724  70.642  1.00  0.00    -0.397 NA 
HETATM   17  H   UNL     1     -12.890   9.064  70.575  1.00  0.00     0.000 HD 
BRANCH  16  18
HETATM   18  N   UNL     1     -11.249   9.683  71.541  1.00  0.00    -0.362 NA 
HETATM   19  H   UNL     1     -11.167  10.385  72.277  1.00  0.00     0.000 HD 
BRANCH  18  20
HETATM   20  C   UNL     1     -10.397   8.562  71.432  1.00  0.00    -0.239 A  
HETATM   21  C   UNL     1     -10.767   7.363  70.802  1.00  0.00    -0.245 A  
HETATM   22  C   UNL     1      -9.914   6.254  70.796  1.00  0.00    -0.220 A  
HETATM   23  C   UNL     1      -8.677   6.330  71.436  1.00  0.00    -0.135 A  
HETATM   24  O   UNL     1      -7.860   5.229  71.447  1.00  0.00    -0.102 OA 
HETATM   25  C   UNL     1      -8.276   7.513  72.071  1.00  0.00    -0.115 A  
HETATM   26  C   UNL     1      -6.977   7.677  72.784  1.00  0.00    -0.071 C  
HETATM   27  C   UNL     1      -9.147   8.619  72.060  1.00  0.00    -0.311 A  
HETATM   28  H   UNL     1      -7.017   5.281  71.883  1.00  0.00     0.000 HD 
HETATM   29  O   UNL     1      -6.653   8.726  73.322  1.00  0.00    -0.276 OA 
HETATM   30  O   UNL     1      -6.181   6.587  72.804  1.00  0.00    -0.052 OA 
ENDBRANCH  18  20
ENDBRANCH  16  18
ENDBRANCH  13  16
ENDBRANCH   7  10
ENDBRANCH   5   6
ENDBRANCH   4   5
TORSDOF 6
ENDMDL
MODEL      167
REMARK 921   NORMALIZED FREE ENERGY PREDICTED BY IDOCK:   -5.15 KCAL/MOL
REMARK 922        TOTAL FREE ENERGY PREDICTED BY IDOCK:   -7.94 KCAL/MOL
REMARK 923 INTER-LIGAND FREE ENERGY PREDICTED BY IDOCK:   -6.77 KCAL/MOL
REMARK 924 INTRA-LIGAND FREE ENERGY PREDICTED BY IDOCK:   -1.18 KCAL/MOL
REMARK 927      BINDING AFFINITY PREDICTED BY RF-SCORE:    0.00 PKD
ROOT
HETATM    1  O   UNL     1      -8.744   5.022  63.797  1.00  0.00    -0.135 OA 
HETATM    2  C   UNL     1      -8.884   4.158  64.826  1.00  0.00    -0.135 C  
HETATM    3  O   UNL     1      -9.971   3.894  65.320  1.00  0.00    -0.187 OA 
HETATM    4  C   UNL     1      -7.592   3.555  65.302  1.00  0.00    -0.078 C  
ENDROOT
BRANCH   4   5
HETATM    5  C   UNL     1      -6.928   4.431  66.350  1.00  0.00    -0.062 C  
BRANCH   5   6
HETATM    6  N   UNL     1      -7.704   5.613  66.667  1.00  0.00    -0.099 N  
HETATM    7  C   UNL     1      -8.093   5.899  67.962  1.00  0.00    -0.105 C  
HETATM    8  H   UNL     1      -7.970   6.250  65.916  1.00  0.00     0.000 HD 
HETATM    9  O   UNL     1      -7.796   5.196  68.922  1.00  0.00    -0.080 OA 
BRANCH   7  10
HETATM   10  C   UNL     1      -8.962   7.099  68.143  1.00  0.00    -0.128 A  
HETATM   11  C   UNL     1      -9.468   7.371  69.419  1.00  0.00    -0.155 A  
HETATM   12  C   UNL     1     -10.347   8.445  69.618  1.00  0.00    -0.218 A  
HETATM   13  C   UNL     1     -10.729   9.277  68.557  1.00  0.00    -0.142 A  
HETATM   14  C   UNL     1      -9.297   7.949  67.083  1.00  0.00    -0.190 A  
HETATM   15  C   UNL     1     -10.181   9.019  67.290  1.00  0.00    -0.323 A  
BRANCH  13  16
HETATM   16  N   UNL     1     -11.695  10.276  68.812  1.00  0.00    -0.581 NA 
HETATM   17  H   UNL     1     -11.872  11.063  68.187  1.00  0.00     0.000 HD 
BRANCH  16  18
HETATM   18  N   UNL     1     -12.311  10.095  69.883  1.00  0.00    -0.509 NA 
HETATM   19  H   UNL     1     -12.639   9.182  70.199  1.00  0.00     0.000 HD 
BRANCH  18  20
HETATM   20  C   UNL     1     -12.506  11.290  70.612  1.00  0.00    -0.348 A  
HETATM   21  C   UNL     1     -13.273  11.367  71.785  1.00  0.00    -0.472 A  
HETATM   22  C   UNL     1     -13.505  12.592  72.421  1.00  0.00    -0.450 A  
HETATM   23  C   UNL     1     -12.976  13.763  71.878  1.00  0.00    -0.350 A  
HETATM   24  O   UNL     1     -13.230  14.961  72.494  1.00  0.00    -0.344 OA 
HETATM   25  C   UNL     1     -12.202  13.720  70.710  1.00  0.00    -0.437 A  
HETATM   26  C   UNL     1     -11.608  14.922  70.059  1.00  0.00    -0.289 C  
HETATM   27  C   UNL     1     -11.978  12.476  70.089  1.00  0.00    -0.377 A  
HETATM   28  H   UNL     1     -12.870  15.759  72.124  1.00  0.00     0.000 HD 
HETATM   29  O   UNL     1     -10.931  14.849  69.043  1.00  0.00    -0.226 OA 
HETATM   30  O   UNL     1     -11.871  16.101  70.661  1.00  0.00    -0.348 OA 
ENDBRANCH  18  20
ENDBRANCH  16  18
ENDBRANCH  13  16
ENDBRANCH   7  10
ENDBRANCH   5   6
ENDBRANCH   4   5
TORSDOF 6
ENDMDL
MODEL      168
REMARK 921   NORMALIZED FREE ENERGY PREDICTED BY IDOCK:   -5.15 KCAL/MOL
REMARK 922        TOTAL FREE ENERGY PREDICTED BY IDOCK:   -7.94 KCAL/MOL
REMARK 923 INTER-LIGAND FREE ENERGY PREDICTED BY IDOCK:   -6.86 KCAL/MOL
REMARK 924 INTRA-LIGAND FREE ENERGY PREDICTED BY IDOCK:   -1.08 KCAL/MOL
REMARK 927      BINDING AFFINITY PREDICTED BY RF-SCORE:    0.00 PKD
ROOT
HETATM    1  O   UNL     1     -11.337   6.393  72.765  1.00  0.00    -0.251 OA 
HETATM    2  C   UNL     1     -10.050   6.026  72.591  1.00  0.00    -0.178 C  
HETATM    3  O   UNL     1      -9.113   6.766  72.855  1.00  0.00    -0.128 OA 
HETATM    4  C   UNL     1      -9.876   4.635  72.048  1.00  0.00    -0.239 C  
ENDROOT
BRANCH   4   5
HETATM    5  C   UNL     1      -9.905   4.628  70.529  1.00  0.00    -0.231 C  
BRANCH   5   6
HETATM    6  N   UNL     1     -10.412   5.866  69.972  1.00  0.00    -0.240 N  
HETATM    7  C   UNL     1      -9.585   6.759  69.320  1.00  0.00    -0.144 C  
HETATM    8  H   UNL     1     -11.405   6.083  70.064  1.00  0.00     0.000 HD 
HETATM    9  O   UNL     1      -8.387   6.563  69.150  1.00  0.00    -0.117 OA 
BRANCH   7  10
HETATM   10  C   UNL     1     -10.213   8.036  68.869  1.00  0.00    -0.220 A  
HETATM   11  C   UNL     1     -10.368   8.257  67.495  1.00  0.00    -0.333 A  
HETATM   12  C   UNL     1     -10.885   9.473  67.028  1.00  0.00    -0.125 A  
HETATM   13  C   UNL     1     -11.271  10.487  67.914  1.00  0.00    -0.289 A  
HETATM   14  C   UNL     1     -10.637   9.021  69.769  1.00  0.00    -0.236 A  
HETATM   15  C   UNL     1     -11.149  10.238  69.291  1.00  0.00    -0.293 A  
BRANCH  13  16
HETATM   16  N   UNL     1     -11.689  11.723  67.369  1.00  0.00    -0.588 NA 
HETATM   17  H   UNL     1     -12.666  12.003  67.291  1.00  0.00     0.000 HD 
BRANCH  16  18
HETATM   18  N   UNL     1     -10.734  12.435  66.992  1.00  0.00    -0.235 NA 
HETATM   19  H   UNL     1     -10.020  12.120  66.335  1.00  0.00     0.000 HD 
BRANCH  18  20
HETATM   20  C   UNL     1     -10.748  13.722  67.574  1.00  0.00    -0.256 A  
HETATM   21  C   UNL     1     -11.579  14.081  68.647  1.00  0.00    -0.360 A  
HETATM   22  C   UNL     1     -11.614  15.394  69.130  1.00  0.00    -0.354 A  
HETATM   23  C   UNL     1     -10.819  16.371  68.532  1.00  0.00    -0.339 A  
HETATM   24  O   UNL     1     -10.880  17.660  68.995  1.00  0.00    -0.298 OA 
HETATM   25  C   UNL     1      -9.975  16.045  67.461  1.00  0.00    -0.240 A  
HETATM   26  C   UNL     1      -9.101  17.028  66.759  1.00  0.00    -0.246 C  
HETATM   27  C   UNL     1      -9.953  14.717  66.994  1.00  0.00    -0.238 A  
HETATM   28  H   UNL     1     -10.339  18.326  68.587  1.00  0.00     0.000 HD 
HETATM   29  O   UNL     1      -8.370  16.710  65.832  1.00  0.00    -0.430 OA 
HETATM   30  O   UNL     1      -9.174  18.299  67.210  1.00  0.00    -0.252 OA 
ENDBRANCH  18  20
ENDBRANCH  16  18
ENDBRANCH  13  16
ENDBRANCH   7  10
ENDBRANCH   5   6
ENDBRANCH   4   5
TORSDOF 6
ENDMDL
MODEL      169
REMARK 921   NORMALIZED FREE ENERGY PREDICTED BY IDOCK:   -5.14 KCAL/MOL
REMARK 922        TOTAL FREE ENERGY PREDICTED BY IDOCK:   -7.93 KCAL/MOL
REMARK 923 INTER-LIGAND FREE ENERGY PREDICTED BY IDOCK:   -6.87 KCAL/MOL
REMARK 924 INTRA-LIGAND FREE ENERGY PREDICTED BY IDOCK:   -1.06 KCAL/MOL
REMARK 927      BINDING AFFINITY PREDICTED BY RF-SCORE:    0.00 PKD
ROOT
HETATM    1  O   UNL     1     -11.518   6.100  72.845  1.00  0.00    -0.216 OA 
HETATM    2  C   UNL     1     -11.903   7.093  72.017  1.00  0.00    -0.295 C  
HETATM    3  O   UNL     1     -12.612   6.898  71.039  1.00  0.00    -0.374 OA 
HETATM    4  C   UNL     1     -11.386   8.451  72.404  1.00  0.00    -0.448 C  
ENDROOT
BRANCH   4   5
HETATM    5  C   UNL     1     -10.016   8.711  71.802  1.00  0.00    -0.301 C  
BRANCH   5   6
HETATM    6  N   UNL     1     -10.041   8.772  70.355  1.00  0.00    -0.186 N  
HETATM    7  C   UNL     1      -8.879   8.720  69.608  1.00  0.00    -0.141 C  
HETATM    8  H   UNL     1     -10.937   8.854  69.875  1.00  0.00     0.000 HD 
HETATM    9  O   UNL     1      -7.766   8.601  70.107  1.00  0.00    -0.073 OA 
BRANCH   7  10
HETATM   10  C   UNL     1      -9.033   8.880  68.132  1.00  0.00    -0.137 A  
HETATM   11  C   UNL     1      -7.925   9.294  67.384  1.00  0.00    -0.106 A  
HETATM   12  C   UNL     1      -8.046   9.526  66.008  1.00  0.00    -0.111 A  
HETATM   13  C   UNL     1      -9.266   9.338  65.344  1.00  0.00    -0.222 A  
HETATM   14  C   UNL     1     -10.246   8.642  67.475  1.00  0.00    -0.308 A  
HETATM   15  C   UNL     1     -10.360   8.882  66.097  1.00  0.00     0.073 A  
BRANCH  13  16
HETATM   16  N   UNL     1      -9.338   9.689  63.976  1.00  0.00    -0.415 NA 
HETATM   17  H   UNL     1      -9.666   9.054  63.248  1.00  0.00     0.000 HD 
BRANCH  16  18
HETATM   18  N   UNL     1      -8.958  10.857  63.753  1.00  0.00    -0.314 NA 
HETATM   19  H   UNL     1      -7.994  11.104  63.526  1.00  0.00     0.000 HD 
BRANCH  18  20
HETATM   20  C   UNL     1     -10.004  11.802  63.849  1.00  0.00    -0.331 A  
HETATM   21  C   UNL     1     -11.282  11.603  63.304  1.00  0.00    -0.305 A  
HETATM   22  C   UNL     1     -12.256  12.607  63.354  1.00  0.00    -0.610 A  
HETATM   23  C   UNL     1     -11.953  13.834  63.944  1.00  0.00    -0.371 A  
HETATM   24  O   UNL     1     -12.906  14.820  63.965  1.00  0.00    -0.697 OA 
HETATM   25  C   UNL     1     -10.688  14.063  64.501  1.00  0.00    -0.355 A  
HETATM   26  C   UNL     1     -10.279  15.346  65.142  1.00  0.00    -0.325 C  
HETATM   27  C   UNL     1      -9.725  13.038  64.444  1.00  0.00     0.198 A  
HETATM   28  H   UNL     1     -12.699  15.656  64.367  1.00  0.00     0.000 HD 
HETATM   29  O   UNL     1      -9.168  15.511  65.625  1.00  0.00    -0.268 OA 
HETATM   30  O   UNL     1     -11.215  16.319  65.148  1.00  0.00    -0.235 OA 
ENDBRANCH  18  20
ENDBRANCH  16  18
ENDBRANCH  13  16
ENDBRANCH   7  10
ENDBRANCH   5   6
ENDBRANCH   4   5
TORSDOF 6
ENDMDL
MODEL      170
REMARK 921   NORMALIZED FREE ENERGY PREDICTED BY IDOCK:   -5.12 KCAL/MOL
REMARK 922        TOTAL FREE ENERGY PREDICTED BY IDOCK:   -7.91 KCAL/MOL
REMARK 923 INTER-LIGAND FREE ENERGY PREDICTED BY IDOCK:   -7.03 KCAL/MOL
REMARK 924 INTRA-LIGAND FREE ENERGY PREDICTED BY IDOCK:   -0.88 KCAL/MOL
REMARK 927      BINDING AFFINITY PREDICTED BY RF-SCORE:    0.00 PKD
ROOT
HETATM    1  O   UNL     1      -8.853   3.274  72.797  1.00  0.00    -0.084 OA 
HETATM    2  C   UNL     1      -9.866   3.204  73.686  1.00  0.00    -0.105 C  
HETATM    3  O   UNL     1     -10.428   2.153  73.962  1.00  0.00    -0.112 OA 
HETATM    4  C   UNL     1     -10.235   4.525  74.302  1.00  0.00    -0.277 C  
ENDROOT
BRANCH   4   5
HETATM    5  C   UNL     1     -11.256   5.262  73.454  1.00  0.00    -0.250 C  
BRANCH   5   6
HETATM    6  N   UNL     1     -10.662   5.933  72.316  1.00  0.00    -0.223 N  
HETATM    7  C   UNL     1     -10.756   7.302  72.152  1.00  0.00    -0.219 C  
HETATM    8  H   UNL     1     -10.161   5.382  71.619  1.00  0.00     0.000 HD 
HETATM    9  O   UNL     1     -11.322   8.036  72.955  1.00  0.00    -0.408 OA 
BRANCH   7  10
HETATM   10  C   UNL     1     -10.178   7.860  70.894  1.00  0.00    -0.213 A  
HETATM   11  C   UNL     1     -10.095   9.250  70.755  1.00  0.00    -0.358 A  
HETATM   12  C   UNL     1      -9.627   9.815  69.561  1.00  0.00    -0.225 A  
HETATM   13  C   UNL     1      -9.218   9.012  68.488  1.00  0.00    -0.136 A  
HETATM   14  C   UNL     1      -9.730   7.044  69.849  1.00  0.00    -0.163 A  
HETATM   15  C   UNL     1      -9.267   7.618  68.655  1.00  0.00    -0.141 A  
BRANCH  13  16
HETATM   16  N   UNL     1      -8.854   9.652  67.282  1.00  0.00    -0.131 NA 
HETATM   17  H   UNL     1      -8.231  10.458  67.237  1.00  0.00     0.000 HD 
BRANCH  16  18
HETATM   18  N   UNL     1      -9.375   9.125  66.276  1.00  0.00    -0.197 NA 
HETATM   19  H   UNL     1      -9.406   8.118  66.119  1.00  0.00     0.000 HD 
BRANCH  18  20
HETATM   20  C   UNL     1      -9.916  10.073  65.379  1.00  0.00    -0.294 A  
HETATM   21  C   UNL     1      -9.536  10.173  64.032  1.00  0.00    -0.320 A  
HETATM   22  C   UNL     1     -10.042  11.186  63.209  1.00  0.00    -0.426 A  
HETATM   23  C   UNL     1     -10.931  12.123  63.734  1.00  0.00    -0.431 A  
HETATM   24  O   UNL     1     -11.400  13.127  62.926  1.00  0.00    -0.498 OA 
HETATM   25  C   UNL     1     -11.333  12.050  65.074  1.00  0.00    -0.365 A  
HETATM   26  C   UNL     1     -12.272  13.014  65.717  1.00  0.00    -0.453 C  
HETATM   27  C   UNL     1     -10.816  11.020  65.883  1.00  0.00    -0.183 A  
HETATM   28  H   UNL     1     -12.006  13.766  63.284  1.00  0.00     0.000 HD 
HETATM   29  O   UNL     1     -12.609  12.917  66.888  1.00  0.00    -0.170 OA 
HETATM   30  O   UNL     1     -12.721  14.008  64.922  1.00  0.00    -0.647 OA 
ENDBRANCH  18  20
ENDBRANCH  16  18
ENDBRANCH  13  16
ENDBRANCH   7  10
ENDBRANCH   5   6
ENDBRANCH   4   5
TORSDOF 6
ENDMDL
MODEL      171
REMARK 921   NORMALIZED FREE ENERGY PREDICTED BY IDOCK:   -5.11 KCAL/MOL
REMARK 922        TOTAL FREE ENERGY PREDICTED BY IDOCK:   -7.89 KCAL/MOL
REMARK 923 INTER-LIGAND FREE ENERGY PREDICTED BY IDOCK:   -6.95 KCAL/MOL
REMARK 924 INTRA-LIGAND FREE ENERGY PREDICTED BY IDOCK:   -0.94 KCAL/MOL
REMARK 927      BINDING AFFINITY PREDICTED BY RF-SCORE:    0.00 PKD
ROOT
HETATM    1  O   UNL     1     -12.793  14.847  73.703  1.00  0.00    -0.512 OA 
HETATM    2  C   UNL     1     -13.570  14.521  72.648  1.00  0.00    -0.478 C  
HETATM    3  O   UNL     1     -14.063  13.410  72.513  1.00  0.00    -0.726 OA 
HETATM    4  C   UNL     1     -13.771  15.641  71.665  1.00  0.00    -0.467 C  
ENDROOT
BRANCH   4   5
HETATM    5  C   UNL     1     -12.664  15.666  70.625  1.00  0.00    -0.394 C  
BRANCH   5   6
HETATM    6  N   UNL     1     -12.213  14.341  70.252  1.00  0.00    -0.322 N  
HETATM    7  C   UNL     1     -12.133  13.948  68.930  1.00  0.00    -0.319 C  
HETATM    8  H   UNL     1     -11.948  13.681  70.984  1.00  0.00     0.000 HD 
HETATM    9  O   UNL     1     -12.413  14.688  67.993  1.00  0.00    -0.032 OA 
BRANCH   7  10
HETATM   10  C   UNL     1     -11.737  12.530  68.682  1.00  0.00    -0.368 A  
HETATM   11  C   UNL     1     -11.684  11.651  69.770  1.00  0.00    -0.425 A  
HETATM   12  C   UNL     1     -11.248  10.331  69.592  1.00  0.00    -0.322 A  
HETATM   13  C   UNL     1     -10.869   9.854  68.331  1.00  0.00    -0.221 A  
HETATM   14  C   UNL     1     -11.407  12.056  67.407  1.00  0.00    -0.393 A  
HETATM   15  C   UNL     1     -10.966  10.734  67.240  1.00  0.00    -0.359 A  
BRANCH  13  16
HETATM   16  N   UNL     1     -10.344   8.545  68.246  1.00  0.00    -0.226 NA 
HETATM   17  H   UNL     1      -9.855   8.083  69.013  1.00  0.00     0.000 HD 
BRANCH  16  18
HETATM   18  N   UNL     1     -10.542   8.013  67.133  1.00  0.00    -0.412 NA 
HETATM   19  H   UNL     1     -11.466   7.905  66.716  1.00  0.00     0.000 HD 
BRANCH  18  20
HETATM   20  C   UNL     1      -9.349   7.576  66.515  1.00  0.00    -0.181 A  
HETATM   21  C   UNL     1      -8.876   6.257  66.585  1.00  0.00    -0.132 A  
HETATM   22  C   UNL     1      -7.645   5.897  66.025  1.00  0.00    -0.086 A  
HETATM   23  C   UNL     1      -6.864   6.864  65.394  1.00  0.00    -0.052 A  
HETATM   24  O   UNL     1      -5.648   6.508  64.872  1.00  0.00    -0.027 OA 
HETATM   25  C   UNL     1      -7.309   8.190  65.304  1.00  0.00    -0.073 A  
HETATM   26  C   UNL     1      -6.534   9.288  64.656  1.00  0.00    -0.077 C  
HETATM   27  C   UNL     1      -8.552   8.530  65.870  1.00  0.00    -0.183 A  
HETATM   28  H   UNL     1      -5.115   7.167  64.442  1.00  0.00     0.000 HD 
HETATM   29  O   UNL     1      -6.955  10.434  64.587  1.00  0.00    -0.111 OA 
HETATM   30  O   UNL     1      -5.331   8.935  64.155  1.00  0.00    -0.054 OA 
ENDBRANCH  18  20
ENDBRANCH  16  18
ENDBRANCH  13  16
ENDBRANCH   7  10
ENDBRANCH   5   6
ENDBRANCH   4   5
TORSDOF 6
ENDMDL
MODEL      172
REMARK 921   NORMALIZED FREE ENERGY PREDICTED BY IDOCK:   -5.10 KCAL/MOL
REMARK 922        TOTAL FREE ENERGY PREDICTED BY IDOCK:   -7.88 KCAL/MOL
REMARK 923 INTER-LIGAND FREE ENERGY PREDICTED BY IDOCK:   -6.86 KCAL/MOL
REMARK 924 INTRA-LIGAND FREE ENERGY PREDICTED BY IDOCK:   -1.02 KCAL/MOL
REMARK 927      BINDING AFFINITY PREDICTED BY RF-SCORE:    0.00 PKD
ROOT
HETATM    1  O   UNL     1      -9.474  11.479  62.707  1.00  0.00    -0.373 OA 
HETATM    2  C   UNL     1      -9.726  10.620  63.717  1.00  0.00    -0.327 C  
HETATM    3  O   UNL     1     -10.595  10.823  64.553  1.00  0.00    -0.336 OA 
HETATM    4  C   UNL     1      -8.847   9.400  63.719  1.00  0.00    -0.201 C  
ENDROOT
BRANCH   4   5
HETATM    5  C   UNL     1      -7.557   9.650  64.480  1.00  0.00    -0.127 C  
BRANCH   5   6
HETATM    6  N   UNL     1      -7.598  10.864  65.271  1.00  0.00    -0.358 N  
HETATM    7  C   UNL     1      -7.873  10.837  66.624  1.00  0.00    -0.140 C  
HETATM    8  H   UNL     1      -7.420  11.760  64.817  1.00  0.00     0.000 HD 
HETATM    9  O   UNL     1      -8.078   9.801  67.247  1.00  0.00    -0.115 OA 
BRANCH   7  10
HETATM   10  C   UNL     1      -7.973  12.161  67.306  1.00  0.00    -0.176 A  
HETATM   11  C   UNL     1      -6.841  12.665  67.958  1.00  0.00    -0.095 A  
HETATM   12  C   UNL     1      -6.912  13.869  68.672  1.00  0.00    -0.108 A  
HETATM   13  C   UNL     1      -8.104  14.603  68.741  1.00  0.00    -0.152 A  
HETATM   14  C   UNL     1      -9.158  12.906  67.327  1.00  0.00    -0.208 A  
HETATM   15  C   UNL     1      -9.222  14.108  68.049  1.00  0.00    -0.195 A  
BRANCH  13  16
HETATM   16  N   UNL     1      -8.128  15.754  69.562  1.00  0.00    -0.205 NA 
HETATM   17  H   UNL     1      -8.919  16.008  70.153  1.00  0.00     0.000 HD 
BRANCH  16  18
HETATM   18  N   UNL     1      -7.078  16.426  69.487  1.00  0.00    -0.189 NA 
HETATM   19  H   UNL     1      -6.176  16.106  69.840  1.00  0.00     0.000 HD 
BRANCH  18  20
HETATM   20  C   UNL     1      -7.273  17.679  68.863  1.00  0.00    -0.256 A  
HETATM   21  C   UNL     1      -6.556  18.836  69.204  1.00  0.00    -0.309 A  
HETATM   22  C   UNL     1      -6.848  20.070  68.613  1.00  0.00    -0.336 A  
HETATM   23  C   UNL     1      -7.876  20.161  67.675  1.00  0.00    -0.300 A  
HETATM   24  O   UNL     1      -8.171  21.380  67.121  1.00  0.00    -0.607 OA 
HETATM   25  C   UNL     1      -8.608  19.024  67.309  1.00  0.00    -0.298 A  
HETATM   26  C   UNL     1      -9.727  19.033  66.324  1.00  0.00    -0.354 C  
HETATM   27  C   UNL     1      -8.295  17.791  67.913  1.00  0.00    -0.241 A  
HETATM   28  H   UNL     1      -8.872  21.442  66.482  1.00  0.00     0.000 HD 
HETATM   29  O   UNL     1     -10.341  18.021  66.021  1.00  0.00    -0.467 OA 
HETATM   30  O   UNL     1     -10.023  20.238  65.790  1.00  0.00    -0.387 OA 
ENDBRANCH  18  20
ENDBRANCH  16  18
ENDBRANCH  13  16
ENDBRANCH   7  10
ENDBRANCH   5   6
ENDBRANCH   4   5
TORSDOF 6
ENDMDL
MODEL      173
REMARK 921   NORMALIZED FREE ENERGY PREDICTED BY IDOCK:   -5.10 KCAL/MOL
REMARK 922        TOTAL FREE ENERGY PREDICTED BY IDOCK:   -7.88 KCAL/MOL
REMARK 923 INTER-LIGAND FREE ENERGY PREDICTED BY IDOCK:   -6.95 KCAL/MOL
REMARK 924 INTRA-LIGAND FREE ENERGY PREDICTED BY IDOCK:   -0.92 KCAL/MOL
REMARK 927      BINDING AFFINITY PREDICTED BY RF-SCORE:    0.00 PKD
ROOT
HETATM    1  O   UNL     1      -9.074   4.458  63.013  1.00  0.00    -0.127 OA 
HETATM    2  C   UNL     1      -9.614   3.526  63.827  1.00  0.00    -0.138 C  
HETATM    3  O   UNL     1     -10.821   3.409  63.983  1.00  0.00    -0.233 OA 
HETATM    4  C   UNL     1      -8.603   2.654  64.519  1.00  0.00    -0.093 C  
ENDROOT
BRANCH   4   5
HETATM    5  C   UNL     1      -8.137   3.278  65.823  1.00  0.00    -0.093 C  
BRANCH   5   6
HETATM    6  N   UNL     1      -8.324   4.715  65.856  1.00  0.00    -0.114 N  
HETATM    7  C   UNL     1      -9.223   5.308  66.721  1.00  0.00    -0.126 C  
HETATM    8  H   UNL     1      -7.778   5.302  65.226  1.00  0.00     0.000 HD 
HETATM    9  O   UNL     1      -9.900   4.675  67.523  1.00  0.00    -0.171 OA 
BRANCH   7  10
HETATM   10  C   UNL     1      -9.385   6.787  66.596  1.00  0.00    -0.197 A  
HETATM   11  C   UNL     1     -10.334   7.427  67.401  1.00  0.00    -0.340 A  
HETATM   12  C   UNL     1     -10.569   8.801  67.263  1.00  0.00    -0.303 A  
HETATM   13  C   UNL     1      -9.856   9.571  66.334  1.00  0.00    -0.253 A  
HETATM   14  C   UNL     1      -8.632   7.550  65.696  1.00  0.00    -0.131 A  
HETATM   15  C   UNL     1      -8.877   8.925  65.561  1.00  0.00    -0.238 A  
BRANCH  13  16
HETATM   16  N   UNL     1     -10.218  10.928  66.180  1.00  0.00    -0.242 NA 
HETATM   17  H   UNL     1     -10.480  11.534  66.958  1.00  0.00     0.000 HD 
BRANCH  16  18
HETATM   18  N   UNL     1     -10.181  11.309  64.991  1.00  0.00    -0.267 NA 
HETATM   19  H   UNL     1      -9.759  10.766  64.237  1.00  0.00     0.000 HD 
BRANCH  18  20
HETATM   20  C   UNL     1     -10.785  12.572  64.802  1.00  0.00    -0.302 A  
HETATM   21  C   UNL     1     -11.978  12.764  64.088  1.00  0.00    -0.499 A  
HETATM   22  C   UNL     1     -12.487  14.046  63.857  1.00  0.00    -0.170 A  
HETATM   23  C   UNL     1     -11.796  15.160  64.332  1.00  0.00    -0.305 A  
HETATM   24  O   UNL     1     -12.290  16.414  64.079  1.00  0.00    -0.799 OA 
HETATM   25  C   UNL     1     -10.603  15.004  65.052  1.00  0.00    -0.437 A  
HETATM   26  C   UNL     1      -9.797  16.139  65.587  1.00  0.00    -0.255 C  
HETATM   27  C   UNL     1     -10.111  13.704  65.277  1.00  0.00    -0.297 A  
HETATM   28  H   UNL     1     -11.818  17.173  64.402  1.00  0.00     0.000 HD 
HETATM   29  O   UNL     1      -8.764  15.967  66.218  1.00  0.00    -0.298 OA 
HETATM   30  O   UNL     1     -10.280  17.372  65.324  1.00  0.00    -0.522 OA 
ENDBRANCH  18  20
ENDBRANCH  16  18
ENDBRANCH  13  16
ENDBRANCH   7  10
ENDBRANCH   5   6
ENDBRANCH   4   5
TORSDOF 6
ENDMDL
MODEL      174
REMARK 921   NORMALIZED FREE ENERGY PREDICTED BY IDOCK:   -5.10 KCAL/MOL
REMARK 922        TOTAL FREE ENERGY PREDICTED BY IDOCK:   -7.87 KCAL/MOL
REMARK 923 INTER-LIGAND FREE ENERGY PREDICTED BY IDOCK:   -7.01 KCAL/MOL
REMARK 924 INTRA-LIGAND FREE ENERGY PREDICTED BY IDOCK:   -0.86 KCAL/MOL
REMARK 927      BINDING AFFINITY PREDICTED BY RF-SCORE:    0.00 PKD
ROOT
HETATM    1  O   UNL     1     -10.640  14.474  67.449  1.00  0.00    -0.266 OA 
HETATM    2  C   UNL     1     -10.114  14.639  68.681  1.00  0.00    -0.238 C  
HETATM    3  O   UNL     1      -9.054  14.132  69.018  1.00  0.00    -0.052 OA 
HETATM    4  C   UNL     1     -10.946  15.497  69.594  1.00  0.00    -0.288 C  
ENDROOT
BRANCH   4   5
HETATM    5  C   UNL     1     -11.984  14.671  70.333  1.00  0.00    -0.311 C  
BRANCH   5   6
HETATM    6  N   UNL     1     -11.781  13.245  70.177  1.00  0.00    -0.516 N  
HETATM    7  C   UNL     1     -12.447  12.328  70.968  1.00  0.00    -0.263 C  
HETATM    8  H   UNL     1     -11.132  12.909  69.466  1.00  0.00     0.000 HD 
HETATM    9  O   UNL     1     -13.258  12.650  71.830  1.00  0.00    -0.432 OA 
BRANCH   7  10
HETATM   10  C   UNL     1     -12.085  10.894  70.768  1.00  0.00    -0.469 A  
HETATM   11  C   UNL     1     -12.776   9.921  71.499  1.00  0.00    -0.515 A  
HETATM   12  C   UNL     1     -12.418   8.570  71.395  1.00  0.00    -0.327 A  
HETATM   13  C   UNL     1     -11.378   8.157  70.553  1.00  0.00    -0.221 A  
HETATM   14  C   UNL     1     -11.074  10.492  69.887  1.00  0.00    -0.371 A  
HETATM   15  C   UNL     1     -10.719   9.138  69.793  1.00  0.00    -0.239 A  
BRANCH  13  16
HETATM   16  N   UNL     1     -11.006   6.793  70.576  1.00  0.00    -0.263 NA 
HETATM   17  H   UNL     1     -11.609   6.051  70.931  1.00  0.00     0.000 HD 
BRANCH  16  18
HETATM   18  N   UNL     1      -9.863   6.593  70.116  1.00  0.00    -0.167 NA 
HETATM   19  H   UNL     1      -9.007   6.909  70.572  1.00  0.00     0.000 HD 
BRANCH  18  20
HETATM   20  C   UNL     1      -9.880   5.882  68.895  1.00  0.00    -0.145 A  
HETATM   21  C   UNL     1     -10.513   6.349  67.733  1.00  0.00    -0.281 A  
HETATM   22  C   UNL     1     -10.573   5.565  66.575  1.00  0.00    -0.343 A  
HETATM   23  C   UNL     1     -10.005   4.292  66.572  1.00  0.00    -0.192 A  
HETATM   24  O   UNL     1     -10.091   3.522  65.441  1.00  0.00    -0.391 OA 
HETATM   25  C   UNL     1      -9.362   3.797  67.714  1.00  0.00    -0.237 A  
HETATM   26  C   UNL     1      -8.736   2.446  67.801  1.00  0.00    -0.113 C  
HETATM   27  C   UNL     1      -9.309   4.604  68.867  1.00  0.00    -0.200 A  
HETATM   28  H   UNL     1      -9.704   2.654  65.439  1.00  0.00     0.000 HD 
HETATM   29  O   UNL     1      -8.176   2.047  68.811  1.00  0.00    -0.054 OA 
HETATM   30  O   UNL     1      -8.835   1.686  66.689  1.00  0.00    -0.115 OA 
ENDBRANCH  18  20
ENDBRANCH  16  18
ENDBRANCH  13  16
ENDBRANCH   7  10
ENDBRANCH   5   6
ENDBRANCH   4   5
TORSDOF 6
ENDMDL
MODEL      175
REMARK 921   NORMALIZED FREE ENERGY PREDICTED BY IDOCK:   -5.08 KCAL/MOL
REMARK 922        TOTAL FREE ENERGY PREDICTED BY IDOCK:   -7.85 KCAL/MOL
REMARK 923 INTER-LIGAND FREE ENERGY PREDICTED BY IDOCK:   -7.59 KCAL/MOL
REMARK 924 INTRA-LIGAND FREE ENERGY PREDICTED BY IDOCK:   -0.27 KCAL/MOL
REMARK 927      BINDING AFFINITY PREDICTED BY RF-SCORE:    0.00 PKD
ROOT
HETATM    1  O   UNL     1     -11.697  16.340  72.665  1.00  0.00    -0.494 OA 
HETATM    2  C   UNL     1     -12.606  15.566  73.296  1.00  0.00    -0.499 C  
HETATM    3  O   UNL     1     -12.292  14.734  74.136  1.00  0.00    -0.528 OA 
HETATM    4  C   UNL     1     -14.027  15.820  72.874  1.00  0.00    -0.467 C  
ENDROOT
BRANCH   4   5
HETATM    5  C   UNL     1     -14.401  14.979  71.666  1.00  0.00    -0.584 C  
BRANCH   5   6
HETATM    6  N   UNL     1     -13.389  15.003  70.630  1.00  0.00    -0.658 N  
HETATM    7  C   UNL     1     -12.568  13.917  70.394  1.00  0.00    -0.282 C  
HETATM    8  H   UNL     1     -13.280  15.842  70.060  1.00  0.00     0.000 HD 
HETATM    9  O   UNL     1     -12.650  12.866  71.020  1.00  0.00    -0.366 OA 
BRANCH   7  10
HETATM   10  C   UNL     1     -11.509  14.100  69.358  1.00  0.00    -0.337 A  
HETATM   11  C   UNL     1     -11.113  12.990  68.603  1.00  0.00    -0.305 A  
HETATM   12  C   UNL     1     -10.072  13.102  67.672  1.00  0.00    -0.221 A  
HETATM   13  C   UNL     1      -9.412  14.320  67.462  1.00  0.00    -0.209 A  
HETATM   14  C   UNL     1     -10.892  15.335  69.127  1.00  0.00    -0.250 A  
HETATM   15  C   UNL     1      -9.846  15.437  68.197  1.00  0.00    -0.213 A  
BRANCH  13  16
HETATM   16  N   UNL     1      -8.306  14.334  66.583  1.00  0.00    -0.388 NA 
HETATM   17  H   UNL     1      -8.290  13.841  65.689  1.00  0.00     0.000 HD 
BRANCH  16  18
HETATM   18  N   UNL     1      -7.350  15.012  67.014  1.00  0.00    -0.299 NA 
HETATM   19  H   UNL     1      -6.957  15.813  66.518  1.00  0.00     0.000 HD 
BRANCH  18  20
HETATM   20  C   UNL     1      -6.871  14.554  68.261  1.00  0.00    -0.113 A  
HETATM   21  C   UNL     1      -6.304  15.394  69.232  1.00  0.00    -0.128 A  
HETATM   22  C   UNL     1      -5.767  14.876  70.416  1.00  0.00    -0.145 A  
HETATM   23  C   UNL     1      -5.782  13.500  70.636  1.00  0.00    -0.183 A  
HETATM   24  O   UNL     1      -5.230  12.999  71.787  1.00  0.00    -0.268 OA 
HETATM   25  C   UNL     1      -6.343  12.633  69.689  1.00  0.00    -0.095 A  
HETATM   26  C   UNL     1      -6.392  11.150  69.840  1.00  0.00    -0.141 C  
HETATM   27  C   UNL     1      -6.882  13.176  68.507  1.00  0.00    -0.099 A  
HETATM   28  H   UNL     1      -5.239  12.061  71.937  1.00  0.00     0.000 HD 
HETATM   29  O   UNL     1      -6.896  10.422  68.997  1.00  0.00    -0.057 OA 
HETATM   30  O   UNL     1      -5.836  10.661  70.968  1.00  0.00    -0.254 OA 
ENDBRANCH  18  20
ENDBRANCH  16  18
ENDBRANCH  13  16
ENDBRANCH   7  10
ENDBRANCH   5   6
ENDBRANCH   4   5
TORSDOF 6
ENDMDL
MODEL      176
REMARK 921   NORMALIZED FREE ENERGY PREDICTED BY IDOCK:   -5.06 KCAL/MOL
REMARK 922        TOTAL FREE ENERGY PREDICTED BY IDOCK:   -7.82 KCAL/MOL
REMARK 923 INTER-LIGAND FREE ENERGY PREDICTED BY IDOCK:   -7.10 KCAL/MOL
REMARK 924 INTRA-LIGAND FREE ENERGY PREDICTED BY IDOCK:   -0.72 KCAL/MOL
REMARK 927      BINDING AFFINITY PREDICTED BY RF-SCORE:    0.00 PKD
ROOT
HETATM    1  O   UNL     1      -7.125   2.860  70.121  1.00  0.00    -0.034 OA 
HETATM    2  C   UNL     1      -7.891   3.771  69.483  1.00  0.00    -0.051 C  
HETATM    3  O   UNL     1      -7.417   4.735  68.898  1.00  0.00    -0.060 OA 
HETATM    4  C   UNL     1      -9.366   3.493  69.558  1.00  0.00    -0.243 C  
ENDROOT
BRANCH   4   5
HETATM    5  C   UNL     1      -9.980   4.102  70.806  1.00  0.00    -0.122 C  
BRANCH   5   6
HETATM    6  N   UNL     1     -10.242   5.520  70.669  1.00  0.00    -0.224 N  
HETATM    7  C   UNL     1     -11.095   6.186  71.528  1.00  0.00    -0.286 C  
HETATM    8  H   UNL     1      -9.785   6.040  69.919  1.00  0.00     0.000 HD 
HETATM    9  O   UNL     1     -11.666   5.638  72.464  1.00  0.00    -0.297 OA 
BRANCH   7  10
HETATM   10  C   UNL     1     -11.349   7.626  71.226  1.00  0.00    -0.286 A  
HETATM   11  C   UNL     1     -12.516   8.218  71.722  1.00  0.00    -0.367 A  
HETATM   12  C   UNL     1     -12.828   9.546  71.400  1.00  0.00    -0.443 A  
HETATM   13  C   UNL     1     -11.981  10.316  70.593  1.00  0.00    -0.342 A  
HETATM   14  C   UNL     1     -10.469   8.396  70.457  1.00  0.00    -0.227 A  
HETATM   15  C   UNL     1     -10.792   9.724  70.136  1.00  0.00    -0.340 A  
BRANCH  13  16
HETATM   16  N   UNL     1     -12.409  11.613  70.228  1.00  0.00    -0.285 NA 
HETATM   17  H   UNL     1     -12.804  11.840  69.315  1.00  0.00     0.000 HD 
BRANCH  16  18
HETATM   18  N   UNL     1     -12.255  12.450  71.141  1.00  0.00    -0.317 NA 
HETATM   19  H   UNL     1     -12.424  12.248  72.127  1.00  0.00     0.000 HD 
BRANCH  18  20
HETATM   20  C   UNL     1     -11.823  13.708  70.664  1.00  0.00    -0.154 A  
HETATM   21  C   UNL     1     -11.722  14.852  71.471  1.00  0.00    -0.394 A  
HETATM   22  C   UNL     1     -11.370  16.093  70.929  1.00  0.00    -0.394 A  
HETATM   23  C   UNL     1     -11.125  16.205  69.561  1.00  0.00    -0.344 A  
HETATM   24  O   UNL     1     -10.806  17.430  69.035  1.00  0.00    -0.310 OA 
HETATM   25  C   UNL     1     -11.214  15.082  68.728  1.00  0.00    -0.288 A  
HETATM   26  C   UNL     1     -10.978  15.114  67.256  1.00  0.00    -0.327 C  
HETATM   27  C   UNL     1     -11.565  13.842  69.295  1.00  0.00    -0.362 A  
HETATM   28  H   UNL     1     -10.640  17.507  68.103  1.00  0.00     0.000 HD 
HETATM   29  O   UNL     1     -11.057  14.113  66.558  1.00  0.00    -0.308 OA 
HETATM   30  O   UNL     1     -10.678  16.325  66.740  1.00  0.00    -0.293 OA 
ENDBRANCH  18  20
ENDBRANCH  16  18
ENDBRANCH  13  16
ENDBRANCH   7  10
ENDBRANCH   5   6
ENDBRANCH   4   5
TORSDOF 6
ENDMDL
MODEL      177
REMARK 921   NORMALIZED FREE ENERGY PREDICTED BY IDOCK:   -5.04 KCAL/MOL
REMARK 922        TOTAL FREE ENERGY PREDICTED BY IDOCK:   -7.80 KCAL/MOL
REMARK 923 INTER-LIGAND FREE ENERGY PREDICTED BY IDOCK:   -6.54 KCAL/MOL
REMARK 924 INTRA-LIGAND FREE ENERGY PREDICTED BY IDOCK:   -1.25 KCAL/MOL
REMARK 927      BINDING AFFINITY PREDICTED BY RF-SCORE:    0.00 PKD
ROOT
HETATM    1  O   UNL     1      -6.690   9.088  73.180  1.00  0.00    -0.324 OA 
HETATM    2  C   UNL     1      -6.540   7.764  72.961  1.00  0.00    -0.069 C  
HETATM    3  O   UNL     1      -5.795   7.320  72.098  1.00  0.00    -0.037 OA 
HETATM    4  C   UNL     1      -7.365   6.894  73.869  1.00  0.00    -0.095 C  
ENDROOT
BRANCH   4   5
HETATM    5  C   UNL     1      -8.751   6.659  73.295  1.00  0.00    -0.123 C  
BRANCH   5   6
HETATM    6  N   UNL     1      -8.836   6.972  71.883  1.00  0.00    -0.125 N  
HETATM    7  C   UNL     1      -9.569   8.050  71.424  1.00  0.00    -0.154 C  
HETATM    8  H   UNL     1      -8.342   6.384  71.213  1.00  0.00     0.000 HD 
HETATM    9  O   UNL     1     -10.172   8.816  72.166  1.00  0.00    -0.325 OA 
BRANCH   7  10
HETATM   10  C   UNL     1      -9.648   8.213  69.942  1.00  0.00    -0.175 A  
HETATM   11  C   UNL     1      -8.474   8.083  69.191  1.00  0.00    -0.136 A  
HETATM   12  C   UNL     1      -8.491   8.301  67.807  1.00  0.00    -0.131 A  
HETATM   13  C   UNL     1      -9.676   8.639  67.139  1.00  0.00    -0.190 A  
HETATM   14  C   UNL     1     -10.848   8.504  69.283  1.00  0.00    -0.072 A  
HETATM   15  C   UNL     1     -10.855   8.726  67.897  1.00  0.00    -0.078 A  
BRANCH  13  16
HETATM   16  N   UNL     1      -9.597   8.943  65.761  1.00  0.00    -0.427 NA 
HETATM   17  H   UNL     1     -10.095   8.421  65.039  1.00  0.00     0.000 HD 
BRANCH  16  18
HETATM   18  N   UNL     1      -8.855   9.918  65.519  1.00  0.00    -0.150 NA 
HETATM   19  H   UNL     1      -7.917   9.830  65.127  1.00  0.00     0.000 HD 
BRANCH  18  20
HETATM   20  C   UNL     1      -9.452  11.156  65.847  1.00  0.00    -0.215 A  
HETATM   21  C   UNL     1      -8.970  12.008  66.852  1.00  0.00    -0.199 A  
HETATM   22  C   UNL     1      -9.649  13.183  67.194  1.00  0.00    -0.235 A  
HETATM   23  C   UNL     1     -10.833  13.513  66.536  1.00  0.00    -0.282 A  
HETATM   24  O   UNL     1     -11.505  14.653  66.896  1.00  0.00    -0.347 OA 
HETATM   25  C   UNL     1     -11.340  12.685  65.526  1.00  0.00    -0.356 A  
HETATM   26  C   UNL     1     -12.602  12.957  64.779  1.00  0.00    -0.425 C  
HETATM   27  C   UNL     1     -10.639  11.510  65.194  1.00  0.00    -0.350 A  
HETATM   28  H   UNL     1     -12.312  14.877  66.448  1.00  0.00     0.000 HD 
HETATM   29  O   UNL     1     -13.013  12.217  63.897  1.00  0.00    -0.753 OA 
HETATM   30  O   UNL     1     -13.267  14.073  65.146  1.00  0.00    -0.768 OA 
ENDBRANCH  18  20
ENDBRANCH  16  18
ENDBRANCH  13  16
ENDBRANCH   7  10
ENDBRANCH   5   6
ENDBRANCH   4   5
TORSDOF 6
ENDMDL
MODEL      178
REMARK 921   NORMALIZED FREE ENERGY PREDICTED BY IDOCK:   -5.02 KCAL/MOL
REMARK 922        TOTAL FREE ENERGY PREDICTED BY IDOCK:   -7.77 KCAL/MOL
REMARK 923 INTER-LIGAND FREE ENERGY PREDICTED BY IDOCK:   -6.91 KCAL/MOL
REMARK 924 INTRA-LIGAND FREE ENERGY PREDICTED BY IDOCK:   -0.86 KCAL/MOL
REMARK 927      BINDING AFFINITY PREDICTED BY RF-SCORE:    0.00 PKD
ROOT
HETATM    1  O   UNL     1     -13.711  16.433  73.671  1.00  0.00    -0.526 OA 
HETATM    2  C   UNL     1     -12.639  15.964  72.998  1.00  0.00    -0.501 C  
HETATM    3  O   UNL     1     -11.735  16.692  72.610  1.00  0.00    -0.486 OA 
HETATM    4  C   UNL     1     -12.658  14.478  72.771  1.00  0.00    -0.399 C  
ENDROOT
BRANCH   4   5
HETATM    5  C   UNL     1     -13.400  14.124  71.494  1.00  0.00    -0.351 C  
BRANCH   5   6
HETATM    6  N   UNL     1     -12.521  13.642  70.448  1.00  0.00    -0.318 N  
HETATM    7  C   UNL     1     -12.010  14.489  69.484  1.00  0.00    -0.319 C  
HETATM    8  H   UNL     1     -12.273  12.653  70.423  1.00  0.00     0.000 HD 
HETATM    9  O   UNL     1     -12.243  15.692  69.456  1.00  0.00    -0.337 OA 
BRANCH   7  10
HETATM   10  C   UNL     1     -11.188  13.854  68.412  1.00  0.00    -0.291 A  
HETATM   11  C   UNL     1     -11.687  12.712  67.774  1.00  0.00    -0.412 A  
HETATM   12  C   UNL     1     -10.916  12.042  66.815  1.00  0.00    -0.329 A  
HETATM   13  C   UNL     1      -9.641  12.501  66.459  1.00  0.00    -0.242 A  
HETATM   14  C   UNL     1      -9.936  14.351  68.034  1.00  0.00    -0.225 A  
HETATM   15  C   UNL     1      -9.168  13.672  67.075  1.00  0.00    -0.254 A  
BRANCH  13  16
HETATM   16  N   UNL     1      -8.881  11.719  65.559  1.00  0.00    -0.401 NA 
HETATM   17  H   UNL     1      -9.202  11.462  64.625  1.00  0.00     0.000 HD 
BRANCH  16  18
HETATM   18  N   UNL     1      -7.776  11.376  66.028  1.00  0.00    -0.373 NA 
HETATM   19  H   UNL     1      -6.883  11.738  65.692  1.00  0.00     0.000 HD 
BRANCH  18  20
HETATM   20  C   UNL     1      -7.892  10.431  67.072  1.00  0.00    -0.112 A  
HETATM   21  C   UNL     1      -7.432  10.657  68.378  1.00  0.00    -0.093 A  
HETATM   22  C   UNL     1      -7.496   9.655  69.354  1.00  0.00    -0.093 A  
HETATM   23  C   UNL     1      -8.015   8.404  69.025  1.00  0.00    -0.111 A  
HETATM   24  O   UNL     1      -8.050   7.421  69.980  1.00  0.00    -0.123 OA 
HETATM   25  C   UNL     1      -8.488   8.147  67.731  1.00  0.00    -0.132 A  
HETATM   26  C   UNL     1      -9.049   6.837  67.293  1.00  0.00    -0.119 C  
HETATM   27  C   UNL     1      -8.418   9.170  66.767  1.00  0.00    -0.125 A  
HETATM   28  H   UNL     1      -8.404   6.568  69.756  1.00  0.00     0.000 HD 
HETATM   29  O   UNL     1      -9.460   6.647  66.157  1.00  0.00    -0.121 OA 
HETATM   30  O   UNL     1      -9.069   5.868  68.232  1.00  0.00    -0.119 OA 
ENDBRANCH  18  20
ENDBRANCH  16  18
ENDBRANCH  13  16
ENDBRANCH   7  10
ENDBRANCH   5   6
ENDBRANCH   4   5
TORSDOF 6
ENDMDL
MODEL      179
REMARK 921   NORMALIZED FREE ENERGY PREDICTED BY IDOCK:   -5.02 KCAL/MOL
REMARK 922        TOTAL FREE ENERGY PREDICTED BY IDOCK:   -7.77 KCAL/MOL
REMARK 923 INTER-LIGAND FREE ENERGY PREDICTED BY IDOCK:   -6.97 KCAL/MOL
REMARK 924 INTRA-LIGAND FREE ENERGY PREDICTED BY IDOCK:   -0.80 KCAL/MOL
REMARK 927      BINDING AFFINITY PREDICTED BY RF-SCORE:    0.00 PKD
ROOT
HETATM    1  O   UNL     1     -12.956  14.592  73.779  1.00  0.00    -0.482 OA 
HETATM    2  C   UNL     1     -13.415  13.950  72.683  1.00  0.00    -0.546 C  
HETATM    3  O   UNL     1     -13.230  12.756  72.495  1.00  0.00    -0.404 OA 
HETATM    4  C   UNL     1     -14.168  14.831  71.726  1.00  0.00    -0.629 C  
ENDROOT
BRANCH   4   5
HETATM    5  C   UNL     1     -13.230  15.496  70.734  1.00  0.00    -0.337 C  
BRANCH   5   6
HETATM    6  N   UNL     1     -12.728  14.577  69.733  1.00  0.00    -0.550 N  
HETATM    7  C   UNL     1     -11.397  14.569  69.360  1.00  0.00    -0.279 C  
HETATM    8  H   UNL     1     -13.372  13.920  69.293  1.00  0.00     0.000 HD 
HETATM    9  O   UNL     1     -10.557  15.312  69.855  1.00  0.00    -0.263 OA 
BRANCH   7  10
HETATM   10  C   UNL     1     -11.024  13.635  68.256  1.00  0.00    -0.275 A  
HETATM   11  C   UNL     1     -11.768  12.461  68.094  1.00  0.00    -0.408 A  
HETATM   12  C   UNL     1     -11.406  11.523  67.117  1.00  0.00    -0.354 A  
HETATM   13  C   UNL     1     -10.308  11.738  66.275  1.00  0.00    -0.224 A  
HETATM   14  C   UNL     1      -9.953  13.887  67.392  1.00  0.00    -0.240 A  
HETATM   15  C   UNL     1      -9.594  12.940  66.420  1.00  0.00    -0.252 A  
BRANCH  13  16
HETATM   16  N   UNL     1      -9.941  10.704  65.383  1.00  0.00    -0.263 NA 
HETATM   17  H   UNL     1     -10.226   9.732  65.501  1.00  0.00     0.000 HD 
BRANCH  16  18
HETATM   18  N   UNL     1      -9.234  11.107  64.437  1.00  0.00    -0.351 NA 
HETATM   19  H   UNL     1      -9.269  12.058  64.070  1.00  0.00     0.000 HD 
BRANCH  18  20
HETATM   20  C   UNL     1      -8.379  10.104  63.926  1.00  0.00    -0.172 A  
HETATM   21  C   UNL     1      -7.474  10.316  62.875  1.00  0.00    -0.140 A  
HETATM   22  C   UNL     1      -6.712   9.266  62.351  1.00  0.00    -0.091 A  
HETATM   23  C   UNL     1      -6.857   7.980  62.871  1.00  0.00    -0.085 A  
HETATM   24  O   UNL     1      -6.125   6.953  62.334  1.00  0.00    -0.039 OA 
HETATM   25  C   UNL     1      -7.750   7.735  63.924  1.00  0.00    -0.123 A  
HETATM   26  C   UNL     1      -7.973   6.392  64.532  1.00  0.00    -0.117 C  
HETATM   27  C   UNL     1      -8.503   8.807  64.439  1.00  0.00    -0.146 A  
HETATM   28  H   UNL     1      -6.225   6.077  62.688  1.00  0.00     0.000 HD 
HETATM   29  O   UNL     1      -8.754   6.214  65.456  1.00  0.00    -0.152 OA 
HETATM   30  O   UNL     1      -7.260   5.382  63.992  1.00  0.00    -0.048 OA 
ENDBRANCH  18  20
ENDBRANCH  16  18
ENDBRANCH  13  16
ENDBRANCH   7  10
ENDBRANCH   5   6
ENDBRANCH   4   5
TORSDOF 6
ENDMDL
MODEL      180
REMARK 921   NORMALIZED FREE ENERGY PREDICTED BY IDOCK:   -5.01 KCAL/MOL
REMARK 922        TOTAL FREE ENERGY PREDICTED BY IDOCK:   -7.75 KCAL/MOL
REMARK 923 INTER-LIGAND FREE ENERGY PREDICTED BY IDOCK:   -6.70 KCAL/MOL
REMARK 924 INTRA-LIGAND FREE ENERGY PREDICTED BY IDOCK:   -1.05 KCAL/MOL
REMARK 927      BINDING AFFINITY PREDICTED BY RF-SCORE:    0.00 PKD
ROOT
HETATM    1  O   UNL     1     -11.362   6.398  72.742  1.00  0.00    -0.251 OA 
HETATM    2  C   UNL     1     -10.093   5.965  72.590  1.00  0.00    -0.179 C  
HETATM    3  O   UNL     1      -9.123   6.672  72.826  1.00  0.00    -0.137 OA 
HETATM    4  C   UNL     1      -9.982   4.545  72.108  1.00  0.00    -0.246 C  
ENDROOT
BRANCH   4   5
HETATM    5  C   UNL     1     -10.007   4.474  70.591  1.00  0.00    -0.203 C  
BRANCH   5   6
HETATM    6  N   UNL     1     -10.450   5.710  69.979  1.00  0.00    -0.272 N  
HETATM    7  C   UNL     1      -9.572   6.542  69.309  1.00  0.00    -0.139 C  
HETATM    8  H   UNL     1     -11.433   5.973  70.043  1.00  0.00     0.000 HD 
HETATM    9  O   UNL     1      -8.381   6.287  69.170  1.00  0.00    -0.118 OA 
BRANCH   7  10
HETATM   10  C   UNL     1     -10.135   7.826  68.799  1.00  0.00    -0.205 A  
HETATM   11  C   UNL     1     -10.207   8.023  67.415  1.00  0.00    -0.330 A  
HETATM   12  C   UNL     1     -10.660   9.243  66.896  1.00  0.00    -0.239 A  
HETATM   13  C   UNL     1     -11.065  10.286  67.739  1.00  0.00    -0.269 A  
HETATM   14  C   UNL     1     -10.580   8.841  69.654  1.00  0.00    -0.220 A  
HETATM   15  C   UNL     1     -11.028  10.062  69.126  1.00  0.00    -0.256 A  
BRANCH  13  16
HETATM   16  N   UNL     1     -11.414  11.522  67.147  1.00  0.00    -0.497 NA 
HETATM   17  H   UNL     1     -12.377  11.819  66.988  1.00  0.00     0.000 HD 
BRANCH  16  18
HETATM   18  N   UNL     1     -10.419  12.211  66.840  1.00  0.00    -0.222 NA 
HETATM   19  H   UNL     1      -9.653  11.869  66.260  1.00  0.00     0.000 HD 
BRANCH  18  20
HETATM   20  C   UNL     1     -10.468  13.515  67.381  1.00  0.00    -0.247 A  
HETATM   21  C   UNL     1      -9.954  14.646  66.728  1.00  0.00    -0.265 A  
HETATM   22  C   UNL     1      -9.952  15.902  67.346  1.00  0.00    -0.239 A  
HETATM   23  C   UNL     1     -10.457  16.036  68.639  1.00  0.00    -0.251 A  
HETATM   24  O   UNL     1     -10.427  17.265  69.246  1.00  0.00    -0.338 OA 
HETATM   25  C   UNL     1     -10.980  14.928  69.317  1.00  0.00    -0.279 A  
HETATM   26  C   UNL     1     -11.531  14.980  70.702  1.00  0.00    -0.293 C  
HETATM   27  C   UNL     1     -10.977  13.675  68.675  1.00  0.00    -0.290 A  
HETATM   28  H   UNL     1     -10.770  17.357  70.127  1.00  0.00     0.000 HD 
HETATM   29  O   UNL     1     -11.987  13.995  71.263  1.00  0.00    -0.299 OA 
HETATM   30  O   UNL     1     -11.487  16.190  71.301  1.00  0.00    -0.418 OA 
ENDBRANCH  18  20
ENDBRANCH  16  18
ENDBRANCH  13  16
ENDBRANCH   7  10
ENDBRANCH   5   6
ENDBRANCH   4   5
TORSDOF 6
ENDMDL
MODEL      181
REMARK 921   NORMALIZED FREE ENERGY PREDICTED BY IDOCK:   -5.01 KCAL/MOL
REMARK 922        TOTAL FREE ENERGY PREDICTED BY IDOCK:   -7.75 KCAL/MOL
REMARK 923 INTER-LIGAND FREE ENERGY PREDICTED BY IDOCK:   -6.91 KCAL/MOL
REMARK 924 INTRA-LIGAND FREE ENERGY PREDICTED BY IDOCK:   -0.84 KCAL/MOL
REMARK 927      BINDING AFFINITY PREDICTED BY RF-SCORE:    0.00 PKD
ROOT
HETATM    1  O   UNL     1     -10.545   4.634  72.711  1.00  0.00    -0.197 OA 
HETATM    2  C   UNL     1      -9.369   3.980  72.604  1.00  0.00    -0.118 C  
HETATM    3  O   UNL     1      -8.814   3.461  73.563  1.00  0.00    -0.087 OA 
HETATM    4  C   UNL     1      -8.809   3.948  71.209  1.00  0.00    -0.142 C  
ENDROOT
BRANCH   4   5
HETATM    5  C   UNL     1      -7.958   5.174  70.929  1.00  0.00    -0.097 C  
BRANCH   5   6
HETATM    6  N   UNL     1      -8.742   6.318  70.509  1.00  0.00    -0.142 N  
HETATM    7  C   UNL     1      -8.781   6.724  69.189  1.00  0.00    -0.131 C  
HETATM    8  H   UNL     1      -9.279   6.835  71.205  1.00  0.00     0.000 HD 
HETATM    9  O   UNL     1      -8.182   6.144  68.291  1.00  0.00    -0.113 OA 
BRANCH   7  10
HETATM   10  C   UNL     1      -9.556   7.967  68.901  1.00  0.00    -0.152 A  
HETATM   11  C   UNL     1     -10.254   8.578  69.949  1.00  0.00    -0.204 A  
HETATM   12  C   UNL     1     -11.052   9.704  69.706  1.00  0.00    -0.247 A  
HETATM   13  C   UNL     1     -11.161  10.254  68.422  1.00  0.00    -0.224 A  
HETATM   14  C   UNL     1      -9.617   8.532  67.622  1.00  0.00    -0.187 A  
HETATM   15  C   UNL     1     -10.422   9.657  67.386  1.00  0.00    -0.319 A  
BRANCH  13  16
HETATM   16  N   UNL     1     -12.062  11.327  68.233  1.00  0.00    -0.660 NA 
HETATM   17  H   UNL     1     -12.679  11.410  67.424  1.00  0.00     0.000 HD 
BRANCH  16  18
HETATM   18  N   UNL     1     -12.025  12.162  69.161  1.00  0.00    -0.286 NA 
HETATM   19  H   UNL     1     -12.269  11.943  70.127  1.00  0.00     0.000 HD 
BRANCH  18  20
HETATM   20  C   UNL     1     -11.610  13.442  68.730  1.00  0.00    -0.325 A  
HETATM   21  C   UNL     1     -11.663  14.588  69.538  1.00  0.00    -0.361 A  
HETATM   22  C   UNL     1     -11.319  15.847  69.033  1.00  0.00    -0.371 A  
HETATM   23  C   UNL     1     -10.927  15.974  67.702  1.00  0.00    -0.284 A  
HETATM   24  O   UNL     1     -10.617  17.216  67.210  1.00  0.00    -0.325 OA 
HETATM   25  C   UNL     1     -10.860  14.849  66.869  1.00  0.00    -0.319 A  
HETATM   26  C   UNL     1     -10.460  14.896  65.433  1.00  0.00    -0.384 C  
HETATM   27  C   UNL     1     -11.206  13.591  67.398  1.00  0.00    -0.317 A  
HETATM   28  H   UNL     1     -10.350  17.303  66.302  1.00  0.00     0.000 HD 
HETATM   29  O   UNL     1     -10.404  13.894  64.736  1.00  0.00    -0.418 OA 
HETATM   30  O   UNL     1     -10.168  16.123  64.950  1.00  0.00    -0.502 OA 
ENDBRANCH  18  20
ENDBRANCH  16  18
ENDBRANCH  13  16
ENDBRANCH   7  10
ENDBRANCH   5   6
ENDBRANCH   4   5
TORSDOF 6
ENDMDL
MODEL      182
REMARK 921   NORMALIZED FREE ENERGY PREDICTED BY IDOCK:   -5.01 KCAL/MOL
REMARK 922        TOTAL FREE ENERGY PREDICTED BY IDOCK:   -7.75 KCAL/MOL
REMARK 923 INTER-LIGAND FREE ENERGY PREDICTED BY IDOCK:   -6.85 KCAL/MOL
REMARK 924 INTRA-LIGAND FREE ENERGY PREDICTED BY IDOCK:   -0.90 KCAL/MOL
REMARK 927      BINDING AFFINITY PREDICTED BY RF-SCORE:    0.00 PKD
ROOT
HETATM    1  O   UNL     1     -11.154  19.443  66.964  1.00  0.00    -0.420 OA 
HETATM    2  C   UNL     1     -10.292  18.524  66.478  1.00  0.00    -0.414 C  
HETATM    3  O   UNL     1     -10.522  17.875  65.467  1.00  0.00    -0.650 OA 
HETATM    4  C   UNL     1      -9.034  18.374  67.288  1.00  0.00    -0.265 C  
ENDROOT
BRANCH   4   5
HETATM    5  C   UNL     1      -9.216  17.363  68.406  1.00  0.00    -0.277 C  
BRANCH   5   6
HETATM    6  N   UNL     1      -9.231  15.995  67.930  1.00  0.00    -0.195 N  
HETATM    7  C   UNL     1      -8.320  15.060  68.383  1.00  0.00    -0.154 C  
HETATM    8  H   UNL     1      -9.932  15.714  67.243  1.00  0.00     0.000 HD 
HETATM    9  O   UNL     1      -7.462  15.312  69.221  1.00  0.00    -0.167 OA 
BRANCH   7  10
HETATM   10  C   UNL     1      -8.386  13.709  67.750  1.00  0.00    -0.181 A  
HETATM   11  C   UNL     1      -9.488  13.401  66.944  1.00  0.00    -0.253 A  
HETATM   12  C   UNL     1      -9.624  12.121  66.391  1.00  0.00    -0.243 A  
HETATM   13  C   UNL     1      -8.663  11.126  66.615  1.00  0.00    -0.166 A  
HETATM   14  C   UNL     1      -7.393  12.742  67.945  1.00  0.00    -0.120 A  
HETATM   15  C   UNL     1      -7.541  11.460  67.391  1.00  0.00    -0.124 A  
BRANCH  13  16
HETATM   16  N   UNL     1      -8.918   9.831  66.110  1.00  0.00    -0.147 NA 
HETATM   17  H   UNL     1      -8.195   9.224  65.722  1.00  0.00     0.000 HD 
BRANCH  16  18
HETATM   18  N   UNL     1     -10.121   9.507  66.187  1.00  0.00    -0.281 NA 
HETATM   19  H   UNL     1     -10.850   9.891  65.585  1.00  0.00     0.000 HD 
BRANCH  18  20
HETATM   20  C   UNL     1     -10.368   8.552  67.199  1.00  0.00    -0.307 A  
HETATM   21  C   UNL     1     -10.483   7.175  66.956  1.00  0.00    -0.392 A  
HETATM   22  C   UNL     1     -10.813   6.282  67.982  1.00  0.00    -0.409 A  
HETATM   23  C   UNL     1     -11.043   6.764  69.270  1.00  0.00    -0.239 A  
HETATM   24  O   UNL     1     -11.390   5.885  70.263  1.00  0.00    -0.322 OA 
HETATM   25  C   UNL     1     -10.932   8.134  69.547  1.00  0.00    -0.056 A  
HETATM   26  C   UNL     1     -11.169   8.734  70.892  1.00  0.00    -0.270 C  
HETATM   27  C   UNL     1     -10.595   9.014  68.501  1.00  0.00    -0.196 A  
HETATM   28  H   UNL     1     -11.547   6.214  71.140  1.00  0.00     0.000 HD 
HETATM   29  O   UNL     1     -11.056   9.933  71.102  1.00  0.00    -0.350 OA 
HETATM   30  O   UNL     1     -11.523   7.867  71.863  1.00  0.00    -0.257 OA 
ENDBRANCH  18  20
ENDBRANCH  16  18
ENDBRANCH  13  16
ENDBRANCH   7  10
ENDBRANCH   5   6
ENDBRANCH   4   5
TORSDOF 6
ENDMDL
MODEL      183
REMARK 921   NORMALIZED FREE ENERGY PREDICTED BY IDOCK:   -4.98 KCAL/MOL
REMARK 922        TOTAL FREE ENERGY PREDICTED BY IDOCK:   -7.72 KCAL/MOL
REMARK 923 INTER-LIGAND FREE ENERGY PREDICTED BY IDOCK:   -7.04 KCAL/MOL
REMARK 924 INTRA-LIGAND FREE ENERGY PREDICTED BY IDOCK:   -0.68 KCAL/MOL
REMARK 927      BINDING AFFINITY PREDICTED BY RF-SCORE:    0.00 PKD
ROOT
HETATM    1  O   UNL     1      -9.585  16.766  67.110  1.00  0.00    -0.229 OA 
HETATM    2  C   UNL     1     -10.204  16.446  65.953  1.00  0.00    -0.359 C  
HETATM    3  O   UNL     1     -10.611  17.292  65.169  1.00  0.00    -0.686 OA 
HETATM    4  C   UNL     1     -10.345  14.967  65.720  1.00  0.00    -0.354 C  
ENDROOT
BRANCH   4   5
HETATM    5  C   UNL     1     -11.617  14.429  66.352  1.00  0.00    -0.375 C  
BRANCH   5   6
HETATM    6  N   UNL     1     -11.358  13.550  67.474  1.00  0.00    -0.294 N  
HETATM    7  C   UNL     1     -11.524  12.182  67.377  1.00  0.00    -0.345 C  
HETATM    8  H   UNL     1     -11.045  13.951  68.358  1.00  0.00     0.000 HD 
HETATM    9  O   UNL     1     -11.877  11.621  66.345  1.00  0.00    -0.470 OA 
BRANCH   7  10
HETATM   10  C   UNL     1     -11.309  11.397  68.628  1.00  0.00    -0.327 A  
HETATM   11  C   UNL     1     -10.114  10.684  68.774  1.00  0.00    -0.203 A  
HETATM   12  C   UNL     1      -9.904   9.877  69.900  1.00  0.00    -0.285 A  
HETATM   13  C   UNL     1     -10.869   9.773  70.910  1.00  0.00    -0.328 A  
HETATM   14  C   UNL     1     -12.264  11.341  69.650  1.00  0.00    -0.340 A  
HETATM   15  C   UNL     1     -12.047  10.526  70.772  1.00  0.00    -0.470 A  
BRANCH  13  16
HETATM   16  N   UNL     1     -10.632   8.862  71.964  1.00  0.00    -0.344 NA 
HETATM   17  H   UNL     1     -10.033   9.069  72.764  1.00  0.00     0.000 HD 
BRANCH  16  18
HETATM   18  N   UNL     1     -11.233   7.778  71.815  1.00  0.00    -0.249 NA 
HETATM   19  H   UNL     1     -12.220   7.709  71.568  1.00  0.00     0.000 HD 
BRANCH  18  20
HETATM   20  C   UNL     1     -10.400   6.656  72.025  1.00  0.00    -0.197 A  
HETATM   21  C   UNL     1     -10.715   5.361  71.585  1.00  0.00    -0.266 A  
HETATM   22  C   UNL     1      -9.895   4.270  71.895  1.00  0.00    -0.248 A  
HETATM   23  C   UNL     1      -8.749   4.464  72.663  1.00  0.00    -0.109 A  
HETATM   24  O   UNL     1      -7.966   3.385  72.983  1.00  0.00    -0.067 OA 
HETATM   25  C   UNL     1      -8.403   5.745  73.116  1.00  0.00    -0.117 A  
HETATM   26  C   UNL     1      -7.202   6.039  73.949  1.00  0.00    -0.084 C  
HETATM   27  C   UNL     1      -9.240   6.829  72.789  1.00  0.00    -0.149 A  
HETATM   28  H   UNL     1      -7.184   3.517  73.507  1.00  0.00     0.000 HD 
HETATM   29  O   UNL     1      -6.924   7.170  74.321  1.00  0.00    -0.085 OA 
HETATM   30  O   UNL     1      -6.441   4.972  74.272  1.00  0.00    -0.064 OA 
ENDBRANCH  18  20
ENDBRANCH  16  18
ENDBRANCH  13  16
ENDBRANCH   7  10
ENDBRANCH   5   6
ENDBRANCH   4   5
TORSDOF 6
ENDMDL
MODEL      184
REMARK 921   NORMALIZED FREE ENERGY PREDICTED BY IDOCK:   -4.98 KCAL/MOL
REMARK 922        TOTAL FREE ENERGY PREDICTED BY IDOCK:   -7.72 KCAL/MOL
REMARK 923 INTER-LIGAND FREE ENERGY PREDICTED BY IDOCK:   -6.40 KCAL/MOL
REMARK 924 INTRA-LIGAND FREE ENERGY PREDICTED BY IDOCK:   -1.31 KCAL/MOL
REMARK 927      BINDING AFFINITY PREDICTED BY RF-SCORE:    0.00 PKD
ROOT
HETATM    1  O   UNL     1      -5.744   9.131  66.486  1.00  0.00    -0.051 OA 
HETATM    2  C   UNL     1      -6.710   8.456  65.827  1.00  0.00    -0.053 C  
HETATM    3  O   UNL     1      -7.823   8.924  65.630  1.00  0.00    -0.092 OA 
HETATM    4  C   UNL     1      -6.294   7.088  65.362  1.00  0.00    -0.040 C  
ENDROOT
BRANCH   4   5
HETATM    5  C   UNL     1      -6.535   6.043  66.438  1.00  0.00    -0.046 C  
BRANCH   5   6
HETATM    6  N   UNL     1      -7.387   6.524  67.507  1.00  0.00    -0.092 N  
HETATM    7  C   UNL     1      -8.600   5.925  67.791  1.00  0.00    -0.105 C  
HETATM    8  H   UNL     1      -7.084   7.323  68.063  1.00  0.00     0.000 HD 
HETATM    9  O   UNL     1      -9.024   4.949  67.183  1.00  0.00    -0.110 OA 
BRANCH   7  10
HETATM   10  C   UNL     1      -9.422   6.568  68.857  1.00  0.00    -0.129 A  
HETATM   11  C   UNL     1     -10.663   6.005  69.176  1.00  0.00    -0.399 A  
HETATM   12  C   UNL     1     -11.498   6.620  70.119  1.00  0.00    -0.444 A  
HETATM   13  C   UNL     1     -11.112   7.797  70.774  1.00  0.00    -0.257 A  
HETATM   14  C   UNL     1      -9.002   7.718  69.537  1.00  0.00    -0.142 A  
HETATM   15  C   UNL     1      -9.847   8.329  70.476  1.00  0.00    -0.197 A  
BRANCH  13  16
HETATM   16  N   UNL     1     -12.047   8.414  71.636  1.00  0.00    -0.297 NA 
HETATM   17  H   UNL     1     -11.981   8.384  72.654  1.00  0.00     0.000 HD 
BRANCH  16  18
HETATM   18  N   UNL     1     -12.962   9.000  71.021  1.00  0.00    -0.524 NA 
HETATM   19  H   UNL     1     -13.738   8.516  70.568  1.00  0.00     0.000 HD 
BRANCH  18  20
HETATM   20  C   UNL     1     -12.808  10.404  71.018  1.00  0.00    -0.401 A  
HETATM   21  C   UNL     1     -13.254  11.237  72.055  1.00  0.00    -0.437 A  
HETATM   22  C   UNL     1     -13.153  12.630  71.963  1.00  0.00    -0.471 A  
HETATM   23  C   UNL     1     -12.610  13.208  70.816  1.00  0.00    -0.260 A  
HETATM   24  O   UNL     1     -12.539  14.574  70.723  1.00  0.00    -0.314 OA 
HETATM   25  C   UNL     1     -12.152  12.405  69.763  1.00  0.00    -0.292 A  
HETATM   26  C   UNL     1     -11.567  12.939  68.499  1.00  0.00    -0.323 C  
HETATM   27  C   UNL     1     -12.259  11.006  69.879  1.00  0.00    -0.408 A  
HETATM   28  H   UNL     1     -12.170  14.968  69.941  1.00  0.00     0.000 HD 
HETATM   29  O   UNL     1     -11.170  12.211  67.602  1.00  0.00    -0.250 OA 
HETATM   30  O   UNL     1     -11.511  14.285  68.407  1.00  0.00    -0.269 OA 
ENDBRANCH  18  20
ENDBRANCH  16  18
ENDBRANCH  13  16
ENDBRANCH   7  10
ENDBRANCH   5   6
ENDBRANCH   4   5
TORSDOF 6
ENDMDL
MODEL      185
REMARK 921   NORMALIZED FREE ENERGY PREDICTED BY IDOCK:   -4.98 KCAL/MOL
REMARK 922        TOTAL FREE ENERGY PREDICTED BY IDOCK:   -7.72 KCAL/MOL
REMARK 923 INTER-LIGAND FREE ENERGY PREDICTED BY IDOCK:   -6.96 KCAL/MOL
REMARK 924 INTRA-LIGAND FREE ENERGY PREDICTED BY IDOCK:   -0.75 KCAL/MOL
REMARK 927      BINDING AFFINITY PREDICTED BY RF-SCORE:    0.00 PKD
ROOT
HETATM    1  O   UNL     1      -9.675   5.216  71.846  1.00  0.00    -0.153 OA 
HETATM    2  C   UNL     1     -10.812   5.641  72.439  1.00  0.00    -0.248 C  
HETATM    3  O   UNL     1     -11.554   4.889  73.054  1.00  0.00    -0.290 OA 
HETATM    4  C   UNL     1     -11.076   7.112  72.275  1.00  0.00    -0.289 C  
ENDROOT
BRANCH   4   5
HETATM    5  C   UNL     1     -11.841   7.395  70.993  1.00  0.00    -0.307 C  
BRANCH   5   6
HETATM    6  N   UNL     1     -11.221   8.427  70.186  1.00  0.00    -0.413 N  
HETATM    7  C   UNL     1     -10.598   8.132  68.989  1.00  0.00    -0.151 C  
HETATM    8  H   UNL     1     -11.247   9.394  70.509  1.00  0.00     0.000 HD 
HETATM    9  O   UNL     1     -10.543   7.000  68.522  1.00  0.00    -0.200 OA 
BRANCH   7  10
HETATM   10  C   UNL     1      -9.923   9.270  68.296  1.00  0.00    -0.196 A  
HETATM   11  C   UNL     1      -9.319  10.264  69.074  1.00  0.00    -0.195 A  
HETATM   12  C   UNL     1      -8.740  11.385  68.465  1.00  0.00    -0.149 A  
HETATM   13  C   UNL     1      -8.735  11.534  67.072  1.00  0.00    -0.169 A  
HETATM   14  C   UNL     1      -9.886   9.381  66.901  1.00  0.00    -0.261 A  
HETATM   15  C   UNL     1      -9.307  10.510  66.300  1.00  0.00    -0.202 A  
BRANCH  13  16
HETATM   16  N   UNL     1      -8.223  12.737  66.535  1.00  0.00    -0.381 NA 
HETATM   17  H   UNL     1      -7.854  12.820  65.588  1.00  0.00     0.000 HD 
BRANCH  16  18
HETATM   18  N   UNL     1      -8.272  13.689  67.342  1.00  0.00    -0.177 NA 
HETATM   19  H   UNL     1      -7.917  13.638  68.297  1.00  0.00     0.000 HD 
BRANCH  18  20
HETATM   20  C   UNL     1      -8.870  14.845  66.792  1.00  0.00    -0.261 A  
HETATM   21  C   UNL     1      -8.622  16.145  67.257  1.00  0.00    -0.198 A  
HETATM   22  C   UNL     1      -9.307  17.247  66.732  1.00  0.00    -0.272 A  
HETATM   23  C   UNL     1     -10.263  17.055  65.736  1.00  0.00    -0.245 A  
HETATM   24  O   UNL     1     -10.947  18.137  65.246  1.00  0.00    -0.571 OA 
HETATM   25  C   UNL     1     -10.532  15.770  65.246  1.00  0.00    -0.427 A  
HETATM   26  C   UNL     1     -11.543  15.474  64.190  1.00  0.00    -0.078 C  
HETATM   27  C   UNL     1      -9.829  14.676  65.785  1.00  0.00    -0.359 A  
HETATM   28  H   UNL     1     -11.599  18.006  64.567  1.00  0.00     0.000 HD 
HETATM   29  O   UNL     1     -11.749  14.341  63.779  1.00  0.00    -0.131 OA 
HETATM   30  O   UNL     1     -12.224  16.541  63.720  1.00  0.00    -0.643 OA 
ENDBRANCH  18  20
ENDBRANCH  16  18
ENDBRANCH  13  16
ENDBRANCH   7  10
ENDBRANCH   5   6
ENDBRANCH   4   5
TORSDOF 6
ENDMDL
MODEL      186
REMARK 921   NORMALIZED FREE ENERGY PREDICTED BY IDOCK:   -4.97 KCAL/MOL
REMARK 922        TOTAL FREE ENERGY PREDICTED BY IDOCK:   -7.71 KCAL/MOL
REMARK 923 INTER-LIGAND FREE ENERGY PREDICTED BY IDOCK:   -7.05 KCAL/MOL
REMARK 924 INTRA-LIGAND FREE ENERGY PREDICTED BY IDOCK:   -0.66 KCAL/MOL
REMARK 927      BINDING AFFINITY PREDICTED BY RF-SCORE:    0.00 PKD
ROOT
HETATM    1  O   UNL     1     -10.624   6.591  70.787  1.00  0.00    -0.217 OA 
HETATM    2  C   UNL     1     -10.703   5.817  69.684  1.00  0.00    -0.346 C  
HETATM    3  O   UNL     1     -10.247   4.683  69.642  1.00  0.00    -0.221 OA 
HETATM    4  C   UNL     1     -11.397   6.472  68.522  1.00  0.00    -0.179 C  
ENDROOT
BRANCH   4   5
HETATM    5  C   UNL     1     -10.422   7.277  67.681  1.00  0.00    -0.242 C  
BRANCH   5   6
HETATM    6  N   UNL     1     -10.501   8.701  67.938  1.00  0.00    -0.328 N  
HETATM    7  C   UNL     1      -9.931   9.624  67.082  1.00  0.00    -0.194 C  
HETATM    8  H   UNL     1     -10.991   9.030  68.770  1.00  0.00     0.000 HD 
HETATM    9  O   UNL     1      -9.345   9.311  66.052  1.00  0.00    -0.186 OA 
BRANCH   7  10
HETATM   10  C   UNL     1     -10.006  11.054  67.504  1.00  0.00    -0.199 A  
HETATM   11  C   UNL     1      -8.939  11.902  67.188  1.00  0.00    -0.178 A  
HETATM   12  C   UNL     1      -8.937  13.232  67.629  1.00  0.00    -0.199 A  
HETATM   13  C   UNL     1     -10.000  13.750  68.380  1.00  0.00    -0.229 A  
HETATM   14  C   UNL     1     -11.097  11.569  68.214  1.00  0.00    -0.295 A  
HETATM   15  C   UNL     1     -11.084  12.901  68.657  1.00  0.00    -0.307 A  
BRANCH  13  16
HETATM   16  N   UNL     1      -9.882  15.069  68.876  1.00  0.00    -0.227 NA 
HETATM   17  H   UNL     1     -10.644  15.747  68.860  1.00  0.00     0.000 HD 
BRANCH  16  18
HETATM   18  N   UNL     1      -8.748  15.316  69.336  1.00  0.00    -0.319 NA 
HETATM   19  H   UNL     1      -8.226  14.669  69.928  1.00  0.00     0.000 HD 
BRANCH  18  20
HETATM   20  C   UNL     1      -8.265  16.586  68.951  1.00  0.00    -0.241 A  
HETATM   21  C   UNL     1      -6.949  17.018  69.178  1.00  0.00    -0.228 A  
HETATM   22  C   UNL     1      -6.546  18.319  68.853  1.00  0.00    -0.251 A  
HETATM   23  C   UNL     1      -7.467  19.210  68.304  1.00  0.00    -0.299 A  
HETATM   24  O   UNL     1      -7.070  20.489  68.013  1.00  0.00    -0.291 OA 
HETATM   25  C   UNL     1      -8.788  18.809  68.061  1.00  0.00    -0.327 A  
HETATM   26  C   UNL     1      -9.837  19.699  67.485  1.00  0.00    -0.378 C  
HETATM   27  C   UNL     1      -9.170  17.495  68.391  1.00  0.00    -0.279 A  
HETATM   28  H   UNL     1      -7.697  21.097  67.638  1.00  0.00     0.000 HD 
HETATM   29  O   UNL     1     -10.979  19.315  67.278  1.00  0.00    -0.483 OA 
HETATM   30  O   UNL     1      -9.445  20.961  67.212  1.00  0.00    -0.405 OA 
ENDBRANCH  18  20
ENDBRANCH  16  18
ENDBRANCH  13  16
ENDBRANCH   7  10
ENDBRANCH   5   6
ENDBRANCH   4   5
TORSDOF 6
ENDMDL
MODEL      187
REMARK 921   NORMALIZED FREE ENERGY PREDICTED BY IDOCK:   -4.97 KCAL/MOL
REMARK 922        TOTAL FREE ENERGY PREDICTED BY IDOCK:   -7.70 KCAL/MOL
REMARK 923 INTER-LIGAND FREE ENERGY PREDICTED BY IDOCK:   -6.60 KCAL/MOL
REMARK 924 INTRA-LIGAND FREE ENERGY PREDICTED BY IDOCK:   -1.11 KCAL/MOL
REMARK 927      BINDING AFFINITY PREDICTED BY RF-SCORE:    0.00 PKD
ROOT
HETATM    1  O   UNL     1      -9.276   8.113  73.046  1.00  0.00    -0.247 OA 
HETATM    2  C   UNL     1      -9.332   7.180  72.072  1.00  0.00    -0.137 C  
HETATM    3  O   UNL     1      -8.345   6.827  71.441  1.00  0.00    -0.118 OA 
HETATM    4  C   UNL     1     -10.707   6.618  71.836  1.00  0.00    -0.251 C  
ENDROOT
BRANCH   4   5
HETATM    5  C   UNL     1     -11.482   7.461  70.839  1.00  0.00    -0.286 C  
BRANCH   5   6
HETATM    6  N   UNL     1     -10.780   8.669  70.458  1.00  0.00    -0.216 N  
HETATM    7  C   UNL     1     -10.364   8.887  69.158  1.00  0.00    -0.220 C  
HETATM    8  H   UNL     1     -10.587   9.377  71.167  1.00  0.00     0.000 HD 
HETATM    9  O   UNL     1     -10.575   8.095  68.246  1.00  0.00    -0.183 OA 
BRANCH   7  10
HETATM   10  C   UNL     1      -9.575  10.130  68.914  1.00  0.00    -0.186 A  
HETATM   11  C   UNL     1     -10.257  11.291  68.533  1.00  0.00    -0.214 A  
HETATM   12  C   UNL     1      -9.547  12.460  68.224  1.00  0.00    -0.211 A  
HETATM   13  C   UNL     1      -8.148  12.502  68.300  1.00  0.00    -0.165 A  
HETATM   14  C   UNL     1      -8.181  10.169  69.040  1.00  0.00    -0.132 A  
HETATM   15  C   UNL     1      -7.478  11.342  68.723  1.00  0.00    -0.124 A  
BRANCH  13  16
HETATM   16  N   UNL     1      -7.496  13.682  67.876  1.00  0.00    -0.139 NA 
HETATM   17  H   UNL     1      -6.658  14.054  68.323  1.00  0.00     0.000 HD 
BRANCH  16  18
HETATM   18  N   UNL     1      -8.053  14.220  66.896  1.00  0.00    -0.382 NA 
HETATM   19  H   UNL     1      -8.377  13.705  66.078  1.00  0.00     0.000 HD 
BRANCH  18  20
HETATM   20  C   UNL     1      -8.185  15.619  67.042  1.00  0.00    -0.233 A  
HETATM   21  C   UNL     1      -7.451  16.377  67.966  1.00  0.00    -0.151 A  
HETATM   22  C   UNL     1      -7.683  17.748  68.128  1.00  0.00    -0.254 A  
HETATM   23  C   UNL     1      -8.668  18.376  67.368  1.00  0.00    -0.260 A  
HETATM   24  O   UNL     1      -8.906  19.713  67.552  1.00  0.00    -0.295 OA 
HETATM   25  C   UNL     1      -9.417  17.649  66.433  1.00  0.00    -0.274 A  
HETATM   26  C   UNL     1     -10.495  18.238  65.587  1.00  0.00    -0.095 C  
HETATM   27  C   UNL     1      -9.165  16.272  66.283  1.00  0.00    -0.363 A  
HETATM   28  H   UNL     1      -9.578  20.141  67.034  1.00  0.00     0.000 HD 
HETATM   29  O   UNL     1     -11.125  17.577  64.774  1.00  0.00    -0.959 OA 
HETATM   30  O   UNL     1     -10.734  19.553  65.781  1.00  0.00    -0.503 OA 
ENDBRANCH  18  20
ENDBRANCH  16  18
ENDBRANCH  13  16
ENDBRANCH   7  10
ENDBRANCH   5   6
ENDBRANCH   4   5
TORSDOF 6
ENDMDL
MODEL      188
REMARK 921   NORMALIZED FREE ENERGY PREDICTED BY IDOCK:   -4.97 KCAL/MOL
REMARK 922        TOTAL FREE ENERGY PREDICTED BY IDOCK:   -7.70 KCAL/MOL
REMARK 923 INTER-LIGAND FREE ENERGY PREDICTED BY IDOCK:   -6.77 KCAL/MOL
REMARK 924 INTRA-LIGAND FREE ENERGY PREDICTED BY IDOCK:   -0.93 KCAL/MOL
REMARK 927      BINDING AFFINITY PREDICTED BY RF-SCORE:    0.00 PKD
ROOT
HETATM    1  O   UNL     1      -7.368   4.906  65.390  1.00  0.00    -0.070 OA 
HETATM    2  C   UNL     1      -8.333   4.061  64.968  1.00  0.00    -0.105 C  
HETATM    3  O   UNL     1      -9.105   4.344  64.063  1.00  0.00    -0.144 OA 
HETATM    4  C   UNL     1      -8.369   2.752  65.707  1.00  0.00    -0.093 C  
ENDROOT
BRANCH   4   5
HETATM    5  C   UNL     1      -9.233   2.847  66.953  1.00  0.00    -0.136 C  
BRANCH   5   6
HETATM    6  N   UNL     1      -9.296   4.190  67.492  1.00  0.00    -0.158 N  
HETATM    7  C   UNL     1      -9.401   4.421  68.850  1.00  0.00    -0.153 C  
HETATM    8  H   UNL     1      -9.262   4.985  66.853  1.00  0.00     0.000 HD 
HETATM    9  O   UNL     1      -9.426   3.522  69.683  1.00  0.00    -0.164 OA 
BRANCH   7  10
HETATM   10  C   UNL     1      -9.545   5.846  69.271  1.00  0.00    -0.172 A  
HETATM   11  C   UNL     1     -10.830   6.399  69.331  1.00  0.00    -0.381 A  
HETATM   12  C   UNL     1     -11.004   7.752  69.650  1.00  0.00    -0.128 A  
HETATM   13  C   UNL     1      -9.908   8.579  69.930  1.00  0.00    -0.186 A  
HETATM   14  C   UNL     1      -8.444   6.647  69.594  1.00  0.00    -0.132 A  
HETATM   15  C   UNL     1      -8.627   8.003  69.907  1.00  0.00    -0.135 A  
BRANCH  13  16
HETATM   16  N   UNL     1     -10.152   9.955  70.144  1.00  0.00    -0.287 NA 
HETATM   17  H   UNL     1      -9.532  10.561  70.682  1.00  0.00     0.000 HD 
BRANCH  16  18
HETATM   18  N   UNL     1     -11.206  10.351  69.605  1.00  0.00    -0.259 NA 
HETATM   19  H   UNL     1     -11.527  10.033  68.690  1.00  0.00     0.000 HD 
BRANCH  18  20
HETATM   20  C   UNL     1     -11.909  11.287  70.396  1.00  0.00    -0.350 A  
HETATM   21  C   UNL     1     -12.774  10.927  71.440  1.00  0.00    -0.539 A  
HETATM   22  C   UNL     1     -13.511  11.891  72.138  1.00  0.00    -0.300 A  
HETATM   23  C   UNL     1     -13.396  13.235  71.786  1.00  0.00    -0.393 A  
HETATM   24  O   UNL     1     -14.141  14.170  72.458  1.00  0.00    -0.590 OA 
HETATM   25  C   UNL     1     -12.538  13.629  70.751  1.00  0.00    -0.397 A  
HETATM   26  C   UNL     1     -12.362  15.041  70.305  1.00  0.00    -0.342 C  
HETATM   27  C   UNL     1     -11.803  12.643  70.066  1.00  0.00    -0.358 A  
HETATM   28  H   UNL     1     -14.063  15.086  72.218  1.00  0.00     0.000 HD 
HETATM   29  O   UNL     1     -11.598  15.353  69.402  1.00  0.00    -0.296 OA 
HETATM   30  O   UNL     1     -13.107  15.957  70.960  1.00  0.00    -0.508 OA 
ENDBRANCH  18  20
ENDBRANCH  16  18
ENDBRANCH  13  16
ENDBRANCH   7  10
ENDBRANCH   5   6
ENDBRANCH   4   5
TORSDOF 6
ENDMDL
MODEL      189
REMARK 921   NORMALIZED FREE ENERGY PREDICTED BY IDOCK:   -4.96 KCAL/MOL
REMARK 922        TOTAL FREE ENERGY PREDICTED BY IDOCK:   -7.68 KCAL/MOL
REMARK 923 INTER-LIGAND FREE ENERGY PREDICTED BY IDOCK:   -6.55 KCAL/MOL
REMARK 924 INTRA-LIGAND FREE ENERGY PREDICTED BY IDOCK:   -1.13 KCAL/MOL
REMARK 927      BINDING AFFINITY PREDICTED BY RF-SCORE:    0.00 PKD
ROOT
HETATM    1  O   UNL     1     -10.187  14.788  65.849  1.00  0.00    -0.279 OA 
HETATM    2  C   UNL     1     -11.504  14.494  65.824  1.00  0.00    -0.342 C  
HETATM    3  O   UNL     1     -12.116  14.128  66.818  1.00  0.00    -0.429 OA 
HETATM    4  C   UNL     1     -12.145  14.656  64.473  1.00  0.00    -0.490 C  
ENDROOT
BRANCH   4   5
HETATM    5  C   UNL     1     -12.019  13.388  63.647  1.00  0.00    -0.446 C  
BRANCH   5   6
HETATM    6  N   UNL     1     -11.454  12.284  64.396  1.00  0.00    -0.336 N  
HETATM    7  C   UNL     1     -10.429  11.512  63.885  1.00  0.00    -0.385 C  
HETATM    8  H   UNL     1     -11.822  12.072  65.324  1.00  0.00     0.000 HD 
HETATM    9  O   UNL     1      -9.919  11.715  62.789  1.00  0.00    -0.263 OA 
BRANCH   7  10
HETATM   10  C   UNL     1      -9.994  10.351  64.718  1.00  0.00    -0.409 A  
HETATM   11  C   UNL     1     -10.676  10.094  65.913  1.00  0.00     0.074 A  
HETATM   12  C   UNL     1     -10.254   9.059  66.760  1.00  0.00    -0.341 A  
HETATM   13  C   UNL     1      -9.157   8.252  66.430  1.00  0.00    -0.182 A  
HETATM   14  C   UNL     1      -8.926   9.524  64.352  1.00  0.00    -0.255 A  
HETATM   15  C   UNL     1      -8.507   8.494  65.208  1.00  0.00    -0.192 A  
BRANCH  13  16
HETATM   16  N   UNL     1      -8.727   7.297  67.378  1.00  0.00    -0.121 NA 
HETATM   17  H   UNL     1      -8.150   7.525  68.188  1.00  0.00     0.000 HD 
BRANCH  16  18
HETATM   18  N   UNL     1      -9.128   6.142  67.121  1.00  0.00    -0.114 NA 
HETATM   19  H   UNL     1      -9.319   5.808  66.176  1.00  0.00     0.000 HD 
BRANCH  18  20
HETATM   20  C   UNL     1      -9.292   5.348  68.278  1.00  0.00    -0.114 A  
HETATM   21  C   UNL     1      -8.915   3.999  68.354  1.00  0.00    -0.159 A  
HETATM   22  C   UNL     1      -9.177   3.235  69.497  1.00  0.00    -0.225 A  
HETATM   23  C   UNL     1      -9.835   3.816  70.580  1.00  0.00    -0.077 A  
HETATM   24  O   UNL     1     -10.111   3.053  71.685  1.00  0.00    -0.139 OA 
HETATM   25  C   UNL     1     -10.222   5.163  70.539  1.00  0.00    -0.330 A  
HETATM   26  C   UNL     1     -10.936   5.860  71.646  1.00  0.00    -0.268 C  
HETATM   27  C   UNL     1      -9.944   5.914  69.381  1.00  0.00    -0.229 A  
HETATM   28  H   UNL     1     -10.559   3.449  72.423  1.00  0.00     0.000 HD 
HETATM   29  O   UNL     1     -11.253   7.039  71.581  1.00  0.00    -0.236 OA 
HETATM   30  O   UNL     1     -11.217   5.101  72.727  1.00  0.00    -0.263 OA 
ENDBRANCH  18  20
ENDBRANCH  16  18
ENDBRANCH  13  16
ENDBRANCH   7  10
ENDBRANCH   5   6
ENDBRANCH   4   5
TORSDOF 6
ENDMDL
MODEL      190
REMARK 921   NORMALIZED FREE ENERGY PREDICTED BY IDOCK:   -4.95 KCAL/MOL
REMARK 922        TOTAL FREE ENERGY PREDICTED BY IDOCK:   -7.68 KCAL/MOL
REMARK 923 INTER-LIGAND FREE ENERGY PREDICTED BY IDOCK:   -6.86 KCAL/MOL
REMARK 924 INTRA-LIGAND FREE ENERGY PREDICTED BY IDOCK:   -0.82 KCAL/MOL
REMARK 927      BINDING AFFINITY PREDICTED BY RF-SCORE:    0.00 PKD
ROOT
HETATM    1  O   UNL     1     -14.405  14.782  72.691  1.00  0.00    -0.399 OA 
HETATM    2  C   UNL     1     -13.135  14.330  72.611  1.00  0.00    -0.478 C  
HETATM    3  O   UNL     1     -12.190  14.936  73.095  1.00  0.00    -0.339 OA 
HETATM    4  C   UNL     1     -12.993  13.025  71.878  1.00  0.00    -0.414 C  
ENDROOT
BRANCH   4   5
HETATM    5  C   UNL     1     -12.828  13.247  70.385  1.00  0.00     0.085 C  
BRANCH   5   6
HETATM    6  N   UNL     1     -11.507  13.726  70.030  1.00  0.00    -0.476 N  
HETATM    7  C   UNL     1     -11.234  14.234  68.775  1.00  0.00    -0.262 C  
HETATM    8  H   UNL     1     -10.761  13.687  70.725  1.00  0.00     0.000 HD 
HETATM    9  O   UNL     1     -12.079  14.333  67.893  1.00  0.00    -0.345 OA 
BRANCH   7  10
HETATM   10  C   UNL     1      -9.815  14.612  68.508  1.00  0.00    -0.228 A  
HETATM   11  C   UNL     1      -9.443  14.932  67.197  1.00  0.00    -0.231 A  
HETATM   12  C   UNL     1      -8.106  15.221  66.891  1.00  0.00    -0.224 A  
HETATM   13  C   UNL     1      -7.115  15.213  67.882  1.00  0.00    -0.146 A  
HETATM   14  C   UNL     1      -8.846  14.646  69.518  1.00  0.00     0.213 A  
HETATM   15  C   UNL     1      -7.508  14.932  69.201  1.00  0.00    -0.158 A  
BRANCH  13  16
HETATM   16  N   UNL     1      -5.775  15.415  67.483  1.00  0.00    -0.327 NA 
HETATM   17  H   UNL     1      -5.337  14.918  66.707  1.00  0.00     0.000 HD 
BRANCH  16  18
HETATM   18  N   UNL     1      -5.183  16.266  68.179  1.00  0.00    -0.099 NA 
HETATM   19  H   UNL     1      -4.456  16.035  68.856  1.00  0.00     0.000 HD 
BRANCH  18  20
HETATM   20  C   UNL     1      -5.627  17.584  67.929  1.00  0.00    -0.137 A  
HETATM   21  C   UNL     1      -6.083  18.453  68.931  1.00  0.00    -0.219 A  
HETATM   22  C   UNL     1      -6.591  19.719  68.618  1.00  0.00    -0.332 A  
HETATM   23  C   UNL     1      -6.660  20.125  67.286  1.00  0.00    -0.216 A  
HETATM   24  O   UNL     1      -7.184  21.356  66.987  1.00  0.00    -0.801 OA 
HETATM   25  C   UNL     1      -6.209  19.283  66.261  1.00  0.00    -0.189 A  
HETATM   26  C   UNL     1      -6.254  19.634  64.812  1.00  0.00    -0.275 C  
HETATM   27  C   UNL     1      -5.697  18.015  66.599  1.00  0.00    -0.190 A  
HETATM   28  H   UNL     1      -7.231  21.633  66.079  1.00  0.00     0.000 HD 
HETATM   29  O   UNL     1      -5.845  18.878  63.942  1.00  0.00    -0.399 OA 
HETATM   30  O   UNL     1      -6.783  20.842  64.521  1.00  0.00    -0.275 OA 
ENDBRANCH  18  20
ENDBRANCH  16  18
ENDBRANCH  13  16
ENDBRANCH   7  10
ENDBRANCH   5   6
ENDBRANCH   4   5
TORSDOF 6
ENDMDL
MODEL      191
REMARK 921   NORMALIZED FREE ENERGY PREDICTED BY IDOCK:   -4.95 KCAL/MOL
REMARK 922        TOTAL FREE ENERGY PREDICTED BY IDOCK:   -7.67 KCAL/MOL
REMARK 923 INTER-LIGAND FREE ENERGY PREDICTED BY IDOCK:   -6.58 KCAL/MOL
REMARK 924 INTRA-LIGAND FREE ENERGY PREDICTED BY IDOCK:   -1.09 KCAL/MOL
REMARK 927      BINDING AFFINITY PREDICTED BY RF-SCORE:    0.00 PKD
ROOT
HETATM    1  O   UNL     1      -6.079   9.204  73.455  1.00  0.00    -0.295 OA 
HETATM    2  C   UNL     1      -6.239   7.940  73.006  1.00  0.00    -0.068 C  
HETATM    3  O   UNL     1      -5.756   7.550  71.952  1.00  0.00    -0.036 OA 
HETATM    4  C   UNL     1      -7.057   7.065  73.915  1.00  0.00    -0.086 C  
ENDROOT
BRANCH   4   5
HETATM    5  C   UNL     1      -8.539   7.181  73.604  1.00  0.00    -0.146 C  
BRANCH   5   6
HETATM    6  N   UNL     1      -8.796   7.598  72.241  1.00  0.00    -0.125 N  
HETATM    7  C   UNL     1      -9.984   8.204  71.880  1.00  0.00    -0.212 C  
HETATM    8  H   UNL     1      -8.082   7.441  71.529  1.00  0.00     0.000 HD 
HETATM    9  O   UNL     1     -10.883   8.446  72.679  1.00  0.00    -0.342 OA 
BRANCH   7  10
HETATM   10  C   UNL     1     -10.161   8.506  70.429  1.00  0.00    -0.208 A  
HETATM   11  C   UNL     1      -9.529   7.680  69.492  1.00  0.00    -0.152 A  
HETATM   12  C   UNL     1      -9.609   7.972  68.124  1.00  0.00    -0.165 A  
HETATM   13  C   UNL     1     -10.329   9.080  67.658  1.00  0.00    -0.257 A  
HETATM   14  C   UNL     1     -10.923   9.589  69.977  1.00  0.00    -0.284 A  
HETATM   15  C   UNL     1     -10.993   9.877  68.605  1.00  0.00    -0.222 A  
BRANCH  13  16
HETATM   16  N   UNL     1     -10.281   9.369  66.275  1.00  0.00    -0.254 NA 
HETATM   17  H   UNL     1     -10.855   8.891  65.579  1.00  0.00     0.000 HD 
BRANCH  16  18
HETATM   18  N   UNL     1      -9.464  10.270  65.995  1.00  0.00    -0.175 NA 
HETATM   19  H   UNL     1      -8.455  10.172  66.107  1.00  0.00     0.000 HD 
BRANCH  18  20
HETATM   20  C   UNL     1     -10.086  11.442  65.507  1.00  0.00    -0.247 A  
HETATM   21  C   UNL     1     -10.768  11.506  64.283  1.00  0.00    -0.416 A  
HETATM   22  C   UNL     1     -11.292  12.714  63.807  1.00  0.00    -0.529 A  
HETATM   23  C   UNL     1     -11.127  13.880  64.554  1.00  0.00    -0.366 A  
HETATM   24  O   UNL     1     -11.622  15.062  64.068  1.00  0.00    -0.652 OA 
HETATM   25  C   UNL     1     -10.455  13.849  65.783  1.00  0.00    -0.313 A  
HETATM   26  C   UNL     1     -10.226  15.048  66.639  1.00  0.00    -0.268 C  
HETATM   27  C   UNL     1      -9.939  12.623  66.244  1.00  0.00    -0.266 A  
HETATM   28  H   UNL     1     -11.510  15.857  64.576  1.00  0.00     0.000 HD 
HETATM   29  O   UNL     1      -9.641  14.986  67.711  1.00  0.00    -0.201 OA 
HETATM   30  O   UNL     1     -10.704  16.213  66.150  1.00  0.00    -0.296 OA 
ENDBRANCH  18  20
ENDBRANCH  16  18
ENDBRANCH  13  16
ENDBRANCH   7  10
ENDBRANCH   5   6
ENDBRANCH   4   5
TORSDOF 6
ENDMDL
MODEL      192
REMARK 921   NORMALIZED FREE ENERGY PREDICTED BY IDOCK:   -4.94 KCAL/MOL
REMARK 922        TOTAL FREE ENERGY PREDICTED BY IDOCK:   -7.66 KCAL/MOL
REMARK 923 INTER-LIGAND FREE ENERGY PREDICTED BY IDOCK:   -6.61 KCAL/MOL
REMARK 924 INTRA-LIGAND FREE ENERGY PREDICTED BY IDOCK:   -1.05 KCAL/MOL
REMARK 927      BINDING AFFINITY PREDICTED BY RF-SCORE:    0.00 PKD
ROOT
HETATM    1  O   UNL     1     -10.873  19.176  65.452  1.00  0.00    -0.518 OA 
HETATM    2  C   UNL     1      -9.740  19.606  66.047  1.00  0.00    -0.344 C  
HETATM    3  O   UNL     1      -8.627  19.309  65.636  1.00  0.00    -0.327 OA 
HETATM    4  C   UNL     1      -9.971  20.477  67.251  1.00  0.00    -0.528 C  
ENDROOT
BRANCH   4   5
HETATM    5  C   UNL     1     -10.115  19.645  68.513  1.00  0.00    -0.453 C  
BRANCH   5   6
HETATM    6  N   UNL     1      -9.879  18.234  68.286  1.00  0.00    -0.330 N  
HETATM    7  C   UNL     1      -8.640  17.663  68.505  1.00  0.00    -0.285 C  
HETATM    8  H   UNL     1     -10.646  17.648  67.957  1.00  0.00     0.000 HD 
HETATM    9  O   UNL     1      -7.674  18.294  68.919  1.00  0.00    -0.280 OA 
BRANCH   7  10
HETATM   10  C   UNL     1      -8.504  16.219  68.150  1.00  0.00    -0.174 A  
HETATM   11  C   UNL     1      -9.099  15.762  66.968  1.00  0.00    -0.240 A  
HETATM   12  C   UNL     1      -9.057  14.401  66.636  1.00  0.00    -0.265 A  
HETATM   13  C   UNL     1      -8.413  13.470  67.462  1.00  0.00    -0.192 A  
HETATM   14  C   UNL     1      -7.817  15.310  68.962  1.00  0.00    -0.184 A  
HETATM   15  C   UNL     1      -7.785  13.948  68.624  1.00  0.00    -0.128 A  
BRANCH  13  16
HETATM   16  N   UNL     1      -8.499  12.103  67.114  1.00  0.00    -0.177 NA 
HETATM   17  H   UNL     1      -8.874  11.769  66.226  1.00  0.00     0.000 HD 
BRANCH  16  18
HETATM   18  N   UNL     1      -8.069  11.346  68.009  1.00  0.00    -0.127 NA 
HETATM   19  H   UNL     1      -7.102  11.350  68.335  1.00  0.00     0.000 HD 
BRANCH  18  20
HETATM   20  C   UNL     1      -9.062  10.482  68.522  1.00  0.00    -0.154 A  
HETATM   21  C   UNL     1     -10.135  10.917  69.316  1.00  0.00    -0.164 A  
HETATM   22  C   UNL     1     -11.044  10.007  69.868  1.00  0.00    -0.336 A  
HETATM   23  C   UNL     1     -10.879   8.642  69.640  1.00  0.00    -0.157 A  
HETATM   24  O   UNL     1     -11.760   7.757  70.207  1.00  0.00    -0.476 OA 
HETATM   25  C   UNL     1      -9.821   8.175  68.849  1.00  0.00    -0.178 A  
HETATM   26  C   UNL     1      -9.567   6.734  68.562  1.00  0.00    -0.130 C  
HETATM   27  C   UNL     1      -8.921   9.107  68.299  1.00  0.00    -0.129 A  
HETATM   28  H   UNL     1     -11.647   6.826  70.052  1.00  0.00     0.000 HD 
HETATM   29  O   UNL     1      -8.637   6.360  67.862  1.00  0.00    -0.117 OA 
HETATM   30  O   UNL     1     -10.428   5.865  69.134  1.00  0.00    -0.213 OA 
ENDBRANCH  18  20
ENDBRANCH  16  18
ENDBRANCH  13  16
ENDBRANCH   7  10
ENDBRANCH   5   6
ENDBRANCH   4   5
TORSDOF 6
ENDMDL
MODEL      193
REMARK 921   NORMALIZED FREE ENERGY PREDICTED BY IDOCK:   -4.93 KCAL/MOL
REMARK 922        TOTAL FREE ENERGY PREDICTED BY IDOCK:   -7.64 KCAL/MOL
REMARK 923 INTER-LIGAND FREE ENERGY PREDICTED BY IDOCK:   -7.05 KCAL/MOL
REMARK 924 INTRA-LIGAND FREE ENERGY PREDICTED BY IDOCK:   -0.59 KCAL/MOL
REMARK 927      BINDING AFFINITY PREDICTED BY RF-SCORE:    0.00 PKD
ROOT
HETATM    1  O   UNL     1     -11.483  16.652  64.078  1.00  0.00    -1.192 OA 
HETATM    2  C   UNL     1     -11.687  15.321  64.166  1.00  0.00    -0.103 C  
HETATM    3  O   UNL     1     -12.692  14.779  63.729  1.00  0.00    -0.767 OA 
HETATM    4  C   UNL     1     -10.572  14.572  64.843  1.00  0.00    -0.450 C  
ENDROOT
BRANCH   4   5
HETATM    5  C   UNL     1     -10.772  14.529  66.348  1.00  0.00    -0.309 C  
BRANCH   5   6
HETATM    6  N   UNL     1     -10.349  13.274  66.935  1.00  0.00    -0.253 N  
HETATM    7  C   UNL     1     -10.968  12.753  68.055  1.00  0.00    -0.239 C  
HETATM    8  H   UNL     1      -9.574  12.763  66.512  1.00  0.00     0.000 HD 
HETATM    9  O   UNL     1     -11.917  13.296  68.609  1.00  0.00    -0.339 OA 
BRANCH   7  10
HETATM   10  C   UNL     1     -10.382  11.499  68.613  1.00  0.00    -0.226 A  
HETATM   11  C   UNL     1     -11.249  10.473  69.007  1.00  0.00    -0.316 A  
HETATM   12  C   UNL     1     -10.744   9.310  69.603  1.00  0.00    -0.244 A  
HETATM   13  C   UNL     1      -9.369   9.136  69.808  1.00  0.00    -0.182 A  
HETATM   14  C   UNL     1      -9.003  11.321  68.768  1.00  0.00    -0.116 A  
HETATM   15  C   UNL     1      -8.506  10.155  69.371  1.00  0.00    -0.179 A  
BRANCH  13  16
HETATM   16  N   UNL     1      -8.942   7.983  70.506  1.00  0.00    -0.150 NA 
HETATM   17  H   UNL     1      -8.946   7.907  71.523  1.00  0.00     0.000 HD 
BRANCH  16  18
HETATM   18  N   UNL     1      -8.559   7.069  69.746  1.00  0.00    -0.140 NA 
HETATM   19  H   UNL     1      -8.056   7.233  68.874  1.00  0.00     0.000 HD 
BRANCH  18  20
HETATM   20  C   UNL     1      -8.897   5.783  70.223  1.00  0.00    -0.141 A  
HETATM   21  C   UNL     1      -8.674   4.602  69.498  1.00  0.00    -0.111 A  
HETATM   22  C   UNL     1      -9.105   3.362  69.981  1.00  0.00    -0.199 A  
HETATM   23  C   UNL     1      -9.780   3.292  71.199  1.00  0.00    -0.142 A  
HETATM   24  O   UNL     1     -10.222   2.075  71.651  1.00  0.00    -0.123 OA 
HETATM   25  C   UNL     1     -10.016   4.451  71.950  1.00  0.00    -0.258 A  
HETATM   26  C   UNL     1     -10.736   4.467  73.256  1.00  0.00    -0.239 C  
HETATM   27  C   UNL     1      -9.569   5.688  71.447  1.00  0.00    -0.188 A  
HETATM   28  H   UNL     1     -10.682   2.027  72.481  1.00  0.00     0.000 HD 
HETATM   29  O   UNL     1     -10.918   5.497  73.890  1.00  0.00    -0.221 OA 
HETATM   30  O   UNL     1     -11.181   3.269  73.691  1.00  0.00    -0.227 OA 
ENDBRANCH  18  20
ENDBRANCH  16  18
ENDBRANCH  13  16
ENDBRANCH   7  10
ENDBRANCH   5   6
ENDBRANCH   4   5
TORSDOF 6
ENDMDL
MODEL      194
REMARK 921   NORMALIZED FREE ENERGY PREDICTED BY IDOCK:   -4.92 KCAL/MOL
REMARK 922        TOTAL FREE ENERGY PREDICTED BY IDOCK:   -7.64 KCAL/MOL
REMARK 923 INTER-LIGAND FREE ENERGY PREDICTED BY IDOCK:   -6.52 KCAL/MOL
REMARK 924 INTRA-LIGAND FREE ENERGY PREDICTED BY IDOCK:   -1.12 KCAL/MOL
REMARK 927      BINDING AFFINITY PREDICTED BY RF-SCORE:    0.00 PKD
ROOT
HETATM    1  O   UNL     1      -6.085   7.375  63.736  1.00  0.00    -0.047 OA 
HETATM    2  C   UNL     1      -6.929   6.387  63.368  1.00  0.00    -0.047 C  
HETATM    3  O   UNL     1      -7.838   6.562  62.569  1.00  0.00    -0.091 OA 
HETATM    4  C   UNL     1      -6.649   5.064  64.026  1.00  0.00    -0.041 C  
ENDROOT
BRANCH   4   5
HETATM    5  C   UNL     1      -7.367   4.949  65.359  1.00  0.00    -0.072 C  
BRANCH   5   6
HETATM    6  N   UNL     1      -8.108   6.145  65.703  1.00  0.00    -0.121 N  
HETATM    7  C   UNL     1      -7.870   6.831  66.879  1.00  0.00    -0.108 C  
HETATM    8  H   UNL     1      -8.823   6.490  65.062  1.00  0.00     0.000 HD 
HETATM    9  O   UNL     1      -7.015   6.494  67.690  1.00  0.00    -0.073 OA 
BRANCH   7  10
HETATM   10  C   UNL     1      -8.759   7.997  67.157  1.00  0.00    -0.134 A  
HETATM   11  C   UNL     1      -8.703   8.595  68.422  1.00  0.00    -0.142 A  
HETATM   12  C   UNL     1      -9.573   9.644  68.748  1.00  0.00    -0.153 A  
HETATM   13  C   UNL     1     -10.505  10.131  67.821  1.00  0.00    -0.232 A  
HETATM   14  C   UNL     1      -9.652   8.502  66.205  1.00  0.00    -0.276 A  
HETATM   15  C   UNL     1     -10.523   9.550  66.542  1.00  0.00    -0.201 A  
BRANCH  13  16
HETATM   16  N   UNL     1     -11.416  11.120  68.254  1.00  0.00    -0.338 NA 
HETATM   17  H   UNL     1     -11.669  11.265  69.231  1.00  0.00     0.000 HD 
BRANCH  16  18
HETATM   18  N   UNL     1     -11.879  11.799  67.313  1.00  0.00    -0.624 NA 
HETATM   19  H   UNL     1     -12.649  11.491  66.720  1.00  0.00     0.000 HD 
BRANCH  18  20
HETATM   20  C   UNL     1     -11.221  13.040  67.157  1.00  0.00    -0.286 A  
HETATM   21  C   UNL     1     -10.282  13.541  68.071  1.00  0.00    -0.243 A  
HETATM   22  C   UNL     1      -9.723  14.815  67.912  1.00  0.00    -0.211 A  
HETATM   23  C   UNL     1     -10.111  15.610  66.835  1.00  0.00    -0.263 A  
HETATM   24  O   UNL     1      -9.577  16.865  66.702  1.00  0.00    -0.245 OA 
HETATM   25  C   UNL     1     -11.044  15.138  65.902  1.00  0.00    -0.319 A  
HETATM   26  C   UNL     1     -11.520  15.924  64.727  1.00  0.00    -0.234 C  
HETATM   27  C   UNL     1     -11.590  13.852  66.078  1.00  0.00    -0.359 A  
HETATM   28  H   UNL     1      -9.842  17.408  65.968  1.00  0.00     0.000 HD 
HETATM   29  O   UNL     1     -12.330  15.479  63.927  1.00  0.00    -0.653 OA 
HETATM   30  O   UNL     1     -11.002  17.165  64.608  1.00  0.00    -1.005 OA 
ENDBRANCH  18  20
ENDBRANCH  16  18
ENDBRANCH  13  16
ENDBRANCH   7  10
ENDBRANCH   5   6
ENDBRANCH   4   5
TORSDOF 6
ENDMDL
MODEL      195
REMARK 921   NORMALIZED FREE ENERGY PREDICTED BY IDOCK:   -4.92 KCAL/MOL
REMARK 922        TOTAL FREE ENERGY PREDICTED BY IDOCK:   -7.63 KCAL/MOL
REMARK 923 INTER-LIGAND FREE ENERGY PREDICTED BY IDOCK:   -6.24 KCAL/MOL
REMARK 924 INTRA-LIGAND FREE ENERGY PREDICTED BY IDOCK:   -1.39 KCAL/MOL
REMARK 927      BINDING AFFINITY PREDICTED BY RF-SCORE:    0.00 PKD
ROOT
HETATM    1  O   UNL     1      -9.262  12.137  66.672  1.00  0.00    -0.198 OA 
HETATM    2  C   UNL     1     -10.362  12.029  65.896  1.00  0.00    -0.244 C  
HETATM    3  O   UNL     1     -11.494  12.010  66.359  1.00  0.00    -0.351 OA 
HETATM    4  C   UNL     1     -10.068  11.938  64.425  1.00  0.00    -0.310 C  
ENDROOT
BRANCH   4   5
HETATM    5  C   UNL     1      -9.835  10.499  63.998  1.00  0.00    -0.324 C  
BRANCH   5   6
HETATM    6  N   UNL     1      -9.848   9.573  65.112  1.00  0.00    -0.437 N  
HETATM    7  C   UNL     1      -8.885   8.592  65.250  1.00  0.00    -0.135 C  
HETATM    8  H   UNL     1     -10.586   9.648  65.813  1.00  0.00     0.000 HD 
HETATM    9  O   UNL     1      -7.955   8.451  64.464  1.00  0.00    -0.131 OA 
BRANCH   7  10
HETATM   10  C   UNL     1      -9.059   7.648  66.393  1.00  0.00    -0.214 A  
HETATM   11  C   UNL     1     -10.315   7.063  66.592  1.00  0.00    -0.215 A  
HETATM   12  C   UNL     1     -10.541   6.229  67.695  1.00  0.00    -0.339 A  
HETATM   13  C   UNL     1      -9.521   5.948  68.614  1.00  0.00    -0.122 A  
HETATM   14  C   UNL     1      -8.018   7.340  67.276  1.00  0.00    -0.111 A  
HETATM   15  C   UNL     1      -8.254   6.508  68.381  1.00  0.00    -0.114 A  
BRANCH  13  16
HETATM   16  N   UNL     1      -9.849   5.181  69.756  1.00  0.00    -0.191 NA 
HETATM   17  H   UNL     1     -10.226   4.234  69.710  1.00  0.00     0.000 HD 
BRANCH  16  18
HETATM   18  N   UNL     1      -9.630   5.785  70.826  1.00  0.00    -0.167 NA 
HETATM   19  H   UNL     1      -8.730   5.773  71.307  1.00  0.00     0.000 HD 
BRANCH  18  20
HETATM   20  C   UNL     1     -10.760   6.487  71.302  1.00  0.00    -0.237 A  
HETATM   21  C   UNL     1     -11.831   5.874  71.969  1.00  0.00    -0.208 A  
HETATM   22  C   UNL     1     -12.966   6.603  72.344  1.00  0.00     0.228 A  
HETATM   23  C   UNL     1     -13.045   7.961  72.041  1.00  0.00    -0.231 A  
HETATM   24  O   UNL     1     -14.171   8.661  72.389  1.00  0.00    -0.529 OA 
HETATM   25  C   UNL     1     -11.991   8.605  71.378  1.00  0.00    -0.355 A  
HETATM   26  C   UNL     1     -11.997  10.050  71.008  1.00  0.00    -0.376 C  
HETATM   27  C   UNL     1     -10.857   7.854  71.015  1.00  0.00    -0.253 A  
HETATM   28  H   UNL     1     -14.226   9.587  72.182  1.00  0.00     0.000 HD 
HETATM   29  O   UNL     1     -11.057  10.583  70.437  1.00  0.00    -0.298 OA 
HETATM   30  O   UNL     1     -13.114  10.732  71.341  1.00  0.00    -0.382 OA 
ENDBRANCH  18  20
ENDBRANCH  16  18
ENDBRANCH  13  16
ENDBRANCH   7  10
ENDBRANCH   5   6
ENDBRANCH   4   5
TORSDOF 6
ENDMDL
MODEL      196
REMARK 921   NORMALIZED FREE ENERGY PREDICTED BY IDOCK:   -4.90 KCAL/MOL
REMARK 922        TOTAL FREE ENERGY PREDICTED BY IDOCK:   -7.61 KCAL/MOL
REMARK 923 INTER-LIGAND FREE ENERGY PREDICTED BY IDOCK:   -6.57 KCAL/MOL
REMARK 924 INTRA-LIGAND FREE ENERGY PREDICTED BY IDOCK:   -1.04 KCAL/MOL
REMARK 927      BINDING AFFINITY PREDICTED BY RF-SCORE:    0.00 PKD
ROOT
HETATM    1  O   UNL     1      -5.434   8.577  66.162  1.00  0.00    -0.034 OA 
HETATM    2  C   UNL     1      -6.269   8.894  65.148  1.00  0.00    -0.060 C  
HETATM    3  O   UNL     1      -6.303  10.009  64.647  1.00  0.00    -0.111 OA 
HETATM    4  C   UNL     1      -7.144   7.758  64.696  1.00  0.00    -0.068 C  
ENDROOT
BRANCH   4   5
HETATM    5  C   UNL     1      -8.427   7.694  65.506  1.00  0.00    -0.120 C  
BRANCH   5   6
HETATM    6  N   UNL     1      -8.940   9.005  65.848  1.00  0.00    -0.176 N  
HETATM    7  C   UNL     1     -10.116   9.159  66.559  1.00  0.00    -0.287 C  
HETATM    8  H   UNL     1      -8.422   9.834  65.558  1.00  0.00     0.000 HD 
HETATM    9  O   UNL     1     -10.785   8.214  66.961  1.00  0.00    -0.321 OA 
BRANCH   7  10
HETATM   10  C   UNL     1     -10.582  10.561  66.771  1.00  0.00    -0.284 A  
HETATM   11  C   UNL     1     -11.291  10.860  67.940  1.00  0.00    -0.380 A  
HETATM   12  C   UNL     1     -11.809  12.146  68.144  1.00  0.00    -0.362 A  
HETATM   13  C   UNL     1     -11.622  13.164  67.199  1.00  0.00    -0.361 A  
HETATM   14  C   UNL     1     -10.346  11.578  65.839  1.00  0.00    -0.293 A  
HETATM   15  C   UNL     1     -10.874  12.862  66.049  1.00  0.00    -0.300 A  
BRANCH  13  16
HETATM   16  N   UNL     1     -12.259  14.405  67.425  1.00  0.00    -0.617 NA 
HETATM   17  H   UNL     1     -12.811  14.892  66.718  1.00  0.00     0.000 HD 
BRANCH  16  18
HETATM   18  N   UNL     1     -12.076  14.842  68.580  1.00  0.00    -0.581 NA 
HETATM   19  H   UNL     1     -12.641  14.568  69.384  1.00  0.00     0.000 HD 
BRANCH  18  20
HETATM   20  C   UNL     1     -11.004  15.759  68.655  1.00  0.00    -0.307 A  
HETATM   21  C   UNL     1     -11.114  17.113  68.303  1.00  0.00    -0.118 A  
HETATM   22  C   UNL     1      -9.998  17.959  68.316  1.00  0.00    -0.360 A  
HETATM   23  C   UNL     1      -8.750  17.450  68.672  1.00  0.00    -0.261 A  
HETATM   24  O   UNL     1      -7.659  18.280  68.656  1.00  0.00    -0.287 OA 
HETATM   25  C   UNL     1      -8.606  16.104  69.032  1.00  0.00    -0.251 A  
HETATM   26  C   UNL     1      -7.309  15.476  69.417  1.00  0.00    -0.215 C  
HETATM   27  C   UNL     1      -9.742  15.272  69.017  1.00  0.00    -0.234 A  
HETATM   28  H   UNL     1      -6.808  17.934  68.898  1.00  0.00     0.000 HD 
HETATM   29  O   UNL     1      -7.220  14.299  69.733  1.00  0.00    -0.031 OA 
HETATM   30  O   UNL     1      -6.235  16.294  69.387  1.00  0.00    -0.153 OA 
ENDBRANCH  18  20
ENDBRANCH  16  18
ENDBRANCH  13  16
ENDBRANCH   7  10
ENDBRANCH   5   6
ENDBRANCH   4   5
TORSDOF 6
ENDMDL
MODEL      197
REMARK 921   NORMALIZED FREE ENERGY PREDICTED BY IDOCK:   -4.89 KCAL/MOL
REMARK 922        TOTAL FREE ENERGY PREDICTED BY IDOCK:   -7.59 KCAL/MOL
REMARK 923 INTER-LIGAND FREE ENERGY PREDICTED BY IDOCK:   -6.28 KCAL/MOL
REMARK 924 INTRA-LIGAND FREE ENERGY PREDICTED BY IDOCK:   -1.31 KCAL/MOL
REMARK 927      BINDING AFFINITY PREDICTED BY RF-SCORE:    0.00 PKD
ROOT
HETATM    1  O   UNL     1      -5.371  18.688  67.855  1.00  0.00    -0.167 OA 
HETATM    2  C   UNL     1      -6.333  19.164  68.674  1.00  0.00    -0.248 C  
HETATM    3  O   UNL     1      -6.803  18.503  69.590  1.00  0.00    -0.141 OA 
HETATM    4  C   UNL     1      -6.769  20.568  68.360  1.00  0.00    -0.255 C  
ENDROOT
BRANCH   4   5
HETATM    5  C   UNL     1      -7.881  20.581  67.326  1.00  0.00    -0.323 C  
BRANCH   5   6
HETATM    6  N   UNL     1      -8.414  19.261  67.057  1.00  0.00    -0.276 N  
HETATM    7  C   UNL     1      -9.768  18.998  67.132  1.00  0.00    -0.320 C  
HETATM    8  H   UNL     1      -7.774  18.507  66.806  1.00  0.00     0.000 HD 
HETATM    9  O   UNL     1     -10.603  19.852  67.407  1.00  0.00    -0.419 OA 
BRANCH   7  10
HETATM   10  C   UNL     1     -10.180  17.579  66.919  1.00  0.00    -0.329 A  
HETATM   11  C   UNL     1     -10.328  16.750  68.037  1.00  0.00    -0.317 A  
HETATM   12  C   UNL     1     -10.642  15.393  67.876  1.00  0.00    -0.267 A  
HETATM   13  C   UNL     1     -10.829  14.837  66.604  1.00  0.00    -0.319 A  
HETATM   14  C   UNL     1     -10.410  17.049  65.644  1.00  0.00    -0.226 A  
HETATM   15  C   UNL     1     -10.719  15.689  65.492  1.00  0.00    -0.403 A  
BRANCH  13  16
HETATM   16  N   UNL     1     -11.043  13.443  66.514  1.00  0.00    -0.294 NA 
HETATM   17  H   UNL     1     -11.943  12.998  66.693  1.00  0.00     0.000 HD 
BRANCH  16  18
HETATM   18  N   UNL     1     -10.014  12.813  66.191  1.00  0.00    -0.263 NA 
HETATM   19  H   UNL     1      -9.515  12.959  65.313  1.00  0.00     0.000 HD 
BRANCH  18  20
HETATM   20  C   UNL     1      -9.614  11.877  67.170  1.00  0.00    -0.186 A  
HETATM   21  C   UNL     1     -10.371  10.748  67.520  1.00  0.00    -0.244 A  
HETATM   22  C   UNL     1      -9.969   9.898  68.557  1.00  0.00    -0.175 A  
HETATM   23  C   UNL     1      -8.804  10.180  69.268  1.00  0.00    -0.183 A  
HETATM   24  O   UNL     1      -8.433   9.356  70.300  1.00  0.00    -0.174 OA 
HETATM   25  C   UNL     1      -8.024  11.298  68.943  1.00  0.00    -0.104 A  
HETATM   26  C   UNL     1      -6.770  11.677  69.656  1.00  0.00    -0.059 C  
HETATM   27  C   UNL     1      -8.443  12.136  67.892  1.00  0.00    -0.163 A  
HETATM   28  H   UNL     1      -7.638   9.549  70.785  1.00  0.00     0.000 HD 
HETATM   29  O   UNL     1      -6.108  12.655  69.342  1.00  0.00    -0.092 OA 
HETATM   30  O   UNL     1      -6.416  10.871  70.680  1.00  0.00    -0.335 OA 
ENDBRANCH  18  20
ENDBRANCH  16  18
ENDBRANCH  13  16
ENDBRANCH   7  10
ENDBRANCH   5   6
ENDBRANCH   4   5
TORSDOF 6
ENDMDL
MODEL      198
REMARK 921   NORMALIZED FREE ENERGY PREDICTED BY IDOCK:   -4.87 KCAL/MOL
REMARK 922        TOTAL FREE ENERGY PREDICTED BY IDOCK:   -7.56 KCAL/MOL
REMARK 923 INTER-LIGAND FREE ENERGY PREDICTED BY IDOCK:   -7.05 KCAL/MOL
REMARK 924 INTRA-LIGAND FREE ENERGY PREDICTED BY IDOCK:   -0.51 KCAL/MOL
REMARK 927      BINDING AFFINITY PREDICTED BY RF-SCORE:    0.00 PKD
ROOT
HETATM    1  O   UNL     1      -6.686  17.899  68.576  1.00  0.00    -0.210 OA 
HETATM    2  C   UNL     1      -6.924  19.147  68.120  1.00  0.00    -0.251 C  
HETATM    3  O   UNL     1      -6.824  20.138  68.830  1.00  0.00    -0.301 OA 
HETATM    4  C   UNL     1      -7.320  19.206  66.670  1.00  0.00    -0.234 C  
ENDROOT
BRANCH   4   5
HETATM    5  C   UNL     1      -8.820  19.042  66.501  1.00  0.00    -0.327 C  
BRANCH   5   6
HETATM    6  N   UNL     1      -9.279  17.707  66.825  1.00  0.00    -0.263 N  
HETATM    7  C   UNL     1     -10.022  17.453  67.962  1.00  0.00    -0.302 C  
HETATM    8  H   UNL     1      -9.048  16.936  66.199  1.00  0.00     0.000 HD 
HETATM    9  O   UNL     1     -10.357  18.327  68.754  1.00  0.00    -0.354 OA 
BRANCH   7  10
HETATM   10  C   UNL     1     -10.358  16.023  68.228  1.00  0.00    -0.261 A  
HETATM   11  C   UNL     1     -11.647  15.710  68.675  1.00  0.00    -0.391 A  
HETATM   12  C   UNL     1     -11.982  14.390  69.005  1.00  0.00    -0.342 A  
HETATM   13  C   UNL     1     -11.048  13.352  68.886  1.00  0.00    -0.266 A  
HETATM   14  C   UNL     1      -9.428  14.990  68.058  1.00  0.00    -0.193 A  
HETATM   15  C   UNL     1      -9.770  13.672  68.397  1.00  0.00    -0.217 A  
BRANCH  13  16
HETATM   16  N   UNL     1     -11.424  12.066  69.333  1.00  0.00    -0.318 NA 
HETATM   17  H   UNL     1     -12.394  11.771  69.450  1.00  0.00     0.000 HD 
BRANCH  16  18
HETATM   18  N   UNL     1     -10.445  11.327  69.569  1.00  0.00    -0.442 NA 
HETATM   19  H   UNL     1      -9.812  11.465  70.357  1.00  0.00     0.000 HD 
BRANCH  18  20
HETATM   20  C   UNL     1     -10.308  10.281  68.629  1.00  0.00    -0.184 A  
HETATM   21  C   UNL     1     -10.341   8.921  68.971  1.00  0.00    -0.226 A  
HETATM   22  C   UNL     1     -10.115   7.926  68.013  1.00  0.00    -0.235 A  
HETATM   23  C   UNL     1      -9.839   8.288  66.694  1.00  0.00    -0.267 A  
HETATM   24  O   UNL     1      -9.593   7.307  65.768  1.00  0.00    -0.383 OA 
HETATM   25  C   UNL     1      -9.802   9.637  66.319  1.00  0.00    -0.323 A  
HETATM   26  C   UNL     1      -9.507  10.111  64.936  1.00  0.00    -0.289 C  
HETATM   27  C   UNL     1     -10.038  10.621  67.298  1.00  0.00    -0.238 A  
HETATM   28  H   UNL     1      -9.405   7.553  64.870  1.00  0.00     0.000 HD 
HETATM   29  O   UNL     1      -9.490  11.297  64.640  1.00  0.00    -0.226 OA 
HETATM   30  O   UNL     1      -9.252   9.143  64.031  1.00  0.00    -0.009 OA 
ENDBRANCH  18  20
ENDBRANCH  16  18
ENDBRANCH  13  16
ENDBRANCH   7  10
ENDBRANCH   5   6
ENDBRANCH   4   5
TORSDOF 6
ENDMDL
MODEL      199
REMARK 921   NORMALIZED FREE ENERGY PREDICTED BY IDOCK:   -4.85 KCAL/MOL
REMARK 922        TOTAL FREE ENERGY PREDICTED BY IDOCK:   -7.53 KCAL/MOL
REMARK 923 INTER-LIGAND FREE ENERGY PREDICTED BY IDOCK:   -6.69 KCAL/MOL
REMARK 924 INTRA-LIGAND FREE ENERGY PREDICTED BY IDOCK:   -0.84 KCAL/MOL
REMARK 927      BINDING AFFINITY PREDICTED BY RF-SCORE:    0.00 PKD
ROOT
HETATM    1  O   UNL     1      -6.280   3.134  67.905  1.00  0.00    -0.030 OA 
HETATM    2  C   UNL     1      -7.345   3.598  68.593  1.00  0.00    -0.054 C  
HETATM    3  O   UNL     1      -8.415   3.852  68.057  1.00  0.00    -0.091 OA 
HETATM    4  C   UNL     1      -7.097   3.771  70.066  1.00  0.00    -0.041 C  
ENDROOT
BRANCH   4   5
HETATM    5  C   UNL     1      -6.519   5.142  70.370  1.00  0.00    -0.034 C  
BRANCH   5   6
HETATM    6  N   UNL     1      -7.372   6.223  69.921  1.00  0.00    -0.077 N  
HETATM    7  C   UNL     1      -8.286   6.823  70.765  1.00  0.00    -0.128 C  
HETATM    8  H   UNL     1      -7.295   6.550  68.957  1.00  0.00     0.000 HD 
HETATM    9  O   UNL     1      -8.425   6.502  71.940  1.00  0.00    -0.119 OA 
BRANCH   7  10
HETATM   10  C   UNL     1      -9.165   7.865  70.157  1.00  0.00    -0.153 A  
HETATM   11  C   UNL     1     -10.206   8.396  70.928  1.00  0.00    -0.234 A  
HETATM   12  C   UNL     1     -11.098   9.322  70.371  1.00  0.00    -0.300 A  
HETATM   13  C   UNL     1     -10.966   9.751  69.043  1.00  0.00    -0.163 A  
HETATM   14  C   UNL     1      -8.992   8.318  68.844  1.00  0.00    -0.144 A  
HETATM   15  C   UNL     1      -9.893   9.242  68.293  1.00  0.00    -0.179 A  
BRANCH  13  16
HETATM   16  N   UNL     1     -11.961  10.607  68.520  1.00  0.00    -0.794 NA 
HETATM   17  H   UNL     1     -12.958  10.392  68.540  1.00  0.00     0.000 HD 
BRANCH  16  18
HETATM   18  N   UNL     1     -11.492  11.657  68.033  1.00  0.00    -0.322 NA 
HETATM   19  H   UNL     1     -10.927  11.681  67.184  1.00  0.00     0.000 HD 
BRANCH  18  20
HETATM   20  C   UNL     1     -11.825  12.807  68.783  1.00  0.00    -0.307 A  
HETATM   21  C   UNL     1     -11.559  14.117  68.356  1.00  0.00    -0.353 A  
HETATM   22  C   UNL     1     -11.833  15.217  69.176  1.00  0.00    -0.345 A  
HETATM   23  C   UNL     1     -12.369  15.014  70.447  1.00  0.00    -0.348 A  
HETATM   24  O   UNL     1     -12.610  16.097  71.253  1.00  0.00    -0.555 OA 
HETATM   25  C   UNL     1     -12.650  13.719  70.903  1.00  0.00    -0.428 A  
HETATM   26  C   UNL     1     -13.214  13.412  72.249  1.00  0.00    -0.472 C  
HETATM   27  C   UNL     1     -12.371  12.627  70.060  1.00  0.00    -0.164 A  
HETATM   28  H   UNL     1     -12.975  15.959  72.120  1.00  0.00     0.000 HD 
HETATM   29  O   UNL     1     -13.455  12.271  72.613  1.00  0.00    -0.271 OA 
HETATM   30  O   UNL     1     -13.437  14.480  73.044  1.00  0.00    -0.583 OA 
ENDBRANCH  18  20
ENDBRANCH  16  18
ENDBRANCH  13  16
ENDBRANCH   7  10
ENDBRANCH   5   6
ENDBRANCH   4   5
TORSDOF 6
ENDMDL
MODEL      200
REMARK 921   NORMALIZED FREE ENERGY PREDICTED BY IDOCK:   -4.83 KCAL/MOL
REMARK 922        TOTAL FREE ENERGY PREDICTED BY IDOCK:   -7.51 KCAL/MOL
REMARK 923 INTER-LIGAND FREE ENERGY PREDICTED BY IDOCK:   -6.42 KCAL/MOL
REMARK 924 INTRA-LIGAND FREE ENERGY PREDICTED BY IDOCK:   -1.09 KCAL/MOL
REMARK 927      BINDING AFFINITY PREDICTED BY RF-SCORE:    0.00 PKD
ROOT
HETATM    1  O   UNL     1     -11.414   6.473  72.830  1.00  0.00    -0.189 OA 
HETATM    2  C   UNL     1     -10.087   6.709  72.738  1.00  0.00    -0.177 C  
HETATM    3  O   UNL     1      -9.597   7.805  72.967  1.00  0.00    -0.207 OA 
HETATM    4  C   UNL     1      -9.277   5.509  72.333  1.00  0.00    -0.153 C  
ENDROOT
BRANCH   4   5
HETATM    5  C   UNL     1      -9.188   5.389  70.821  1.00  0.00    -0.149 C  
BRANCH   5   6
HETATM    6  N   UNL     1      -9.755   6.532  70.133  1.00  0.00    -0.166 N  
HETATM    7  C   UNL     1      -8.997   7.312  69.281  1.00  0.00    -0.135 C  
HETATM    8  H   UNL     1     -10.736   6.765  70.282  1.00  0.00     0.000 HD 
HETATM    9  O   UNL     1      -7.818   7.086  69.034  1.00  0.00    -0.110 OA 
BRANCH   7  10
HETATM   10  C   UNL     1      -9.675   8.510  68.703  1.00  0.00    -0.171 A  
HETATM   11  C   UNL     1      -9.567   8.741  67.326  1.00  0.00    -0.214 A  
HETATM   12  C   UNL     1     -10.126   9.892  66.755  1.00  0.00    -0.292 A  
HETATM   13  C   UNL     1     -10.814  10.830  67.536  1.00  0.00    -0.288 A  
HETATM   14  C   UNL     1     -10.399   9.414  69.489  1.00  0.00    -0.223 A  
HETATM   15  C   UNL     1     -10.951  10.567  68.910  1.00  0.00    -0.291 A  
BRANCH  13  16
HETATM   16  N   UNL     1     -11.262  12.015  66.910  1.00  0.00    -0.301 NA 
HETATM   17  H   UNL     1     -12.189  12.415  67.056  1.00  0.00     0.000 HD 
BRANCH  16  18
HETATM   18  N   UNL     1     -10.402  12.522  66.159  1.00  0.00    -0.248 NA 
HETATM   19  H   UNL     1      -9.586  12.017  65.813  1.00  0.00     0.000 HD 
BRANCH  18  20
HETATM   20  C   UNL     1     -10.680  13.870  65.839  1.00  0.00    -0.286 A  
HETATM   21  C   UNL     1     -11.336  14.271  64.665  1.00  0.00    -0.375 A  
HETATM   22  C   UNL     1     -11.510  15.625  64.357  1.00  0.00    -0.266 A  
HETATM   23  C   UNL     1     -11.016  16.599  65.224  1.00  0.00    -0.120 A  
HETATM   24  O   UNL     1     -11.169  17.923  64.901  1.00  0.00    -0.660 OA 
HETATM   25  C   UNL     1     -10.360  16.233  66.407  1.00  0.00    -0.319 A  
HETATM   26  C   UNL     1      -9.793  17.208  67.383  1.00  0.00    -0.264 C  
HETATM   27  C   UNL     1     -10.199  14.865  66.699  1.00  0.00    -0.264 A  
HETATM   28  H   UNL     1     -10.832  18.587  65.491  1.00  0.00     0.000 HD 
HETATM   29  O   UNL     1      -9.233  16.855  68.410  1.00  0.00    -0.236 OA 
HETATM   30  O   UNL     1      -9.935  18.510  67.054  1.00  0.00    -0.313 OA 
ENDBRANCH  18  20
ENDBRANCH  16  18
ENDBRANCH  13  16
ENDBRANCH   7  10
ENDBRANCH   5   6
ENDBRANCH   4   5
TORSDOF 6
ENDMDL
MODEL      201
REMARK 921   NORMALIZED FREE ENERGY PREDICTED BY IDOCK:   -4.82 KCAL/MOL
REMARK 922        TOTAL FREE ENERGY PREDICTED BY IDOCK:   -7.50 KCAL/MOL
REMARK 923 INTER-LIGAND FREE ENERGY PREDICTED BY IDOCK:   -6.73 KCAL/MOL
REMARK 924 INTRA-LIGAND FREE ENERGY PREDICTED BY IDOCK:   -0.76 KCAL/MOL
REMARK 927      BINDING AFFINITY PREDICTED BY RF-SCORE:    0.00 PKD
ROOT
HETATM    1  O   UNL     1     -11.784  16.546  71.953  1.00  0.00    -0.458 OA 
HETATM    2  C   UNL     1     -12.530  16.269  73.044  1.00  0.00    -0.439 C  
HETATM    3  O   UNL     1     -12.163  16.543  74.178  1.00  0.00    -0.495 OA 
HETATM    4  C   UNL     1     -13.841  15.599  72.738  1.00  0.00    -0.628 C  
ENDROOT
BRANCH   4   5
HETATM    5  C   UNL     1     -13.686  14.090  72.671  1.00  0.00    -0.477 C  
BRANCH   5   6
HETATM    6  N   UNL     1     -12.955  13.652  71.500  1.00  0.00    -0.354 N  
HETATM    7  C   UNL     1     -12.794  12.311  71.206  1.00  0.00    -0.239 C  
HETATM    8  H   UNL     1     -12.549  14.350  70.876  1.00  0.00     0.000 HD 
HETATM    9  O   UNL     1     -13.268  11.413  71.892  1.00  0.00    -0.484 OA 
BRANCH   7  10
HETATM   10  C   UNL     1     -11.947  11.990  70.020  1.00  0.00    -0.400 A  
HETATM   11  C   UNL     1     -11.383  10.713  69.926  1.00  0.00    -0.386 A  
HETATM   12  C   UNL     1     -10.522  10.394  68.867  1.00  0.00    -0.232 A  
HETATM   13  C   UNL     1     -10.216  11.332  67.872  1.00  0.00    -0.181 A  
HETATM   14  C   UNL     1     -11.688  12.924  69.009  1.00  0.00    -0.375 A  
HETATM   15  C   UNL     1     -10.821  12.598  67.954  1.00  0.00    -0.244 A  
BRANCH  13  16
HETATM   16  N   UNL     1      -9.263  10.974  66.892  1.00  0.00    -0.154 NA 
HETATM   17  H   UNL     1      -9.352  11.212  65.905  1.00  0.00     0.000 HD 
BRANCH  16  18
HETATM   18  N   UNL     1      -8.299  10.334  67.363  1.00  0.00    -0.118 NA 
HETATM   19  H   UNL     1      -7.656  10.713  68.058  1.00  0.00     0.000 HD 
BRANCH  18  20
HETATM   20  C   UNL     1      -8.193   9.030  66.829  1.00  0.00    -0.115 A  
HETATM   21  C   UNL     1      -8.129   7.871  67.618  1.00  0.00    -0.124 A  
HETATM   22  C   UNL     1      -7.939   6.611  67.041  1.00  0.00    -0.109 A  
HETATM   23  C   UNL     1      -7.799   6.498  65.658  1.00  0.00    -0.100 A  
HETATM   24  O   UNL     1      -7.587   5.262  65.104  1.00  0.00    -0.078 OA 
HETATM   25  C   UNL     1      -7.862   7.635  64.841  1.00  0.00    -0.128 A  
HETATM   26  C   UNL     1      -7.714   7.607  63.358  1.00  0.00    -0.130 C  
HETATM   27  C   UNL     1      -8.058   8.893  65.443  1.00  0.00    -0.119 A  
HETATM   28  H   UNL     1      -7.491   5.185  64.162  1.00  0.00     0.000 HD 
HETATM   29  O   UNL     1      -7.782   8.617  62.673  1.00  0.00    -0.110 OA 
HETATM   30  O   UNL     1      -7.492   6.389  62.818  1.00  0.00    -0.056 OA 
ENDBRANCH  18  20
ENDBRANCH  16  18
ENDBRANCH  13  16
ENDBRANCH   7  10
ENDBRANCH   5   6
ENDBRANCH   4   5
TORSDOF 6
ENDMDL
MODEL      202
REMARK 921   NORMALIZED FREE ENERGY PREDICTED BY IDOCK:   -4.82 KCAL/MOL
REMARK 922        TOTAL FREE ENERGY PREDICTED BY IDOCK:   -7.49 KCAL/MOL
REMARK 923 INTER-LIGAND FREE ENERGY PREDICTED BY IDOCK:   -6.58 KCAL/MOL
REMARK 924 INTRA-LIGAND FREE ENERGY PREDICTED BY IDOCK:   -0.91 KCAL/MOL
REMARK 927      BINDING AFFINITY PREDICTED BY RF-SCORE:    0.00 PKD
ROOT
HETATM    1  O   UNL     1      -9.056  18.997  68.136  1.00  0.00    -0.299 OA 
HETATM    2  C   UNL     1      -9.995  18.045  67.948  1.00  0.00    -0.331 C  
HETATM    3  O   UNL     1     -10.310  17.250  68.823  1.00  0.00    -0.326 OA 
HETATM    4  C   UNL     1     -10.611  18.052  66.577  1.00  0.00    -0.263 C  
ENDROOT
BRANCH   4   5
HETATM    5  C   UNL     1      -9.805  17.207  65.606  1.00  0.00     0.047 C  
BRANCH   5   6
HETATM    6  N   UNL     1      -9.767  15.807  65.976  1.00  0.00    -0.318 N  
HETATM    7  C   UNL     1     -10.495  14.856  65.286  1.00  0.00    -0.404 C  
HETATM    8  H   UNL     1      -9.189  15.516  66.764  1.00  0.00     0.000 HD 
HETATM    9  O   UNL     1     -11.195  15.121  64.316  1.00  0.00    -0.199 OA 
BRANCH   7  10
HETATM   10  C   UNL     1     -10.439  13.463  65.821  1.00  0.00    -0.291 A  
HETATM   11  C   UNL     1      -9.629  13.205  66.932  1.00  0.00    -0.248 A  
HETATM   12  C   UNL     1      -9.491  11.899  67.420  1.00  0.00    -0.175 A  
HETATM   13  C   UNL     1     -10.166  10.825  66.823  1.00  0.00    -0.230 A  
HETATM   14  C   UNL     1     -11.156  12.410  65.242  1.00  0.00    -0.342 A  
HETATM   15  C   UNL     1     -11.008  11.103  65.734  1.00  0.00    -0.160 A  
BRANCH  13  16
HETATM   16  N   UNL     1      -9.900   9.523  67.305  1.00  0.00    -0.167 NA 
HETATM   17  H   UNL     1     -10.181   8.673  66.816  1.00  0.00     0.000 HD 
BRANCH  16  18
HETATM   18  N   UNL     1      -9.285   9.524  68.392  1.00  0.00    -0.130 NA 
HETATM   19  H   UNL     1      -8.334   9.876  68.502  1.00  0.00     0.000 HD 
BRANCH  18  20
HETATM   20  C   UNL     1     -10.045   8.982  69.452  1.00  0.00    -0.198 A  
HETATM   21  C   UNL     1     -10.866   9.752  70.291  1.00  0.00    -0.356 A  
HETATM   22  C   UNL     1     -11.531   9.178  71.380  1.00  0.00    -0.420 A  
HETATM   23  C   UNL     1     -11.371   7.819  71.649  1.00  0.00    -0.253 A  
HETATM   24  O   UNL     1     -12.007   7.271  72.734  1.00  0.00    -0.532 OA 
HETATM   25  C   UNL     1     -10.562   7.021  70.829  1.00  0.00    -0.240 A  
HETATM   26  C   UNL     1     -10.329   5.565  71.050  1.00  0.00    -0.239 C  
HETATM   27  C   UNL     1      -9.905   7.619  69.736  1.00  0.00    -0.181 A  
HETATM   28  H   UNL     1     -11.897   6.345  72.918  1.00  0.00     0.000 HD 
HETATM   29  O   UNL     1      -9.622   4.896  70.310  1.00  0.00    -0.161 OA 
HETATM   30  O   UNL     1     -10.946   5.033  72.126  1.00  0.00    -0.162 OA 
ENDBRANCH  18  20
ENDBRANCH  16  18
ENDBRANCH  13  16
ENDBRANCH   7  10
ENDBRANCH   5   6
ENDBRANCH   4   5
TORSDOF 6
ENDMDL
MODEL      203
REMARK 921   NORMALIZED FREE ENERGY PREDICTED BY IDOCK:   -4.81 KCAL/MOL
REMARK 922        TOTAL FREE ENERGY PREDICTED BY IDOCK:   -7.49 KCAL/MOL
REMARK 923 INTER-LIGAND FREE ENERGY PREDICTED BY IDOCK:   -6.89 KCAL/MOL
REMARK 924 INTRA-LIGAND FREE ENERGY PREDICTED BY IDOCK:   -0.60 KCAL/MOL
REMARK 927      BINDING AFFINITY PREDICTED BY RF-SCORE:    0.00 PKD
ROOT
HETATM    1  O   UNL     1     -11.826  16.094  72.283  1.00  0.00    -0.486 OA 
HETATM    2  C   UNL     1     -12.990  15.850  72.922  1.00  0.00    -0.499 C  
HETATM    3  O   UNL     1     -13.240  16.305  74.030  1.00  0.00    -0.651 OA 
HETATM    4  C   UNL     1     -13.942  14.976  72.154  1.00  0.00    -0.610 C  
ENDROOT
BRANCH   4   5
HETATM    5  C   UNL     1     -13.681  13.505  72.426  1.00  0.00    -0.602 C  
BRANCH   5   6
HETATM    6  N   UNL     1     -13.016  12.839  71.324  1.00  0.00    -0.284 N  
HETATM    7  C   UNL     1     -12.859  11.467  71.296  1.00  0.00    -0.379 C  
HETATM    8  H   UNL     1     -12.655  13.398  70.550  1.00  0.00     0.000 HD 
HETATM    9  O   UNL     1     -13.282  10.725  72.175  1.00  0.00    -0.473 OA 
BRANCH   7  10
HETATM   10  C   UNL     1     -12.080  10.913  70.149  1.00  0.00    -0.431 A  
HETATM   11  C   UNL     1     -11.594   9.603  70.241  1.00  0.00    -0.255 A  
HETATM   12  C   UNL     1     -10.797   9.071  69.218  1.00  0.00    -0.131 A  
HETATM   13  C   UNL     1     -10.479   9.822  68.079  1.00  0.00    -0.226 A  
HETATM   14  C   UNL     1     -11.810  11.659  68.996  1.00  0.00    -0.391 A  
HETATM   15  C   UNL     1     -11.007  11.120  67.979  1.00  0.00    -0.307 A  
BRANCH  13  16
HETATM   16  N   UNL     1      -9.588   9.256  67.139  1.00  0.00    -0.151 NA 
HETATM   17  H   UNL     1      -9.881   8.621  66.396  1.00  0.00     0.000 HD 
BRANCH  16  18
HETATM   18  N   UNL     1      -8.405   9.615  67.312  1.00  0.00    -0.114 NA 
HETATM   19  H   UNL     1      -7.961  10.369  66.788  1.00  0.00     0.000 HD 
BRANCH  18  20
HETATM   20  C   UNL     1      -7.746   8.866  68.313  1.00  0.00    -0.096 A  
HETATM   21  C   UNL     1      -7.799   7.467  68.397  1.00  0.00    -0.122 A  
HETATM   22  C   UNL     1      -7.198   6.780  69.458  1.00  0.00    -0.081 A  
HETATM   23  C   UNL     1      -6.542   7.494  70.459  1.00  0.00    -0.042 A  
HETATM   24  O   UNL     1      -5.978   6.815  71.508  1.00  0.00    -0.036 OA 
HETATM   25  C   UNL     1      -6.467   8.893  70.403  1.00  0.00    -0.043 A  
HETATM   26  C   UNL     1      -5.794   9.734  71.434  1.00  0.00    -0.024 C  
HETATM   27  C   UNL     1      -7.075   9.563  69.325  1.00  0.00    -0.058 A  
HETATM   28  H   UNL     1      -5.531   7.302  72.191  1.00  0.00     0.000 HD 
HETATM   29  O   UNL     1      -5.740  10.952  71.352  1.00  0.00    -0.339 OA 
HETATM   30  O   UNL     1      -5.252   9.061  72.472  1.00  0.00    -0.057 OA 
ENDBRANCH  18  20
ENDBRANCH  16  18
ENDBRANCH  13  16
ENDBRANCH   7  10
ENDBRANCH   5   6
ENDBRANCH   4   5
TORSDOF 6
ENDMDL
MODEL      204
REMARK 921   NORMALIZED FREE ENERGY PREDICTED BY IDOCK:   -4.81 KCAL/MOL
REMARK 922        TOTAL FREE ENERGY PREDICTED BY IDOCK:   -7.49 KCAL/MOL
REMARK 923 INTER-LIGAND FREE ENERGY PREDICTED BY IDOCK:   -6.43 KCAL/MOL
REMARK 924 INTRA-LIGAND FREE ENERGY PREDICTED BY IDOCK:   -1.05 KCAL/MOL
REMARK 927      BINDING AFFINITY PREDICTED BY RF-SCORE:    0.00 PKD
ROOT
HETATM    1  O   UNL     1      -7.536  19.096  66.327  1.00  0.00    -0.247 OA 
HETATM    2  C   UNL     1      -8.558  19.745  66.924  1.00  0.00    -0.329 C  
HETATM    3  O   UNL     1      -8.657  19.842  68.139  1.00  0.00    -0.317 OA 
HETATM    4  C   UNL     1      -9.555  20.333  65.964  1.00  0.00    -0.321 C  
ENDROOT
BRANCH   4   5
HETATM    5  C   UNL     1     -10.631  19.325  65.600  1.00  0.00    -0.258 C  
BRANCH   5   6
HETATM    6  N   UNL     1     -10.305  17.978  66.024  1.00  0.00    -0.379 N  
HETATM    7  C   UNL     1     -10.722  16.873  65.308  1.00  0.00    -0.134 C  
HETATM    8  H   UNL     1      -9.754  17.843  66.871  1.00  0.00     0.000 HD 
HETATM    9  O   UNL     1     -11.369  16.951  64.269  1.00  0.00    -1.202 OA 
BRANCH   7  10
HETATM   10  C   UNL     1     -10.396  15.540  65.897  1.00  0.00    -0.365 A  
HETATM   11  C   UNL     1     -11.184  14.440  65.541  1.00  0.00    -0.330 A  
HETATM   12  C   UNL     1     -10.958  13.187  66.126  1.00  0.00    -0.299 A  
HETATM   13  C   UNL     1      -9.936  12.999  67.066  1.00  0.00    -0.242 A  
HETATM   14  C   UNL     1      -9.341  15.358  66.798  1.00  0.00    -0.267 A  
HETATM   15  C   UNL     1      -9.124  14.101  67.384  1.00  0.00    -0.199 A  
BRANCH  13  16
HETATM   16  N   UNL     1      -9.831  11.734  67.689  1.00  0.00    -0.182 NA 
HETATM   17  H   UNL     1     -10.373  10.919  67.403  1.00  0.00     0.000 HD 
BRANCH  16  18
HETATM   18  N   UNL     1      -9.006  11.721  68.626  1.00  0.00    -0.345 NA 
HETATM   19  H   UNL     1      -8.872  12.499  69.272  1.00  0.00     0.000 HD 
BRANCH  18  20
HETATM   20  C   UNL     1      -8.276  10.513  68.696  1.00  0.00    -0.130 A  
HETATM   21  C   UNL     1      -7.482  10.023  67.648  1.00  0.00    -0.090 A  
HETATM   22  C   UNL     1      -6.848   8.779  67.738  1.00  0.00    -0.070 A  
HETATM   23  C   UNL     1      -7.014   8.001  68.883  1.00  0.00    -0.062 A  
HETATM   24  O   UNL     1      -6.410   6.772  68.952  1.00  0.00    -0.029 OA 
HETATM   25  C   UNL     1      -7.797   8.462  69.950  1.00  0.00    -0.101 A  
HETATM   26  C   UNL     1      -8.034   7.692  71.205  1.00  0.00    -0.091 C  
HETATM   27  C   UNL     1      -8.422   9.719  69.840  1.00  0.00    -0.217 A  
HETATM   28  H   UNL     1      -6.523   6.242  69.732  1.00  0.00     0.000 HD 
HETATM   29  O   UNL     1      -8.718   8.127  72.120  1.00  0.00    -0.141 OA 
HETATM   30  O   UNL     1      -7.448   6.477  71.262  1.00  0.00    -0.085 OA 
ENDBRANCH  18  20
ENDBRANCH  16  18
ENDBRANCH  13  16
ENDBRANCH   7  10
ENDBRANCH   5   6
ENDBRANCH   4   5
TORSDOF 6
ENDMDL
MODEL      205
REMARK 921   NORMALIZED FREE ENERGY PREDICTED BY IDOCK:   -4.79 KCAL/MOL
REMARK 922        TOTAL FREE ENERGY PREDICTED BY IDOCK:   -7.46 KCAL/MOL
REMARK 923 INTER-LIGAND FREE ENERGY PREDICTED BY IDOCK:   -6.62 KCAL/MOL
REMARK 924 INTRA-LIGAND FREE ENERGY PREDICTED BY IDOCK:   -0.84 KCAL/MOL
REMARK 927      BINDING AFFINITY PREDICTED BY RF-SCORE:    0.00 PKD
ROOT
HETATM    1  O   UNL     1     -10.321  17.950  68.584  1.00  0.00    -0.367 OA 
HETATM    2  C   UNL     1     -10.455  18.523  67.368  1.00  0.00    -0.419 C  
HETATM    3  O   UNL     1     -11.244  19.432  67.153  1.00  0.00    -0.351 OA 
HETATM    4  C   UNL     1      -9.552  17.945  66.314  1.00  0.00    -0.252 C  
ENDROOT
BRANCH   4   5
HETATM    5  C   UNL     1     -10.195  16.749  65.633  1.00  0.00    -0.236 C  
BRANCH   5   6
HETATM    6  N   UNL     1     -10.012  15.516  66.372  1.00  0.00    -0.267 N  
HETATM    7  C   UNL     1     -11.022  14.579  66.479  1.00  0.00    -0.321 C  
HETATM    8  H   UNL     1      -9.116  15.336  66.825  1.00  0.00     0.000 HD 
HETATM    9  O   UNL     1     -12.119  14.712  65.949  1.00  0.00    -0.315 OA 
BRANCH   7  10
HETATM   10  C   UNL     1     -10.737  13.394  67.340  1.00  0.00    -0.269 A  
HETATM   11  C   UNL     1      -9.408  12.983  67.496  1.00  0.00    -0.200 A  
HETATM   12  C   UNL     1      -9.104  11.832  68.235  1.00  0.00    -0.187 A  
HETATM   13  C   UNL     1     -10.111  11.075  68.847  1.00  0.00    -0.199 A  
HETATM   14  C   UNL     1     -11.750  12.674  67.984  1.00  0.00    -0.402 A  
HETATM   15  C   UNL     1     -11.437  11.520  68.719  1.00  0.00    -0.349 A  
BRANCH  13  16
HETATM   16  N   UNL     1      -9.739   9.872  69.490  1.00  0.00    -0.208 NA 
HETATM   17  H   UNL     1      -8.799   9.687  69.839  1.00  0.00     0.000 HD 
BRANCH  16  18
HETATM   18  N   UNL     1     -10.684   9.061  69.588  1.00  0.00    -0.237 NA 
HETATM   19  H   UNL     1     -11.596   9.301  69.976  1.00  0.00     0.000 HD 
BRANCH  18  20
HETATM   20  C   UNL     1     -10.354   7.775  69.104  1.00  0.00    -0.215 A  
HETATM   21  C   UNL     1     -10.245   7.463  67.741  1.00  0.00    -0.250 A  
HETATM   22  C   UNL     1      -9.999   6.153  67.314  1.00  0.00    -0.174 A  
HETATM   23  C   UNL     1      -9.872   5.132  68.255  1.00  0.00    -0.156 A  
HETATM   24  O   UNL     1      -9.657   3.848  67.827  1.00  0.00    -0.182 OA 
HETATM   25  C   UNL     1      -9.972   5.411  69.625  1.00  0.00    -0.297 A  
HETATM   26  C   UNL     1      -9.858   4.380  70.697  1.00  0.00    -0.210 C  
HETATM   27  C   UNL     1     -10.215   6.737  70.033  1.00  0.00    -0.211 A  
HETATM   28  H   UNL     1      -9.571   3.152  68.468  1.00  0.00     0.000 HD 
HETATM   29  O   UNL     1      -9.943   4.658  71.884  1.00  0.00    -0.175 OA 
HETATM   30  O   UNL     1      -9.660   3.115  70.270  1.00  0.00    -0.169 OA 
ENDBRANCH  18  20
ENDBRANCH  16  18
ENDBRANCH  13  16
ENDBRANCH   7  10
ENDBRANCH   5   6
ENDBRANCH   4   5
TORSDOF 6
ENDMDL
MODEL      206
REMARK 921   NORMALIZED FREE ENERGY PREDICTED BY IDOCK:   -4.79 KCAL/MOL
REMARK 922        TOTAL FREE ENERGY PREDICTED BY IDOCK:   -7.45 KCAL/MOL
REMARK 923 INTER-LIGAND FREE ENERGY PREDICTED BY IDOCK:   -6.62 KCAL/MOL
REMARK 924 INTRA-LIGAND FREE ENERGY PREDICTED BY IDOCK:   -0.83 KCAL/MOL
REMARK 927      BINDING AFFINITY PREDICTED BY RF-SCORE:    0.00 PKD
ROOT
HETATM    1  O   UNL     1      -8.465   6.465  72.529  1.00  0.00    -0.123 OA 
HETATM    2  C   UNL     1      -8.617   5.125  72.464  1.00  0.00    -0.121 C  
HETATM    3  O   UNL     1      -7.802   4.347  72.939  1.00  0.00    -0.084 OA 
HETATM    4  C   UNL     1      -9.869   4.682  71.759  1.00  0.00    -0.247 C  
ENDROOT
BRANCH   4   5
HETATM    5  C   UNL     1      -9.645   4.559  70.262  1.00  0.00    -0.193 C  
BRANCH   5   6
HETATM    6  N   UNL     1      -9.386   5.835  69.626  1.00  0.00    -0.137 N  
HETATM    7  C   UNL     1     -10.414   6.675  69.244  1.00  0.00    -0.214 C  
HETATM    8  H   UNL     1      -8.421   6.120  69.456  1.00  0.00     0.000 HD 
HETATM    9  O   UNL     1     -11.597   6.415  69.431  1.00  0.00    -0.382 OA 
BRANCH   7  10
HETATM   10  C   UNL     1     -10.018   7.920  68.520  1.00  0.00    -0.200 A  
HETATM   11  C   UNL     1     -10.417   8.074  67.187  1.00  0.00    -0.408 A  
HETATM   12  C   UNL     1     -10.005   9.193  66.450  1.00  0.00    -0.358 A  
HETATM   13  C   UNL     1      -9.201  10.186  67.025  1.00  0.00    -0.146 A  
HETATM   14  C   UNL     1      -9.255   8.926  69.123  1.00  0.00    -0.144 A  
HETATM   15  C   UNL     1      -8.842  10.040  68.376  1.00  0.00    -0.117 A  
BRANCH  13  16
HETATM   16  N   UNL     1      -8.741  11.232  66.194  1.00  0.00    -0.187 NA 
HETATM   17  H   UNL     1      -7.759  11.495  66.109  1.00  0.00     0.000 HD 
BRANCH  16  18
HETATM   18  N   UNL     1      -9.664  11.801  65.573  1.00  0.00    -0.229 NA 
HETATM   19  H   UNL     1      -9.936  11.559  64.620  1.00  0.00     0.000 HD 
BRANCH  18  20
HETATM   20  C   UNL     1     -10.290  12.815  66.331  1.00  0.00    -0.258 A  
HETATM   21  C   UNL     1     -11.370  12.584  67.196  1.00  0.00    -0.381 A  
HETATM   22  C   UNL     1     -12.009  13.639  67.858  1.00  0.00    -0.382 A  
HETATM   23  C   UNL     1     -11.576  14.948  67.650  1.00  0.00    -0.339 A  
HETATM   24  O   UNL     1     -12.224  15.977  68.283  1.00  0.00    -0.233 OA 
HETATM   25  C   UNL     1     -10.497  15.213  66.795  1.00  0.00    -0.283 A  
HETATM   26  C   UNL     1      -9.976  16.581  66.510  1.00  0.00    -0.285 C  
HETATM   27  C   UNL     1      -9.867  14.137  66.143  1.00  0.00    -0.326 A  
HETATM   28  H   UNL     1     -11.929  16.869  68.141  1.00  0.00     0.000 HD 
HETATM   29  O   UNL     1      -9.028  16.778  65.764  1.00  0.00    -0.508 OA 
HETATM   30  O   UNL     1     -10.626  17.592  67.125  1.00  0.00    -0.339 OA 
ENDBRANCH  18  20
ENDBRANCH  16  18
ENDBRANCH  13  16
ENDBRANCH   7  10
ENDBRANCH   5   6
ENDBRANCH   4   5
TORSDOF 6
ENDMDL
MODEL      207
REMARK 921   NORMALIZED FREE ENERGY PREDICTED BY IDOCK:   -4.77 KCAL/MOL
REMARK 922        TOTAL FREE ENERGY PREDICTED BY IDOCK:   -7.43 KCAL/MOL
REMARK 923 INTER-LIGAND FREE ENERGY PREDICTED BY IDOCK:   -6.77 KCAL/MOL
REMARK 924 INTRA-LIGAND FREE ENERGY PREDICTED BY IDOCK:   -0.66 KCAL/MOL
REMARK 927      BINDING AFFINITY PREDICTED BY RF-SCORE:    0.00 PKD
ROOT
HETATM    1  O   UNL     1      -7.111   3.361  65.070  1.00  0.00    -0.062 OA 
HETATM    2  C   UNL     1      -8.174   4.084  64.656  1.00  0.00    -0.097 C  
HETATM    3  O   UNL     1      -8.074   4.998  63.850  1.00  0.00    -0.105 OA 
HETATM    4  C   UNL     1      -9.480   3.664  65.272  1.00  0.00    -0.162 C  
ENDROOT
BRANCH   4   5
HETATM    5  C   UNL     1      -9.722   4.378  66.590  1.00  0.00    -0.215 C  
BRANCH   5   6
HETATM    6  N   UNL     1      -9.548   5.813  66.491  1.00  0.00    -0.152 N  
HETATM    7  C   UNL     1     -10.393   6.692  67.143  1.00  0.00    -0.252 C  
HETATM    8  H   UNL     1      -8.784   6.184  65.927  1.00  0.00     0.000 HD 
HETATM    9  O   UNL     1     -11.321   6.325  67.855  1.00  0.00    -0.257 OA 
BRANCH   7  10
HETATM   10  C   UNL     1     -10.161   8.145  66.890  1.00  0.00    -0.387 A  
HETATM   11  C   UNL     1     -10.724   9.075  67.771  1.00  0.00    -0.217 A  
HETATM   12  C   UNL     1     -10.592  10.449  67.528  1.00  0.00    -0.312 A  
HETATM   13  C   UNL     1      -9.887  10.926  66.416  1.00  0.00    -0.207 A  
HETATM   14  C   UNL     1      -9.414   8.605  65.800  1.00  0.00    -0.192 A  
HETATM   15  C   UNL     1      -9.292   9.983  65.562  1.00  0.00    -0.271 A  
BRANCH  13  16
HETATM   16  N   UNL     1      -9.882  12.320  66.181  1.00  0.00    -0.240 NA 
HETATM   17  H   UNL     1      -9.042  12.849  65.946  1.00  0.00     0.000 HD 
BRANCH  16  18
HETATM   18  N   UNL     1     -11.014  12.836  66.290  1.00  0.00    -0.274 NA 
HETATM   19  H   UNL     1     -11.800  12.606  65.682  1.00  0.00     0.000 HD 
BRANCH  18  20
HETATM   20  C   UNL     1     -11.090  13.772  67.345  1.00  0.00    -0.296 A  
HETATM   21  C   UNL     1     -11.699  13.503  68.580  1.00  0.00    -0.389 A  
HETATM   22  C   UNL     1     -11.822  14.495  69.560  1.00  0.00    -0.374 A  
HETATM   23  C   UNL     1     -11.344  15.779  69.306  1.00  0.00    -0.350 A  
HETATM   24  O   UNL     1     -11.493  16.751  70.262  1.00  0.00    -0.374 OA 
HETATM   25  C   UNL     1     -10.728  16.081  68.084  1.00  0.00    -0.311 A  
HETATM   26  C   UNL     1     -10.198  17.428  67.727  1.00  0.00    -0.345 C  
HETATM   27  C   UNL     1     -10.610  15.067  67.114  1.00  0.00    -0.295 A  
HETATM   28  H   UNL     1     -11.167  17.627  70.089  1.00  0.00     0.000 HD 
HETATM   29  O   UNL     1      -9.658  17.656  66.654  1.00  0.00    -0.273 OA 
HETATM   30  O   UNL     1     -10.358  18.385  68.666  1.00  0.00    -0.363 OA 
ENDBRANCH  18  20
ENDBRANCH  16  18
ENDBRANCH  13  16
ENDBRANCH   7  10
ENDBRANCH   5   6
ENDBRANCH   4   5
TORSDOF 6
ENDMDL
MODEL      208
REMARK 921   NORMALIZED FREE ENERGY PREDICTED BY IDOCK:   -4.76 KCAL/MOL
REMARK 922        TOTAL FREE ENERGY PREDICTED BY IDOCK:   -7.42 KCAL/MOL
REMARK 923 INTER-LIGAND FREE ENERGY PREDICTED BY IDOCK:   -6.61 KCAL/MOL
REMARK 924 INTRA-LIGAND FREE ENERGY PREDICTED BY IDOCK:   -0.81 KCAL/MOL
REMARK 927      BINDING AFFINITY PREDICTED BY RF-SCORE:    0.00 PKD
ROOT
HETATM    1  O   UNL     1      -7.827   2.979  65.061  1.00  0.00    -0.080 OA 
HETATM    2  C   UNL     1      -8.584   3.923  64.462  1.00  0.00    -0.107 C  
HETATM    3  O   UNL     1      -8.110   4.775  63.724  1.00  0.00    -0.093 OA 
HETATM    4  C   UNL     1     -10.049   3.831  64.784  1.00  0.00    -0.172 C  
ENDROOT
BRANCH   4   5
HETATM    5  C   UNL     1     -10.386   4.604  66.047  1.00  0.00    -0.284 C  
BRANCH   5   6
HETATM    6  N   UNL     1     -10.104   6.020  65.930  1.00  0.00    -0.376 N  
HETATM    7  C   UNL     1     -10.364   6.898  66.966  1.00  0.00    -0.278 C  
HETATM    8  H   UNL     1      -9.704   6.378  65.063  1.00  0.00     0.000 HD 
HETATM    9  O   UNL     1     -10.824   6.544  68.045  1.00  0.00    -0.252 OA 
BRANCH   7  10
HETATM   10  C   UNL     1     -10.111   8.343  66.688  1.00  0.00    -0.358 A  
HETATM   11  C   UNL     1      -9.286   8.683  65.610  1.00  0.00    -0.204 A  
HETATM   12  C   UNL     1      -8.964  10.024  65.360  1.00  0.00    -0.213 A  
HETATM   13  C   UNL     1      -9.465  11.054  66.166  1.00  0.00    -0.203 A  
HETATM   14  C   UNL     1     -10.658   9.363  67.475  1.00  0.00    -0.333 A  
HETATM   15  C   UNL     1     -10.326  10.703  67.220  1.00  0.00    -0.265 A  
BRANCH  13  16
HETATM   16  N   UNL     1      -9.017  12.371  65.916  1.00  0.00    -0.420 NA 
HETATM   17  H   UNL     1      -9.114  12.837  65.014  1.00  0.00     0.000 HD 
BRANCH  16  18
HETATM   18  N   UNL     1      -8.492  12.904  66.916  1.00  0.00    -0.375 NA 
HETATM   19  H   UNL     1      -7.676  12.522  67.396  1.00  0.00     0.000 HD 
BRANCH  18  20
HETATM   20  C   UNL     1      -9.147  14.091  67.312  1.00  0.00    -0.220 A  
HETATM   21  C   UNL     1      -8.861  15.353  66.770  1.00  0.00    -0.300 A  
HETATM   22  C   UNL     1      -9.480  16.510  67.260  1.00  0.00    -0.237 A  
HETATM   23  C   UNL     1     -10.388  16.414  68.313  1.00  0.00    -0.279 A  
HETATM   24  O   UNL     1     -10.969  17.555  68.802  1.00  0.00    -0.260 OA 
HETATM   25  C   UNL     1     -10.698  15.168  68.874  1.00  0.00    -0.240 A  
HETATM   26  C   UNL     1     -11.650  14.976  70.007  1.00  0.00    -0.287 C  
HETATM   27  C   UNL     1     -10.068  14.017  68.364  1.00  0.00    -0.236 A  
HETATM   28  H   UNL     1     -11.588  17.490  69.521  1.00  0.00     0.000 HD 
HETATM   29  O   UNL     1     -11.904  13.874  70.469  1.00  0.00    -0.302 OA 
HETATM   30  O   UNL     1     -12.209  16.104  70.494  1.00  0.00    -0.238 OA 
ENDBRANCH  18  20
ENDBRANCH  16  18
ENDBRANCH  13  16
ENDBRANCH   7  10
ENDBRANCH   5   6
ENDBRANCH   4   5
TORSDOF 6
ENDMDL
MODEL      209
REMARK 921   NORMALIZED FREE ENERGY PREDICTED BY IDOCK:   -4.76 KCAL/MOL
REMARK 922        TOTAL FREE ENERGY PREDICTED BY IDOCK:   -7.42 KCAL/MOL
REMARK 923 INTER-LIGAND FREE ENERGY PREDICTED BY IDOCK:   -6.40 KCAL/MOL
REMARK 924 INTRA-LIGAND FREE ENERGY PREDICTED BY IDOCK:   -1.02 KCAL/MOL
REMARK 927      BINDING AFFINITY PREDICTED BY RF-SCORE:    0.00 PKD
ROOT
HETATM    1  O   UNL     1      -7.489   6.327  64.248  1.00  0.00    -0.072 OA 
HETATM    2  C   UNL     1      -6.537   5.535  64.787  1.00  0.00    -0.043 C  
HETATM    3  O   UNL     1      -6.660   4.321  64.868  1.00  0.00    -0.041 OA 
HETATM    4  C   UNL     1      -5.324   6.278  65.274  1.00  0.00    -0.017 C  
ENDROOT
BRANCH   4   5
HETATM    5  C   UNL     1      -5.504   6.748  66.707  1.00  0.00    -0.017 C  
BRANCH   5   6
HETATM    6  N   UNL     1      -6.724   7.504  66.900  1.00  0.00    -0.064 N  
HETATM    7  C   UNL     1      -7.084   7.993  68.142  1.00  0.00    -0.089 C  
HETATM    8  H   UNL     1      -7.333   7.680  66.101  1.00  0.00     0.000 HD 
HETATM    9  O   UNL     1      -6.397   7.843  69.146  1.00  0.00    -0.035 OA 
BRANCH   7  10
HETATM   10  C   UNL     1      -8.406   8.680  68.226  1.00  0.00    -0.127 A  
HETATM   11  C   UNL     1      -9.326   8.490  67.188  1.00  0.00    -0.191 A  
HETATM   12  C   UNL     1     -10.549   9.174  67.192  1.00  0.00    -0.286 A  
HETATM   13  C   UNL     1     -10.890  10.048  68.233  1.00  0.00    -0.241 A  
HETATM   14  C   UNL     1      -8.751   9.514  69.296  1.00  0.00    -0.151 A  
HETATM   15  C   UNL     1      -9.976  10.199  69.289  1.00  0.00    -0.234 A  
BRANCH  13  16
HETATM   16  N   UNL     1     -12.094  10.779  68.119  1.00  0.00    -0.759 NA 
HETATM   17  H   UNL     1     -12.967  10.377  67.776  1.00  0.00     0.000 HD 
BRANCH  16  18
HETATM   18  N   UNL     1     -11.977  11.968  68.481  1.00  0.00    -0.382 NA 
HETATM   19  H   UNL     1     -11.947  12.260  69.459  1.00  0.00     0.000 HD 
BRANCH  18  20
HETATM   20  C   UNL     1     -11.892  12.867  67.395  1.00  0.00    -0.360 A  
HETATM   21  C   UNL     1     -12.165  12.507  66.066  1.00  0.00    -0.263 A  
HETATM   22  C   UNL     1     -11.983  13.415  65.017  1.00  0.00    -0.405 A  
HETATM   23  C   UNL     1     -11.510  14.699  65.288  1.00  0.00    -0.361 A  
HETATM   24  O   UNL     1     -11.310  15.572  64.251  1.00  0.00    -0.714 OA 
HETATM   25  C   UNL     1     -11.231  15.091  66.604  1.00  0.00    -0.311 A  
HETATM   26  C   UNL     1     -10.715  16.438  66.982  1.00  0.00    -0.217 C  
HETATM   27  C   UNL     1     -11.426  14.163  67.645  1.00  0.00    -0.364 A  
HETATM   28  H   UNL     1     -10.987  16.447  64.436  1.00  0.00     0.000 HD 
HETATM   29  O   UNL     1     -10.488  16.751  68.142  1.00  0.00    -0.299 OA 
HETATM   30  O   UNL     1     -10.506  17.291  65.956  1.00  0.00    -0.356 OA 
ENDBRANCH  18  20
ENDBRANCH  16  18
ENDBRANCH  13  16
ENDBRANCH   7  10
ENDBRANCH   5   6
ENDBRANCH   4   5
TORSDOF 6
ENDMDL
MODEL      210
REMARK 921   NORMALIZED FREE ENERGY PREDICTED BY IDOCK:   -4.75 KCAL/MOL
REMARK 922        TOTAL FREE ENERGY PREDICTED BY IDOCK:   -7.40 KCAL/MOL
REMARK 923 INTER-LIGAND FREE ENERGY PREDICTED BY IDOCK:   -6.51 KCAL/MOL
REMARK 924 INTRA-LIGAND FREE ENERGY PREDICTED BY IDOCK:   -0.89 KCAL/MOL
REMARK 927      BINDING AFFINITY PREDICTED BY RF-SCORE:    0.00 PKD
ROOT
HETATM    1  O   UNL     1      -9.492  18.505  68.875  1.00  0.00    -0.315 OA 
HETATM    2  C   UNL     1     -10.450  17.917  68.128  1.00  0.00    -0.372 C  
HETATM    3  O   UNL     1     -11.213  17.075  68.580  1.00  0.00    -0.250 OA 
HETATM    4  C   UNL     1     -10.492  18.389  66.701  1.00  0.00    -0.415 C  
ENDROOT
BRANCH   4   5
HETATM    5  C   UNL     1      -9.551  17.580  65.825  1.00  0.00     0.140 C  
BRANCH   5   6
HETATM    6  N   UNL     1      -9.552  16.169  66.153  1.00  0.00    -0.304 N  
HETATM    7  C   UNL     1     -10.422  15.285  65.545  1.00  0.00    -0.374 C  
HETATM    8  H   UNL     1      -8.893  15.820  66.850  1.00  0.00     0.000 HD 
HETATM    9  O   UNL     1     -11.228  15.622  64.685  1.00  0.00    -0.435 OA 
BRANCH   7  10
HETATM   10  C   UNL     1     -10.382  13.875  66.033  1.00  0.00    -0.310 A  
HETATM   11  C   UNL     1      -9.247  13.438  66.725  1.00  0.00    -0.242 A  
HETATM   12  C   UNL     1      -9.139  12.103  67.137  1.00  0.00    -0.189 A  
HETATM   13  C   UNL     1     -10.161  11.179  66.882  1.00  0.00    -0.214 A  
HETATM   14  C   UNL     1     -11.432  12.976  65.812  1.00  0.00    -0.367 A  
HETATM   15  C   UNL     1     -11.313  11.639  66.223  1.00  0.00    -0.293 A  
BRANCH  13  16
HETATM   16  N   UNL     1      -9.939   9.828  67.236  1.00  0.00    -0.180 NA 
HETATM   17  H   UNL     1      -9.010   9.419  67.341  1.00  0.00     0.000 HD 
BRANCH  16  18
HETATM   18  N   UNL     1     -10.998   9.190  67.406  1.00  0.00    -0.411 NA 
HETATM   19  H   UNL     1     -11.919   9.546  67.149  1.00  0.00     0.000 HD 
BRANCH  18  20
HETATM   20  C   UNL     1     -10.786   7.922  67.992  1.00  0.00    -0.054 A  
HETATM   21  C   UNL     1     -10.652   7.717  69.373  1.00  0.00    -0.211 A  
HETATM   22  C   UNL     1     -10.358   6.452  69.895  1.00  0.00    -0.242 A  
HETATM   23  C   UNL     1     -10.182   5.373  69.030  1.00  0.00    -0.221 A  
HETATM   24  O   UNL     1      -9.869   4.143  69.548  1.00  0.00    -0.206 OA 
HETATM   25  C   UNL     1     -10.313   5.542  67.645  1.00  0.00    -0.256 A  
HETATM   26  C   UNL     1     -10.134   4.446  66.650  1.00  0.00    -0.167 C  
HETATM   27  C   UNL     1     -10.614   6.822  67.142  1.00  0.00    -0.401 A  
HETATM   28  H   UNL     1      -9.749   3.407  68.958  1.00  0.00     0.000 HD 
HETATM   29  O   UNL     1     -10.263   4.626  65.447  1.00  0.00    -0.197 OA 
HETATM   30  O   UNL     1      -9.812   3.239  67.163  1.00  0.00    -0.020 OA 
ENDBRANCH  18  20
ENDBRANCH  16  18
ENDBRANCH  13  16
ENDBRANCH   7  10
ENDBRANCH   5   6
ENDBRANCH   4   5
TORSDOF 6
ENDMDL
MODEL      211
REMARK 921   NORMALIZED FREE ENERGY PREDICTED BY IDOCK:   -4.74 KCAL/MOL
REMARK 922        TOTAL FREE ENERGY PREDICTED BY IDOCK:   -7.39 KCAL/MOL
REMARK 923 INTER-LIGAND FREE ENERGY PREDICTED BY IDOCK:   -6.90 KCAL/MOL
REMARK 924 INTRA-LIGAND FREE ENERGY PREDICTED BY IDOCK:   -0.49 KCAL/MOL
REMARK 927      BINDING AFFINITY PREDICTED BY RF-SCORE:    0.00 PKD
ROOT
HETATM    1  O   UNL     1      -7.618   3.855  68.488  1.00  0.00    -0.058 OA 
HETATM    2  C   UNL     1      -8.602   4.622  69.005  1.00  0.00    -0.084 C  
HETATM    3  O   UNL     1      -9.620   4.892  68.384  1.00  0.00    -0.132 OA 
HETATM    4  C   UNL     1      -8.333   5.108  70.402  1.00  0.00    -0.105 C  
ENDROOT
BRANCH   4   5
HETATM    5  C   UNL     1      -7.555   6.412  70.392  1.00  0.00    -0.096 C  
BRANCH   5   6
HETATM    6  N   UNL     1      -8.236   7.466  69.668  1.00  0.00    -0.128 N  
HETATM    7  C   UNL     1      -9.097   8.341  70.302  1.00  0.00    -0.150 C  
HETATM    8  H   UNL     1      -8.074   7.566  68.666  1.00  0.00     0.000 HD 
HETATM    9  O   UNL     1      -9.328   8.300  71.505  1.00  0.00    -0.152 OA 
BRANCH   7  10
HETATM   10  C   UNL     1      -9.802   9.326  69.430  1.00  0.00    -0.177 A  
HETATM   11  C   UNL     1     -10.824  10.103  69.987  1.00  0.00    -0.361 A  
HETATM   12  C   UNL     1     -11.559  10.986  69.186  1.00  0.00    -0.389 A  
HETATM   13  C   UNL     1     -11.285  11.127  67.819  1.00  0.00    -0.294 A  
HETATM   14  C   UNL     1      -9.485   9.488  68.076  1.00  0.00    -0.147 A  
HETATM   15  C   UNL     1     -10.230  10.372  67.279  1.00  0.00    -0.258 A  
BRANCH  13  16
HETATM   16  N   UNL     1     -12.133  11.960  67.054  1.00  0.00    -0.520 NA 
HETATM   17  H   UNL     1     -13.148  11.859  67.027  1.00  0.00     0.000 HD 
BRANCH  16  18
HETATM   18  N   UNL     1     -11.509  12.833  66.416  1.00  0.00    -0.337 NA 
HETATM   19  H   UNL     1     -11.147  12.692  65.472  1.00  0.00     0.000 HD 
BRANCH  18  20
HETATM   20  C   UNL     1     -11.358  14.037  67.138  1.00  0.00    -0.331 A  
HETATM   21  C   UNL     1     -10.635  15.143  66.663  1.00  0.00    -0.304 A  
HETATM   22  C   UNL     1     -10.445  16.280  67.456  1.00  0.00    -0.302 A  
HETATM   23  C   UNL     1     -10.970  16.318  68.747  1.00  0.00    -0.343 A  
HETATM   24  O   UNL     1     -10.756  17.426  69.525  1.00  0.00    -0.382 OA 
HETATM   25  C   UNL     1     -11.700  15.233  69.251  1.00  0.00    -0.359 A  
HETATM   26  C   UNL     1     -12.287  15.186  70.620  1.00  0.00    -0.368 C  
HETATM   27  C   UNL     1     -11.883  14.100  68.434  1.00  0.00    -0.388 A  
HETATM   28  H   UNL     1     -11.114  17.452  70.405  1.00  0.00     0.000 HD 
HETATM   29  O   UNL     1     -12.925  14.226  71.027  1.00  0.00    -0.331 OA 
HETATM   30  O   UNL     1     -12.063  16.274  71.388  1.00  0.00    -0.400 OA 
ENDBRANCH  18  20
ENDBRANCH  16  18
ENDBRANCH  13  16
ENDBRANCH   7  10
ENDBRANCH   5   6
ENDBRANCH   4   5
TORSDOF 6
ENDMDL
MODEL      212
REMARK 921   NORMALIZED FREE ENERGY PREDICTED BY IDOCK:   -4.73 KCAL/MOL
REMARK 922        TOTAL FREE ENERGY PREDICTED BY IDOCK:   -7.38 KCAL/MOL
REMARK 923 INTER-LIGAND FREE ENERGY PREDICTED BY IDOCK:   -6.37 KCAL/MOL
REMARK 924 INTRA-LIGAND FREE ENERGY PREDICTED BY IDOCK:   -1.00 KCAL/MOL
REMARK 927      BINDING AFFINITY PREDICTED BY RF-SCORE:    0.00 PKD
ROOT
HETATM    1  O   UNL     1      -8.239   6.303  69.614  1.00  0.00    -0.120 OA 
HETATM    2  C   UNL     1      -7.937   4.996  69.460  1.00  0.00    -0.075 C  
HETATM    3  O   UNL     1      -6.787   4.579  69.484  1.00  0.00    -0.043 OA 
HETATM    4  C   UNL     1      -9.134   4.107  69.260  1.00  0.00    -0.188 C  
ENDROOT
BRANCH   4   5
HETATM    5  C   UNL     1      -9.513   4.017  67.793  1.00  0.00    -0.178 C  
BRANCH   5   6
HETATM    6  N   UNL     1      -9.503   5.304  67.129  1.00  0.00    -0.121 N  
HETATM    7  C   UNL     1      -8.602   5.593  66.122  1.00  0.00    -0.132 C  
HETATM    8  H   UNL     1     -10.177   6.016  67.412  1.00  0.00     0.000 HD 
HETATM    9  O   UNL     1      -7.775   4.786  65.710  1.00  0.00    -0.088 OA 
BRANCH   7  10
HETATM   10  C   UNL     1      -8.637   6.983  65.580  1.00  0.00    -0.091 A  
HETATM   11  C   UNL     1      -7.995   7.244  64.364  1.00  0.00    -0.106 A  
HETATM   12  C   UNL     1      -7.942   8.549  63.857  1.00  0.00    -0.160 A  
HETATM   13  C   UNL     1      -8.536   9.619  64.539  1.00  0.00    -0.188 A  
HETATM   14  C   UNL     1      -9.276   8.033  66.250  1.00  0.00    -0.237 A  
HETATM   15  C   UNL     1      -9.213   9.338  65.738  1.00  0.00    -0.283 A  
BRANCH  13  16
HETATM   16  N   UNL     1      -8.355  10.921  64.020  1.00  0.00    -0.369 NA 
HETATM   17  H   UNL     1      -7.568  11.521  64.266  1.00  0.00     0.000 HD 
BRANCH  16  18
HETATM   18  N   UNL     1      -9.259  11.258  63.228  1.00  0.00    -0.443 NA 
HETATM   19  H   UNL     1      -9.252  11.031  62.233  1.00  0.00     0.000 HD 
BRANCH  18  20
HETATM   20  C   UNL     1     -10.293  11.989  63.855  1.00  0.00    -0.402 A  
HETATM   21  C   UNL     1     -11.657  11.773  63.606  1.00  0.00    -0.521 A  
HETATM   22  C   UNL     1     -12.638  12.583  64.191  1.00  0.00    -0.474 A  
HETATM   23  C   UNL     1     -12.259  13.632  65.028  1.00  0.00    -0.421 A  
HETATM   24  O   UNL     1     -13.226  14.435  65.575  1.00  0.00    -0.579 OA 
HETATM   25  C   UNL     1     -10.905  13.871  65.300  1.00  0.00    -0.337 A  
HETATM   26  C   UNL     1     -10.413  14.974  66.174  1.00  0.00    -0.305 C  
HETATM   27  C   UNL     1      -9.936  13.042  64.705  1.00  0.00    -0.149 A  
HETATM   28  H   UNL     1     -12.967  15.150  66.145  1.00  0.00     0.000 HD 
HETATM   29  O   UNL     1      -9.224  15.152  66.397  1.00  0.00    -0.266 OA 
HETATM   30  O   UNL     1     -11.367  15.771  66.701  1.00  0.00    -0.093 OA 
ENDBRANCH  18  20
ENDBRANCH  16  18
ENDBRANCH  13  16
ENDBRANCH   7  10
ENDBRANCH   5   6
ENDBRANCH   4   5
TORSDOF 6
ENDMDL
MODEL      213
REMARK 921   NORMALIZED FREE ENERGY PREDICTED BY IDOCK:   -4.73 KCAL/MOL
REMARK 922        TOTAL FREE ENERGY PREDICTED BY IDOCK:   -7.37 KCAL/MOL
REMARK 923 INTER-LIGAND FREE ENERGY PREDICTED BY IDOCK:   -7.24 KCAL/MOL
REMARK 924 INTRA-LIGAND FREE ENERGY PREDICTED BY IDOCK:   -0.13 KCAL/MOL
REMARK 927      BINDING AFFINITY PREDICTED BY RF-SCORE:    0.00 PKD
ROOT
HETATM    1  O   UNL     1     -13.119  16.617  74.080  1.00  0.00    -0.555 OA 
HETATM    2  C   UNL     1     -12.616  15.596  73.354  1.00  0.00    -0.533 C  
HETATM    3  O   UNL     1     -11.421  15.484  73.116  1.00  0.00    -0.331 OA 
HETATM    4  C   UNL     1     -13.651  14.618  72.870  1.00  0.00    -0.463 C  
ENDROOT
BRANCH   4   5
HETATM    5  C   UNL     1     -14.238  15.052  71.538  1.00  0.00    -0.540 C  
BRANCH   5   6
HETATM    6  N   UNL     1     -13.392  14.710  70.413  1.00  0.00    -0.518 N  
HETATM    7  C   UNL     1     -12.658  13.540  70.388  1.00  0.00    -0.197 C  
HETATM    8  H   UNL     1     -13.337  15.349  69.620  1.00  0.00     0.000 HD 
HETATM    9  O   UNL     1     -12.686  12.711  71.291  1.00  0.00    -0.364 OA 
BRANCH   7  10
HETATM   10  C   UNL     1     -11.760  13.346  69.212  1.00  0.00    -0.383 A  
HETATM   11  C   UNL     1     -11.702  12.082  68.615  1.00  0.00    -0.380 A  
HETATM   12  C   UNL     1     -10.817  11.839  67.556  1.00  0.00    -0.286 A  
HETATM   13  C   UNL     1      -9.983  12.849  67.059  1.00  0.00    -0.244 A  
HETATM   14  C   UNL     1     -10.967  14.379  68.697  1.00  0.00    -0.264 A  
HETATM   15  C   UNL     1     -10.080  14.125  67.639  1.00  0.00    -0.236 A  
BRANCH  13  16
HETATM   16  N   UNL     1      -9.046  12.505  66.059  1.00  0.00    -0.433 NA 
HETATM   17  H   UNL     1      -9.305  12.269  65.101  1.00  0.00     0.000 HD 
BRANCH  16  18
HETATM   18  N   UNL     1      -7.867  12.520  66.471  1.00  0.00    -0.320 NA 
HETATM   19  H   UNL     1      -7.208  13.272  66.268  1.00  0.00     0.000 HD 
BRANCH  18  20
HETATM   20  C   UNL     1      -7.543  11.386  67.248  1.00  0.00    -0.138 A  
HETATM   21  C   UNL     1      -7.875  10.073  66.881  1.00  0.00    -0.106 A  
HETATM   22  C   UNL     1      -7.605   8.993  67.729  1.00  0.00    -0.093 A  
HETATM   23  C   UNL     1      -7.005   9.220  68.967  1.00  0.00    -0.059 A  
HETATM   24  O   UNL     1      -6.768   8.158  69.802  1.00  0.00    -0.039 OA 
HETATM   25  C   UNL     1      -6.657  10.518  69.362  1.00  0.00    -0.069 A  
HETATM   26  C   UNL     1      -6.023  10.851  70.670  1.00  0.00    -0.087 C  
HETATM   27  C   UNL     1      -6.934  11.590  68.492  1.00  0.00    -0.083 A  
HETATM   28  H   UNL     1      -6.360   8.312  70.646  1.00  0.00     0.000 HD 
HETATM   29  O   UNL     1      -5.725  11.995  70.981  1.00  0.00    -0.352 OA 
HETATM   30  O   UNL     1      -5.803   9.804  71.494  1.00  0.00    -0.171 OA 
ENDBRANCH  18  20
ENDBRANCH  16  18
ENDBRANCH  13  16
ENDBRANCH   7  10
ENDBRANCH   5   6
ENDBRANCH   4   5
TORSDOF 6
ENDMDL
MODEL      214
REMARK 921   NORMALIZED FREE ENERGY PREDICTED BY IDOCK:   -4.72 KCAL/MOL
REMARK 922        TOTAL FREE ENERGY PREDICTED BY IDOCK:   -7.36 KCAL/MOL
REMARK 923 INTER-LIGAND FREE ENERGY PREDICTED BY IDOCK:   -6.40 KCAL/MOL
REMARK 924 INTRA-LIGAND FREE ENERGY PREDICTED BY IDOCK:   -0.96 KCAL/MOL
REMARK 927      BINDING AFFINITY PREDICTED BY RF-SCORE:    0.00 PKD
ROOT
HETATM    1  O   UNL     1     -10.742  14.936  66.611  1.00  0.00    -0.300 OA 
HETATM    2  C   UNL     1     -11.930  14.303  66.718  1.00  0.00    -0.436 C  
HETATM    3  O   UNL     1     -12.324  13.815  67.768  1.00  0.00    -0.251 OA 
HETATM    4  C   UNL     1     -12.717  14.254  65.438  1.00  0.00    -0.385 C  
ENDROOT
BRANCH   4   5
HETATM    5  C   UNL     1     -12.339  13.043  64.604  1.00  0.00    -0.422 C  
BRANCH   5   6
HETATM    6  N   UNL     1     -11.828  11.948  65.403  1.00  0.00    -0.190 N  
HETATM    7  C   UNL     1     -10.647  11.306  65.082  1.00  0.00    -0.280 C  
HETATM    8  H   UNL     1     -12.352  11.644  66.224  1.00  0.00     0.000 HD 
HETATM    9  O   UNL     1      -9.950  11.624  64.126  1.00  0.00    -0.255 OA 
BRANCH   7  10
HETATM   10  C   UNL     1     -10.275  10.138  65.934  1.00  0.00    -0.281 A  
HETATM   11  C   UNL     1     -10.837  10.035  67.212  1.00  0.00    -0.284 A  
HETATM   12  C   UNL     1     -10.459   8.994  68.070  1.00  0.00    -0.270 A  
HETATM   13  C   UNL     1      -9.526   8.027  67.673  1.00  0.00    -0.145 A  
HETATM   14  C   UNL     1      -9.377   9.153  65.505  1.00  0.00    -0.287 A  
HETATM   15  C   UNL     1      -9.000   8.117  66.373  1.00  0.00    -0.207 A  
BRANCH  13  16
HETATM   16  N   UNL     1      -9.117   7.068  68.627  1.00  0.00    -0.133 NA 
HETATM   17  H   UNL     1      -8.175   7.026  69.017  1.00  0.00     0.000 HD 
BRANCH  16  18
HETATM   18  N   UNL     1     -10.030   6.277  68.942  1.00  0.00    -0.147 NA 
HETATM   19  H   UNL     1     -10.573   5.741  68.264  1.00  0.00     0.000 HD 
BRANCH  18  20
HETATM   20  C   UNL     1     -10.233   6.202  70.338  1.00  0.00    -0.203 A  
HETATM   21  C   UNL     1     -10.293   7.326  71.176  1.00  0.00    -0.207 A  
HETATM   22  C   UNL     1     -10.410   7.191  72.564  1.00  0.00    -0.237 A  
HETATM   23  C   UNL     1     -10.457   5.919  73.133  1.00  0.00    -0.228 A  
HETATM   24  O   UNL     1     -10.545   5.797  74.496  1.00  0.00    -0.304 OA 
HETATM   25  C   UNL     1     -10.403   4.776  72.325  1.00  0.00    -0.264 A  
HETATM   26  C   UNL     1     -10.437   3.380  72.850  1.00  0.00    -0.153 C  
HETATM   27  C   UNL     1     -10.290   4.934  70.930  1.00  0.00    -0.225 A  
HETATM   28  H   UNL     1     -10.577   4.930  74.883  1.00  0.00     0.000 HD 
HETATM   29  O   UNL     1     -10.396   2.403  72.116  1.00  0.00    -0.145 OA 
HETATM   30  O   UNL     1     -10.511   3.265  74.193  1.00  0.00    -0.160 OA 
ENDBRANCH  18  20
ENDBRANCH  16  18
ENDBRANCH  13  16
ENDBRANCH   7  10
ENDBRANCH   5   6
ENDBRANCH   4   5
TORSDOF 6
ENDMDL
MODEL      215
REMARK 921   NORMALIZED FREE ENERGY PREDICTED BY IDOCK:   -4.72 KCAL/MOL
REMARK 922        TOTAL FREE ENERGY PREDICTED BY IDOCK:   -7.36 KCAL/MOL
REMARK 923 INTER-LIGAND FREE ENERGY PREDICTED BY IDOCK:   -6.53 KCAL/MOL
REMARK 924 INTRA-LIGAND FREE ENERGY PREDICTED BY IDOCK:   -0.83 KCAL/MOL
REMARK 927      BINDING AFFINITY PREDICTED BY RF-SCORE:    0.00 PKD
ROOT
HETATM    1  O   UNL     1      -7.922  18.392  66.720  1.00  0.00    -0.229 OA 
HETATM    2  C   UNL     1      -8.303  19.172  67.754  1.00  0.00    -0.292 C  
HETATM    3  O   UNL     1      -7.507  19.824  68.415  1.00  0.00    -0.314 OA 
HETATM    4  C   UNL     1      -9.784  19.166  68.014  1.00  0.00    -0.414 C  
ENDROOT
BRANCH   4   5
HETATM    5  C   UNL     1     -10.175  18.033  68.947  1.00  0.00    -0.311 C  
BRANCH   5   6
HETATM    6  N   UNL     1     -10.144  16.737  68.299  1.00  0.00    -0.261 N  
HETATM    7  C   UNL     1     -11.069  15.756  68.600  1.00  0.00    -0.327 C  
HETATM    8  H   UNL     1      -9.422  16.545  67.605  1.00  0.00     0.000 HD 
HETATM    9  O   UNL     1     -11.979  15.915  69.406  1.00  0.00    -0.354 OA 
BRANCH   7  10
HETATM   10  C   UNL     1     -10.877  14.436  67.929  1.00  0.00    -0.256 A  
HETATM   11  C   UNL     1      -9.574  13.947  67.777  1.00  0.00    -0.222 A  
HETATM   12  C   UNL     1      -9.344  12.748  67.088  1.00  0.00    -0.216 A  
HETATM   13  C   UNL     1     -10.403  12.004  66.550  1.00  0.00    -0.210 A  
HETATM   14  C   UNL     1     -11.948  13.682  67.438  1.00  0.00    -0.413 A  
HETATM   15  C   UNL     1     -11.708  12.485  66.745  1.00  0.00    -0.453 A  
BRANCH  13  16
HETATM   16  N   UNL     1     -10.087  10.860  65.782  1.00  0.00    -0.243 NA 
HETATM   17  H   UNL     1     -10.594  10.590  64.939  1.00  0.00     0.000 HD 
BRANCH  16  18
HETATM   18  N   UNL     1      -9.124  10.215  66.245  1.00  0.00    -0.151 NA 
HETATM   19  H   UNL     1      -8.148  10.467  66.088  1.00  0.00     0.000 HD 
BRANCH  18  20
HETATM   20  C   UNL     1      -9.529   9.097  67.009  1.00  0.00    -0.154 A  
HETATM   21  C   UNL     1      -9.890   9.172  68.363  1.00  0.00    -0.181 A  
HETATM   22  C   UNL     1     -10.202   8.020  69.095  1.00  0.00    -0.221 A  
HETATM   23  C   UNL     1     -10.142   6.772  68.477  1.00  0.00    -0.162 A  
HETATM   24  O   UNL     1     -10.424   5.648  69.210  1.00  0.00    -0.241 OA 
HETATM   25  C   UNL     1      -9.789   6.663  67.126  1.00  0.00    -0.194 A  
HETATM   26  C   UNL     1      -9.692   5.369  66.390  1.00  0.00    -0.166 C  
HETATM   27  C   UNL     1      -9.484   7.834  66.407  1.00  0.00    -0.245 A  
HETATM   28  H   UNL     1     -10.383   4.797  68.789  1.00  0.00     0.000 HD 
HETATM   29  O   UNL     1      -9.388   5.309  65.208  1.00  0.00    -0.108 OA 
HETATM   30  O   UNL     1      -9.958   4.264  67.119  1.00  0.00    -0.193 OA 
ENDBRANCH  18  20
ENDBRANCH  16  18
ENDBRANCH  13  16
ENDBRANCH   7  10
ENDBRANCH   5   6
ENDBRANCH   4   5
TORSDOF 6
ENDMDL
MODEL      216
REMARK 921   NORMALIZED FREE ENERGY PREDICTED BY IDOCK:   -4.71 KCAL/MOL
REMARK 922        TOTAL FREE ENERGY PREDICTED BY IDOCK:   -7.35 KCAL/MOL
REMARK 923 INTER-LIGAND FREE ENERGY PREDICTED BY IDOCK:   -6.15 KCAL/MOL
REMARK 924 INTRA-LIGAND FREE ENERGY PREDICTED BY IDOCK:   -1.20 KCAL/MOL
REMARK 927      BINDING AFFINITY PREDICTED BY RF-SCORE:    0.00 PKD
ROOT
HETATM    1  O   UNL     1     -10.633  13.129  65.993  1.00  0.00    -0.274 OA 
HETATM    2  C   UNL     1     -11.559  12.654  65.132  1.00  0.00    -0.348 C  
HETATM    3  O   UNL     1     -12.596  12.124  65.507  1.00  0.00    -0.444 OA 
HETATM    4  C   UNL     1     -11.201  12.838  63.683  1.00  0.00    -0.482 C  
ENDROOT
BRANCH   4   5
HETATM    5  C   UNL     1     -10.374  11.673  63.169  1.00  0.00    -0.334 C  
BRANCH   5   6
HETATM    6  N   UNL     1      -9.998  10.745  64.216  1.00  0.00    -0.315 N  
HETATM    7  C   UNL     1      -8.780  10.092  64.203  1.00  0.00    -0.204 C  
HETATM    8  H   UNL     1     -10.649  10.569  64.982  1.00  0.00     0.000 HD 
HETATM    9  O   UNL     1      -7.936  10.265  63.330  1.00  0.00    -0.157 OA 
BRANCH   7  10
HETATM   10  C   UNL     1      -8.550   9.097  65.291  1.00  0.00    -0.191 A  
HETATM   11  C   UNL     1      -9.621   8.760  66.127  1.00  0.00    -0.323 A  
HETATM   12  C   UNL     1      -9.429   7.886  67.206  1.00  0.00    -0.188 A  
HETATM   13  C   UNL     1      -8.175   7.318  67.467  1.00  0.00    -0.113 A  
HETATM   14  C   UNL     1      -7.302   8.502  65.510  1.00  0.00    -0.084 A  
HETATM   15  C   UNL     1      -7.118   7.631  66.596  1.00  0.00    -0.079 A  
BRANCH  13  16
HETATM   16  N   UNL     1      -8.033   6.527  68.630  1.00  0.00    -0.113 NA 
HETATM   17  H   UNL     1      -8.212   5.523  68.654  1.00  0.00     0.000 HD 
BRANCH  16  18
HETATM   18  N   UNL     1      -7.666   7.186  69.624  1.00  0.00    -0.107 NA 
HETATM   19  H   UNL     1      -6.741   7.607  69.713  1.00  0.00     0.000 HD 
BRANCH  18  20
HETATM   20  C   UNL     1      -8.668   7.288  70.615  1.00  0.00    -0.147 A  
HETATM   21  C   UNL     1      -9.092   8.506  71.169  1.00  0.00    -0.238 A  
HETATM   22  C   UNL     1     -10.028   8.543  72.209  1.00  0.00    -0.385 A  
HETATM   23  C   UNL     1     -10.544   7.352  72.716  1.00  0.00    -0.297 A  
HETATM   24  O   UNL     1     -11.441   7.397  73.752  1.00  0.00    -0.332 OA 
HETATM   25  C   UNL     1     -10.145   6.119  72.183  1.00  0.00    -0.207 A  
HETATM   26  C   UNL     1     -10.639   4.799  72.672  1.00  0.00    -0.211 C  
HETATM   27  C   UNL     1      -9.206   6.104  71.134  1.00  0.00    -0.161 A  
HETATM   28  H   UNL     1     -11.793   6.585  74.099  1.00  0.00     0.000 HD 
HETATM   29  O   UNL     1     -10.276   3.741  72.179  1.00  0.00    -0.169 OA 
HETATM   30  O   UNL     1     -11.512   4.848  73.701  1.00  0.00    -0.251 OA 
ENDBRANCH  18  20
ENDBRANCH  16  18
ENDBRANCH  13  16
ENDBRANCH   7  10
ENDBRANCH   5   6
ENDBRANCH   4   5
TORSDOF 6
ENDMDL
MODEL      217
REMARK 921   NORMALIZED FREE ENERGY PREDICTED BY IDOCK:   -4.70 KCAL/MOL
REMARK 922        TOTAL FREE ENERGY PREDICTED BY IDOCK:   -7.34 KCAL/MOL
REMARK 923 INTER-LIGAND FREE ENERGY PREDICTED BY IDOCK:   -6.68 KCAL/MOL
REMARK 924 INTRA-LIGAND FREE ENERGY PREDICTED BY IDOCK:   -0.66 KCAL/MOL
REMARK 927      BINDING AFFINITY PREDICTED BY RF-SCORE:    0.00 PKD
ROOT
HETATM    1  O   UNL     1     -11.785  16.080  72.230  1.00  0.00    -0.456 OA 
HETATM    2  C   UNL     1     -13.026  15.913  72.734  1.00  0.00    -0.483 C  
HETATM    3  O   UNL     1     -13.389  16.439  73.777  1.00  0.00    -0.655 OA 
HETATM    4  C   UNL     1     -13.913  15.028  71.903  1.00  0.00    -0.604 C  
ENDROOT
BRANCH   4   5
HETATM    5  C   UNL     1     -13.746  13.567  72.283  1.00  0.00    -0.602 C  
BRANCH   5   6
HETATM    6  N   UNL     1     -12.907  12.837  71.354  1.00  0.00    -0.339 N  
HETATM    7  C   UNL     1     -12.851  11.457  71.360  1.00  0.00    -0.397 C  
HETATM    8  H   UNL     1     -12.345  13.355  70.678  1.00  0.00     0.000 HD 
HETATM    9  O   UNL     1     -13.510  10.762  72.125  1.00  0.00    -0.379 OA 
BRANCH   7  10
HETATM   10  C   UNL     1     -11.884  10.829  70.412  1.00  0.00    -0.450 A  
HETATM   11  C   UNL     1     -11.506   9.498  70.625  1.00  0.00    -0.362 A  
HETATM   12  C   UNL     1     -10.545   8.895  69.802  1.00  0.00    -0.230 A  
HETATM   13  C   UNL     1      -9.952   9.595  68.743  1.00  0.00    -0.173 A  
HETATM   14  C   UNL     1     -11.335  11.527  69.329  1.00  0.00    -0.353 A  
HETATM   15  C   UNL     1     -10.370  10.916  68.513  1.00  0.00    -0.203 A  
BRANCH  13  16
HETATM   16  N   UNL     1      -8.919   8.956  68.020  1.00  0.00    -0.139 NA 
HETATM   17  H   UNL     1      -8.964   8.770  67.018  1.00  0.00     0.000 HD 
BRANCH  16  18
HETATM   18  N   UNL     1      -7.946   8.643  68.737  1.00  0.00    -0.113 NA 
HETATM   19  H   UNL     1      -7.396   9.318  69.268  1.00  0.00     0.000 HD 
BRANCH  18  20
HETATM   20  C   UNL     1      -7.686   7.254  68.734  1.00  0.00    -0.119 A  
HETATM   21  C   UNL     1      -7.652   6.473  67.568  1.00  0.00    -0.105 A  
HETATM   22  C   UNL     1      -7.474   5.086  67.629  1.00  0.00    -0.079 A  
HETATM   23  C   UNL     1      -7.341   4.461  68.868  1.00  0.00    -0.056 A  
HETATM   24  O   UNL     1      -7.193   3.099  68.919  1.00  0.00    -0.048 OA 
HETATM   25  C   UNL     1      -7.367   5.212  70.051  1.00  0.00    -0.060 A  
HETATM   26  C   UNL     1      -7.241   4.624  71.416  1.00  0.00    -0.056 C  
HETATM   27  C   UNL     1      -7.542   6.607  69.967  1.00  0.00    -0.100 A  
HETATM   28  H   UNL     1      -7.103   2.673  69.764  1.00  0.00     0.000 HD 
HETATM   29  O   UNL     1      -7.261   5.309  72.428  1.00  0.00    -0.086 OA 
HETATM   30  O   UNL     1      -7.110   3.281  71.462  1.00  0.00    -0.031 OA 
ENDBRANCH  18  20
ENDBRANCH  16  18
ENDBRANCH  13  16
ENDBRANCH   7  10
ENDBRANCH   5   6
ENDBRANCH   4   5
TORSDOF 6
ENDMDL
MODEL      218
REMARK 921   NORMALIZED FREE ENERGY PREDICTED BY IDOCK:   -4.68 KCAL/MOL
REMARK 922        TOTAL FREE ENERGY PREDICTED BY IDOCK:   -7.31 KCAL/MOL
REMARK 923 INTER-LIGAND FREE ENERGY PREDICTED BY IDOCK:   -6.42 KCAL/MOL
REMARK 924 INTRA-LIGAND FREE ENERGY PREDICTED BY IDOCK:   -0.89 KCAL/MOL
REMARK 927      BINDING AFFINITY PREDICTED BY RF-SCORE:    0.00 PKD
ROOT
HETATM    1  O   UNL     1      -7.465   6.407  73.538  1.00  0.00    -0.090 OA 
HETATM    2  C   UNL     1      -6.503   7.337  73.359  1.00  0.00    -0.064 C  
HETATM    3  O   UNL     1      -6.690   8.527  73.572  1.00  0.00    -0.182 OA 
HETATM    4  C   UNL     1      -5.191   6.780  72.877  1.00  0.00    -0.037 C  
ENDROOT
BRANCH   4   5
HETATM    5  C   UNL     1      -5.152   6.694  71.362  1.00  0.00    -0.026 C  
BRANCH   5   6
HETATM    6  N   UNL     1      -6.357   7.204  70.739  1.00  0.00    -0.039 N  
HETATM    7  C   UNL     1      -6.375   8.420  70.083  1.00  0.00    -0.038 C  
HETATM    8  H   UNL     1      -7.213   6.651  70.785  1.00  0.00     0.000 HD 
HETATM    9  O   UNL     1      -5.384   9.132  69.966  1.00  0.00    -0.028 OA 
BRANCH   7  10
HETATM   10  C   UNL     1      -7.698   8.872  69.560  1.00  0.00    -0.088 A  
HETATM   11  C   UNL     1      -8.559   9.559  70.424  1.00  0.00    -0.246 A  
HETATM   12  C   UNL     1      -9.839   9.936  69.995  1.00  0.00    -0.291 A  
HETATM   13  C   UNL     1     -10.284   9.651  68.697  1.00  0.00    -0.189 A  
HETATM   14  C   UNL     1      -8.110   8.621  68.246  1.00  0.00    -0.118 A  
HETATM   15  C   UNL     1      -9.395   8.997  67.827  1.00  0.00    -0.156 A  
BRANCH  13  16
HETATM   16  N   UNL     1     -11.620   9.971  68.368  1.00  0.00    -0.603 NA 
HETATM   17  H   UNL     1     -12.043   9.764  67.463  1.00  0.00     0.000 HD 
BRANCH  16  18
HETATM   18  N   UNL     1     -12.229  10.534  69.302  1.00  0.00    -0.669 NA 
HETATM   19  H   UNL     1     -12.725  10.029  70.038  1.00  0.00     0.000 HD 
BRANCH  18  20
HETATM   20  C   UNL     1     -12.160  11.943  69.231  1.00  0.00    -0.210 A  
HETATM   21  C   UNL     1     -11.778  12.645  68.078  1.00  0.00    -0.402 A  
HETATM   22  C   UNL     1     -11.644  14.038  68.087  1.00  0.00    -0.369 A  
HETATM   23  C   UNL     1     -11.882  14.747  69.264  1.00  0.00    -0.318 A  
HETATM   24  O   UNL     1     -11.723  16.108  69.270  1.00  0.00    -0.313 OA 
HETATM   25  C   UNL     1     -12.269  14.077  70.433  1.00  0.00    -0.433 A  
HETATM   26  C   UNL     1     -12.534  14.755  71.734  1.00  0.00    -0.343 C  
HETATM   27  C   UNL     1     -12.402  12.675  70.400  1.00  0.00    -0.315 A  
HETATM   28  H   UNL     1     -11.885  16.592  70.072  1.00  0.00     0.000 HD 
HETATM   29  O   UNL     1     -12.878  14.141  72.734  1.00  0.00    -0.402 OA 
HETATM   30  O   UNL     1     -12.364  16.094  71.739  1.00  0.00    -0.455 OA 
ENDBRANCH  18  20
ENDBRANCH  16  18
ENDBRANCH  13  16
ENDBRANCH   7  10
ENDBRANCH   5   6
ENDBRANCH   4   5
TORSDOF 6
ENDMDL
MODEL      219
REMARK 921   NORMALIZED FREE ENERGY PREDICTED BY IDOCK:   -4.67 KCAL/MOL
REMARK 922        TOTAL FREE ENERGY PREDICTED BY IDOCK:   -7.29 KCAL/MOL
REMARK 923 INTER-LIGAND FREE ENERGY PREDICTED BY IDOCK:   -6.57 KCAL/MOL
REMARK 924 INTRA-LIGAND FREE ENERGY PREDICTED BY IDOCK:   -0.73 KCAL/MOL
REMARK 927      BINDING AFFINITY PREDICTED BY RF-SCORE:    0.00 PKD
ROOT
HETATM    1  O   UNL     1      -8.697   3.159  72.231  1.00  0.00    -0.077 OA 
HETATM    2  C   UNL     1      -9.557   2.651  73.140  1.00  0.00    -0.094 C  
HETATM    3  O   UNL     1      -9.903   1.478  73.134  1.00  0.00    -0.078 OA 
HETATM    4  C   UNL     1     -10.044   3.653  74.150  1.00  0.00    -0.204 C  
ENDROOT
BRANCH   4   5
HETATM    5  C   UNL     1     -11.274   4.388  73.648  1.00  0.00    -0.251 C  
BRANCH   5   6
HETATM    6  N   UNL     1     -10.986   5.271  72.536  1.00  0.00    -0.244 N  
HETATM    7  C   UNL     1     -10.497   6.548  72.733  1.00  0.00    -0.215 C  
HETATM    8  H   UNL     1     -11.148   4.941  71.584  1.00  0.00     0.000 HD 
HETATM    9  O   UNL     1     -10.256   7.010  73.842  1.00  0.00    -0.335 OA 
BRANCH   7  10
HETATM   10  C   UNL     1     -10.324   7.387  71.510  1.00  0.00    -0.216 A  
HETATM   11  C   UNL     1      -9.519   8.529  71.591  1.00  0.00    -0.316 A  
HETATM   12  C   UNL     1      -9.390   9.383  70.488  1.00  0.00    -0.319 A  
HETATM   13  C   UNL     1     -10.045   9.113  69.279  1.00  0.00    -0.194 A  
HETATM   14  C   UNL     1     -10.947   7.078  70.296  1.00  0.00    -0.304 A  
HETATM   15  C   UNL     1     -10.817   7.942  69.197  1.00  0.00    -0.054 A  
BRANCH  13  16
HETATM   16  N   UNL     1      -9.950  10.071  68.244  1.00  0.00    -0.149 NA 
HETATM   17  H   UNL     1      -9.068  10.479  67.932  1.00  0.00     0.000 HD 
BRANCH  16  18
HETATM   18  N   UNL     1     -11.058  10.365  67.750  1.00  0.00    -0.330 NA 
HETATM   19  H   UNL     1     -11.500   9.836  66.998  1.00  0.00     0.000 HD 
BRANCH  18  20
HETATM   20  C   UNL     1     -11.636  11.510  68.343  1.00  0.00    -0.308 A  
HETATM   21  C   UNL     1     -11.685  12.766  67.720  1.00  0.00    -0.412 A  
HETATM   22  C   UNL     1     -12.193  13.888  68.386  1.00  0.00    -0.194 A  
HETATM   23  C   UNL     1     -12.649  13.764  69.698  1.00  0.00     0.029 A  
HETATM   24  O   UNL     1     -13.120  14.873  70.351  1.00  0.00    -0.583 OA 
HETATM   25  C   UNL     1     -12.617  12.523  70.348  1.00  0.00    -0.099 A  
HETATM   26  C   UNL     1     -13.075  12.303  71.750  1.00  0.00    -0.344 C  
HETATM   27  C   UNL     1     -12.107  11.407  69.657  1.00  0.00    -0.373 A  
HETATM   28  H   UNL     1     -13.431  14.789  71.245  1.00  0.00     0.000 HD 
HETATM   29  O   UNL     1     -13.041  11.205  72.286  1.00  0.00    -0.370 OA 
HETATM   30  O   UNL     1     -13.526  13.401  72.394  1.00  0.00    -0.534 OA 
ENDBRANCH  18  20
ENDBRANCH  16  18
ENDBRANCH  13  16
ENDBRANCH   7  10
ENDBRANCH   5   6
ENDBRANCH   4   5
TORSDOF 6
ENDMDL
MODEL      220
REMARK 921   NORMALIZED FREE ENERGY PREDICTED BY IDOCK:   -4.67 KCAL/MOL
REMARK 922        TOTAL FREE ENERGY PREDICTED BY IDOCK:   -7.29 KCAL/MOL
REMARK 923 INTER-LIGAND FREE ENERGY PREDICTED BY IDOCK:   -6.32 KCAL/MOL
REMARK 924 INTRA-LIGAND FREE ENERGY PREDICTED BY IDOCK:   -0.97 KCAL/MOL
REMARK 927      BINDING AFFINITY PREDICTED BY RF-SCORE:    0.00 PKD
ROOT
HETATM    1  O   UNL     1     -11.640   9.870  71.575  1.00  0.00    -0.373 OA 
HETATM    2  C   UNL     1     -12.873  10.382  71.377  1.00  0.00    -0.452 C  
HETATM    3  O   UNL     1     -13.726   9.807  70.716  1.00  0.00    -0.182 OA 
HETATM    4  C   UNL     1     -13.099  11.713  72.040  1.00  0.00    -0.433 C  
ENDROOT
BRANCH   4   5
HETATM    5  C   UNL     1     -12.665  12.857  71.140  1.00  0.00    -0.276 C  
BRANCH   5   6
HETATM    6  N   UNL     1     -12.058  12.402  69.906  1.00  0.00    -0.281 N  
HETATM    7  C   UNL     1     -11.984  13.216  68.792  1.00  0.00    -0.280 C  
HETATM    8  H   UNL     1     -11.676  11.458  69.858  1.00  0.00     0.000 HD 
HETATM    9  O   UNL     1     -12.401  14.369  68.775  1.00  0.00    -0.217 OA 
BRANCH   7  10
HETATM   10  C   UNL     1     -11.414  12.600  67.557  1.00  0.00    -0.397 A  
HETATM   11  C   UNL     1     -11.944  12.973  66.317  1.00  0.00    -0.477 A  
HETATM   12  C   UNL     1     -11.488  12.364  65.140  1.00  0.00    -0.379 A  
HETATM   13  C   UNL     1     -10.487  11.384  65.170  1.00  0.00    -0.295 A  
HETATM   14  C   UNL     1     -10.381  11.656  67.600  1.00  0.00    -0.210 A  
HETATM   15  C   UNL     1      -9.934  11.047  66.416  1.00  0.00    -0.264 A  
BRANCH  13  16
HETATM   16  N   UNL     1     -10.150  10.743  63.956  1.00  0.00    -0.337 NA 
HETATM   17  H   UNL     1     -10.713  10.004  63.533  1.00  0.00     0.000 HD 
BRANCH  16  18
HETATM   18  N   UNL     1      -9.091  11.175  63.456  1.00  0.00    -0.396 NA 
HETATM   19  H   UNL     1      -8.963  12.141  63.154  1.00  0.00     0.000 HD 
BRANCH  18  20
HETATM   20  C   UNL     1      -8.089  10.185  63.351  1.00  0.00    -0.161 A  
HETATM   21  C   UNL     1      -6.999  10.273  62.472  1.00  0.00    -0.141 A  
HETATM   22  C   UNL     1      -6.081   9.224  62.348  1.00  0.00    -0.093 A  
HETATM   23  C   UNL     1      -6.253   8.062  63.099  1.00  0.00    -0.076 A  
HETATM   24  O   UNL     1      -5.364   7.030  62.951  1.00  0.00    -0.031 OA 
HETATM   25  C   UNL     1      -7.330   7.943  63.989  1.00  0.00    -0.101 A  
HETATM   26  C   UNL     1      -7.594   6.735  64.822  1.00  0.00    -0.104 C  
HETATM   27  C   UNL     1      -8.239   9.013  64.102  1.00  0.00    -0.166 A  
HETATM   28  H   UNL     1      -5.482   6.237  63.463  1.00  0.00     0.000 HD 
HETATM   29  O   UNL     1      -8.539   6.667  65.595  1.00  0.00    -0.152 OA 
HETATM   30  O   UNL     1      -6.723   5.716  64.663  1.00  0.00    -0.044 OA 
ENDBRANCH  18  20
ENDBRANCH  16  18
ENDBRANCH  13  16
ENDBRANCH   7  10
ENDBRANCH   5   6
ENDBRANCH   4   5
TORSDOF 6
ENDMDL
MODEL      221
REMARK 921   NORMALIZED FREE ENERGY PREDICTED BY IDOCK:   -4.66 KCAL/MOL
REMARK 922        TOTAL FREE ENERGY PREDICTED BY IDOCK:   -7.28 KCAL/MOL
REMARK 923 INTER-LIGAND FREE ENERGY PREDICTED BY IDOCK:   -6.21 KCAL/MOL
REMARK 924 INTRA-LIGAND FREE ENERGY PREDICTED BY IDOCK:   -1.07 KCAL/MOL
REMARK 927      BINDING AFFINITY PREDICTED BY RF-SCORE:    0.00 PKD
ROOT
HETATM    1  O   UNL     1     -10.895   8.858  71.961  1.00  0.00    -0.349 OA 
HETATM    2  C   UNL     1     -12.221   8.948  71.722  1.00  0.00    -0.359 C  
HETATM    3  O   UNL     1     -12.917   7.968  71.494  1.00  0.00    -0.321 OA 
HETATM    4  C   UNL     1     -12.759  10.352  71.762  1.00  0.00    -0.525 C  
ENDROOT
BRANCH   4   5
HETATM    5  C   UNL     1     -12.642  11.026  70.406  1.00  0.00    -0.267 C  
BRANCH   5   6
HETATM    6  N   UNL     1     -11.762  10.315  69.500  1.00  0.00    -0.442 N  
HETATM    7  C   UNL     1     -11.515  10.776  68.221  1.00  0.00    -0.280 C  
HETATM    8  H   UNL     1     -11.313   9.455  69.814  1.00  0.00     0.000 HD 
HETATM    9  O   UNL     1     -11.998  11.811  67.776  1.00  0.00    -0.586 OA 
BRANCH   7  10
HETATM   10  C   UNL     1     -10.661   9.908  67.358  1.00  0.00    -0.338 A  
HETATM   11  C   UNL     1     -10.255  10.396  66.111  1.00  0.00    -0.288 A  
HETATM   12  C   UNL     1      -9.514   9.586  65.240  1.00  0.00    -0.326 A  
HETATM   13  C   UNL     1      -9.149   8.281  65.595  1.00  0.00    -0.065 A  
HETATM   14  C   UNL     1     -10.264   8.623  67.747  1.00  0.00    -0.282 A  
HETATM   15  C   UNL     1      -9.527   7.816  66.866  1.00  0.00    -0.238 A  
BRANCH  13  16
HETATM   16  N   UNL     1      -8.490   7.489  64.627  1.00  0.00    -0.369 NA 
HETATM   17  H   UNL     1      -8.795   7.415  63.656  1.00  0.00     0.000 HD 
BRANCH  16  18
HETATM   18  N   UNL     1      -7.496   6.888  65.086  1.00  0.00    -0.088 NA 
HETATM   19  H   UNL     1      -6.748   7.348  65.604  1.00  0.00     0.000 HD 
BRANCH  18  20
HETATM   20  C   UNL     1      -7.517   5.503  64.810  1.00  0.00    -0.071 A  
HETATM   21  C   UNL     1      -6.365   4.702  64.765  1.00  0.00    -0.034 A  
HETATM   22  C   UNL     1      -6.434   3.352  64.403  1.00  0.00    -0.034 A  
HETATM   23  C   UNL     1      -7.665   2.788  64.068  1.00  0.00    -0.076 A  
HETATM   24  O   UNL     1      -7.718   1.472  63.689  1.00  0.00    -0.056 OA 
HETATM   25  C   UNL     1      -8.834   3.559  64.106  1.00  0.00    -0.101 A  
HETATM   26  C   UNL     1     -10.188   3.040  63.755  1.00  0.00    -0.189 C  
HETATM   27  C   UNL     1      -8.743   4.914  64.477  1.00  0.00    -0.148 A  
HETATM   28  H   UNL     1      -8.557   1.088  63.460  1.00  0.00     0.000 HD 
HETATM   29  O   UNL     1     -11.190   3.737  63.806  1.00  0.00    -0.263 OA 
HETATM   30  O   UNL     1     -10.234   1.746  63.370  1.00  0.00    -0.119 OA 
ENDBRANCH  18  20
ENDBRANCH  16  18
ENDBRANCH  13  16
ENDBRANCH   7  10
ENDBRANCH   5   6
ENDBRANCH   4   5
TORSDOF 6
ENDMDL
MODEL      222
REMARK 921   NORMALIZED FREE ENERGY PREDICTED BY IDOCK:   -4.66 KCAL/MOL
REMARK 922        TOTAL FREE ENERGY PREDICTED BY IDOCK:   -7.28 KCAL/MOL
REMARK 923 INTER-LIGAND FREE ENERGY PREDICTED BY IDOCK:   -6.20 KCAL/MOL
REMARK 924 INTRA-LIGAND FREE ENERGY PREDICTED BY IDOCK:   -1.08 KCAL/MOL
REMARK 927      BINDING AFFINITY PREDICTED BY RF-SCORE:    0.00 PKD
ROOT
HETATM    1  O   UNL     1     -10.757  10.615  64.104  1.00  0.00    -0.187 OA 
HETATM    2  C   UNL     1     -10.606  11.878  63.651  1.00  0.00    -0.446 C  
HETATM    3  O   UNL     1      -9.615  12.241  63.033  1.00  0.00    -0.214 OA 
HETATM    4  C   UNL     1     -11.759  12.788  63.973  1.00  0.00    -0.494 C  
ENDROOT
BRANCH   4   5
HETATM    5  C   UNL     1     -11.584  13.437  65.335  1.00  0.00    -0.314 C  
BRANCH   5   6
HETATM    6  N   UNL     1     -11.623  12.480  66.422  1.00  0.00    -0.372 N  
HETATM    7  C   UNL     1     -10.547  12.304  67.271  1.00  0.00    -0.224 C  
HETATM    8  H   UNL     1     -12.465  11.922  66.565  1.00  0.00     0.000 HD 
HETATM    9  O   UNL     1      -9.508  12.948  67.179  1.00  0.00    -0.214 OA 
BRANCH   7  10
HETATM   10  C   UNL     1     -10.680  11.226  68.295  1.00  0.00    -0.231 A  
HETATM   11  C   UNL     1      -9.658  10.276  68.404  1.00  0.00    -0.155 A  
HETATM   12  C   UNL     1      -9.777   9.207  69.302  1.00  0.00    -0.164 A  
HETATM   13  C   UNL     1     -10.907   9.067  70.119  1.00  0.00    -0.237 A  
HETATM   14  C   UNL     1     -11.793  11.127  69.137  1.00  0.00    -0.419 A  
HETATM   15  C   UNL     1     -11.908  10.049  70.030  1.00  0.00    -0.196 A  
BRANCH  13  16
HETATM   16  N   UNL     1     -11.004   7.910  70.925  1.00  0.00    -0.239 NA 
HETATM   17  H   UNL     1     -10.539   7.812  71.828  1.00  0.00     0.000 HD 
BRANCH  16  18
HETATM   18  N   UNL     1     -11.719   7.022  70.417  1.00  0.00    -0.493 NA 
HETATM   19  H   UNL     1     -12.718   7.134  70.239  1.00  0.00     0.000 HD 
BRANCH  18  20
HETATM   20  C   UNL     1     -10.999   5.845  70.114  1.00  0.00    -0.342 A  
HETATM   21  C   UNL     1     -10.687   4.860  71.064  1.00  0.00     0.020 A  
HETATM   22  C   UNL     1      -9.898   3.754  70.729  1.00  0.00    -0.173 A  
HETATM   23  C   UNL     1      -9.400   3.627  69.433  1.00  0.00    -0.176 A  
HETATM   24  O   UNL     1      -8.606   2.554  69.122  1.00  0.00    -0.063 OA 
HETATM   25  C   UNL     1      -9.696   4.591  68.460  1.00  0.00    -0.198 A  
HETATM   26  C   UNL     1      -9.199   4.538  67.055  1.00  0.00    -0.134 C  
HETATM   27  C   UNL     1     -10.496   5.693  68.817  1.00  0.00    -0.289 A  
HETATM   28  H   UNL     1      -8.267   2.468  68.239  1.00  0.00     0.000 HD 
HETATM   29  O   UNL     1      -9.482   5.392  66.228  1.00  0.00    -0.149 OA 
HETATM   30  O   UNL     1      -8.407   3.486  66.756  1.00  0.00    -0.097 OA 
ENDBRANCH  18  20
ENDBRANCH  16  18
ENDBRANCH  13  16
ENDBRANCH   7  10
ENDBRANCH   5   6
ENDBRANCH   4   5
TORSDOF 6
ENDMDL
MODEL      223
REMARK 921   NORMALIZED FREE ENERGY PREDICTED BY IDOCK:   -4.65 KCAL/MOL
REMARK 922        TOTAL FREE ENERGY PREDICTED BY IDOCK:   -7.27 KCAL/MOL
REMARK 923 INTER-LIGAND FREE ENERGY PREDICTED BY IDOCK:   -6.66 KCAL/MOL
REMARK 924 INTRA-LIGAND FREE ENERGY PREDICTED BY IDOCK:   -0.60 KCAL/MOL
REMARK 927      BINDING AFFINITY PREDICTED BY RF-SCORE:    0.00 PKD
ROOT
HETATM    1  O   UNL     1      -8.539  20.482  67.441  1.00  0.00    -0.341 OA 
HETATM    2  C   UNL     1      -9.297  19.776  66.574  1.00  0.00    -0.394 C  
HETATM    3  O   UNL     1     -10.081  20.309  65.801  1.00  0.00    -0.397 OA 
HETATM    4  C   UNL     1      -9.091  18.289  66.647  1.00  0.00    -0.294 C  
ENDROOT
BRANCH   4   5
HETATM    5  C   UNL     1      -9.996  17.657  67.690  1.00  0.00    -0.323 C  
BRANCH   5   6
HETATM    6  N   UNL     1     -10.003  16.210  67.624  1.00  0.00    -0.238 N  
HETATM    7  C   UNL     1     -10.925  15.457  68.327  1.00  0.00    -0.288 C  
HETATM    8  H   UNL     1      -9.311  15.734  67.045  1.00  0.00     0.000 HD 
HETATM    9  O   UNL     1     -11.800  15.953  69.028  1.00  0.00    -0.389 OA 
BRANCH   7  10
HETATM   10  C   UNL     1     -10.772  13.975  68.244  1.00  0.00    -0.262 A  
HETATM   11  C   UNL     1     -11.849  13.168  68.628  1.00  0.00    -0.363 A  
HETATM   12  C   UNL     1     -11.722  11.773  68.635  1.00  0.00    -0.389 A  
HETATM   13  C   UNL     1     -10.528  11.150  68.248  1.00  0.00    -0.191 A  
HETATM   14  C   UNL     1      -9.588  13.367  67.811  1.00  0.00    -0.213 A  
HETATM   15  C   UNL     1      -9.467  11.969  67.826  1.00  0.00    -0.190 A  
BRANCH  13  16
HETATM   16  N   UNL     1     -10.439   9.746  68.377  1.00  0.00    -0.208 NA 
HETATM   17  H   UNL     1      -9.823   9.278  69.042  1.00  0.00     0.000 HD 
BRANCH  16  18
HETATM   18  N   UNL     1     -11.195   9.137  67.592  1.00  0.00    -0.341 NA 
HETATM   19  H   UNL     1     -12.159   9.414  67.407  1.00  0.00     0.000 HD 
BRANCH  18  20
HETATM   20  C   UNL     1     -10.573   8.022  66.986  1.00  0.00    -0.294 A  
HETATM   21  C   UNL     1     -11.066   6.712  67.080  1.00  0.00    -0.427 A  
HETATM   22  C   UNL     1     -10.364   5.631  66.532  1.00  0.00    -0.287 A  
HETATM   23  C   UNL     1      -9.147   5.853  65.889  1.00  0.00    -0.122 A  
HETATM   24  O   UNL     1      -8.455   4.786  65.378  1.00  0.00    -0.121 OA 
HETATM   25  C   UNL     1      -8.629   7.150  65.774  1.00  0.00    -0.143 A  
HETATM   26  C   UNL     1      -7.333   7.475  65.112  1.00  0.00    -0.073 C  
HETATM   27  C   UNL     1      -9.353   8.223  66.329  1.00  0.00    -0.267 A  
HETATM   28  H   UNL     1      -7.625   4.937  64.940  1.00  0.00     0.000 HD 
HETATM   29  O   UNL     1      -6.912   8.620  65.022  1.00  0.00    -0.074 OA 
HETATM   30  O   UNL     1      -6.648   6.420  64.622  1.00  0.00    -0.033 OA 
ENDBRANCH  18  20
ENDBRANCH  16  18
ENDBRANCH  13  16
ENDBRANCH   7  10
ENDBRANCH   5   6
ENDBRANCH   4   5
TORSDOF 6
ENDMDL
MODEL      224
REMARK 921   NORMALIZED FREE ENERGY PREDICTED BY IDOCK:   -4.63 KCAL/MOL
REMARK 922        TOTAL FREE ENERGY PREDICTED BY IDOCK:   -7.24 KCAL/MOL
REMARK 923 INTER-LIGAND FREE ENERGY PREDICTED BY IDOCK:   -6.78 KCAL/MOL
REMARK 924 INTRA-LIGAND FREE ENERGY PREDICTED BY IDOCK:   -0.46 KCAL/MOL
REMARK 927      BINDING AFFINITY PREDICTED BY RF-SCORE:    0.00 PKD
ROOT
HETATM    1  O   UNL     1     -10.258  16.679  65.503  1.00  0.00    -0.550 OA 
HETATM    2  C   UNL     1     -11.051  15.966  64.674  1.00  0.00    -0.354 C  
HETATM    3  O   UNL     1     -11.655  16.476  63.741  1.00  0.00    -1.109 OA 
HETATM    4  C   UNL     1     -11.121  14.500  65.002  1.00  0.00    -0.393 C  
ENDROOT
BRANCH   4   5
HETATM    5  C   UNL     1     -12.213  14.214  66.017  1.00  0.00    -0.443 C  
BRANCH   5   6
HETATM    6  N   UNL     1     -11.752  13.401  67.125  1.00  0.00    -0.357 N  
HETATM    7  C   UNL     1     -11.311  12.105  66.937  1.00  0.00    -0.343 C  
HETATM    8  H   UNL     1     -11.752  13.796  68.065  1.00  0.00     0.000 HD 
HETATM    9  O   UNL     1     -11.261  11.566  65.837  1.00  0.00    -0.274 OA 
BRANCH   7  10
HETATM   10  C   UNL     1     -10.945  11.345  68.169  1.00  0.00    -0.284 A  
HETATM   11  C   UNL     1      -9.590  11.186  68.479  1.00  0.00    -0.193 A  
HETATM   12  C   UNL     1      -9.202  10.418  69.585  1.00  0.00    -0.085 A  
HETATM   13  C   UNL     1     -10.151   9.805  70.414  1.00  0.00    -0.252 A  
HETATM   14  C   UNL     1     -11.907  10.779  69.014  1.00  0.00    -0.325 A  
HETATM   15  C   UNL     1     -11.510  10.007  70.117  1.00  0.00    -0.344 A  
BRANCH  13  16
HETATM   16  N   UNL     1      -9.685   8.964  71.449  1.00  0.00    -0.277 NA 
HETATM   17  H   UNL     1      -9.059   9.278  72.192  1.00  0.00     0.000 HD 
BRANCH  16  18
HETATM   18  N   UNL     1     -10.120   7.797  71.361  1.00  0.00    -0.181 NA 
HETATM   19  H   UNL     1     -11.047   7.514  71.679  1.00  0.00     0.000 HD 
BRANCH  18  20
HETATM   20  C   UNL     1      -9.191   6.909  70.773  1.00  0.00    -0.158 A  
HETATM   21  C   UNL     1      -8.192   6.240  71.497  1.00  0.00    -0.118 A  
HETATM   22  C   UNL     1      -7.244   5.438  70.852  1.00  0.00    -0.073 A  
HETATM   23  C   UNL     1      -7.280   5.305  69.464  1.00  0.00    -0.061 A  
HETATM   24  O   UNL     1      -6.331   4.538  68.840  1.00  0.00    -0.030 OA 
HETATM   25  C   UNL     1      -8.267   5.957  68.713  1.00  0.00    -0.103 A  
HETATM   26  C   UNL     1      -8.373   5.877  67.227  1.00  0.00    -0.105 C  
HETATM   27  C   UNL     1      -9.213   6.756  69.382  1.00  0.00    -0.143 A  
HETATM   28  H   UNL     1      -6.355   4.448  67.894  1.00  0.00     0.000 HD 
HETATM   29  O   UNL     1      -9.251   6.452  66.602  1.00  0.00    -0.142 OA 
HETATM   30  O   UNL     1      -7.428   5.131  66.615  1.00  0.00    -0.085 OA 
ENDBRANCH  18  20
ENDBRANCH  16  18
ENDBRANCH  13  16
ENDBRANCH   7  10
ENDBRANCH   5   6
ENDBRANCH   4   5
TORSDOF 6
ENDMDL
MODEL      225
REMARK 921   NORMALIZED FREE ENERGY PREDICTED BY IDOCK:   -4.61 KCAL/MOL
REMARK 922        TOTAL FREE ENERGY PREDICTED BY IDOCK:   -7.22 KCAL/MOL
REMARK 923 INTER-LIGAND FREE ENERGY PREDICTED BY IDOCK:   -6.54 KCAL/MOL
REMARK 924 INTRA-LIGAND FREE ENERGY PREDICTED BY IDOCK:   -0.67 KCAL/MOL
REMARK 927      BINDING AFFINITY PREDICTED BY RF-SCORE:    0.00 PKD
ROOT
HETATM    1  O   UNL     1     -11.443  16.351  63.593  1.00  0.00    -0.858 OA 
HETATM    2  C   UNL     1     -11.118  16.674  64.863  1.00  0.00    -0.129 C  
HETATM    3  O   UNL     1     -10.825  17.813  65.198  1.00  0.00    -0.671 OA 
HETATM    4  C   UNL     1     -11.150  15.514  65.819  1.00  0.00    -0.217 C  
ENDROOT
BRANCH   4   5
HETATM    5  C   UNL     1      -9.818  14.784  65.844  1.00  0.00    -0.334 C  
BRANCH   5   6
HETATM    6  N   UNL     1      -9.898  13.493  66.497  1.00  0.00    -0.284 N  
HETATM    7  C   UNL     1     -10.122  12.332  65.782  1.00  0.00    -0.252 C  
HETATM    8  H   UNL     1      -9.785  13.440  67.510  1.00  0.00     0.000 HD 
HETATM    9  O   UNL     1     -10.247  12.309  64.563  1.00  0.00    -0.290 OA 
BRANCH   7  10
HETATM   10  C   UNL     1     -10.270  11.080  66.582  1.00  0.00    -0.280 A  
HETATM   11  C   UNL     1     -10.018   9.853  65.956  1.00  0.00    -0.338 A  
HETATM   12  C   UNL     1     -10.216   8.651  66.650  1.00  0.00    -0.343 A  
HETATM   13  C   UNL     1     -10.653   8.644  67.981  1.00  0.00    -0.145 A  
HETATM   14  C   UNL     1     -10.661  11.091  67.925  1.00  0.00    -0.263 A  
HETATM   15  C   UNL     1     -10.862   9.882  68.611  1.00  0.00    -0.244 A  
BRANCH  13  16
HETATM   16  N   UNL     1     -10.927   7.395  68.582  1.00  0.00    -0.437 NA 
HETATM   17  H   UNL     1     -11.763   6.845  68.384  1.00  0.00     0.000 HD 
BRANCH  16  18
HETATM   18  N   UNL     1     -10.037   7.034  69.382  1.00  0.00    -0.166 NA 
HETATM   19  H   UNL     1      -9.625   7.651  70.083  1.00  0.00     0.000 HD 
BRANCH  18  20
HETATM   20  C   UNL     1      -9.662   5.683  69.212  1.00  0.00    -0.156 A  
HETATM   21  C   UNL     1      -9.905   4.684  70.166  1.00  0.00    -0.306 A  
HETATM   22  C   UNL     1      -9.437   3.377  69.985  1.00  0.00    -0.243 A  
HETATM   23  C   UNL     1      -8.704   3.059  68.842  1.00  0.00    -0.087 A  
HETATM   24  O   UNL     1      -8.228   1.783  68.685  1.00  0.00    -0.054 OA 
HETATM   25  C   UNL     1      -8.447   4.033  67.867  1.00  0.00    -0.103 A  
HETATM   26  C   UNL     1      -7.666   3.781  66.622  1.00  0.00    -0.088 C  
HETATM   27  C   UNL     1      -8.932   5.339  68.068  1.00  0.00    -0.113 A  
HETATM   28  H   UNL     1      -7.728   1.566  67.906  1.00  0.00     0.000 HD 
HETATM   29  O   UNL     1      -7.466   4.651  65.787  1.00  0.00    -0.079 OA 
HETATM   30  O   UNL     1      -7.188   2.527  66.478  1.00  0.00    -0.061 OA 
ENDBRANCH  18  20
ENDBRANCH  16  18
ENDBRANCH  13  16
ENDBRANCH   7  10
ENDBRANCH   5   6
ENDBRANCH   4   5
TORSDOF 6
ENDMDL
MODEL      226
REMARK 921   NORMALIZED FREE ENERGY PREDICTED BY IDOCK:   -4.61 KCAL/MOL
REMARK 922        TOTAL FREE ENERGY PREDICTED BY IDOCK:   -7.21 KCAL/MOL
REMARK 923 INTER-LIGAND FREE ENERGY PREDICTED BY IDOCK:   -6.07 KCAL/MOL
REMARK 924 INTRA-LIGAND FREE ENERGY PREDICTED BY IDOCK:   -1.14 KCAL/MOL
REMARK 927      BINDING AFFINITY PREDICTED BY RF-SCORE:    0.00 PKD
ROOT
HETATM    1  O   UNL     1     -11.029   7.040  71.125  1.00  0.00    -0.238 OA 
HETATM    2  C   UNL     1      -9.881   6.366  70.902  1.00  0.00    -0.184 C  
HETATM    3  O   UNL     1      -8.807   6.722  71.368  1.00  0.00    -0.131 OA 
HETATM    4  C   UNL     1     -10.041   5.147  70.036  1.00  0.00    -0.345 C  
ENDROOT
BRANCH   4   5
HETATM    5  C   UNL     1      -9.922   5.499  68.563  1.00  0.00    -0.157 C  
BRANCH   5   6
HETATM    6  N   UNL     1     -10.352   6.851  68.272  1.00  0.00    -0.183 N  
HETATM    7  C   UNL     1      -9.818   7.570  67.219  1.00  0.00    -0.179 C  
HETATM    8  H   UNL     1     -11.066   7.284  68.858  1.00  0.00     0.000 HD 
HETATM    9  O   UNL     1      -8.972   7.115  66.457  1.00  0.00    -0.140 OA 
BRANCH   7  10
HETATM   10  C   UNL     1     -10.281   8.982  67.079  1.00  0.00    -0.336 A  
HETATM   11  C   UNL     1     -10.770   9.642  68.212  1.00  0.00    -0.262 A  
HETATM   12  C   UNL     1     -11.282  10.942  68.109  1.00  0.00    -0.363 A  
HETATM   13  C   UNL     1     -11.306  11.618  66.881  1.00  0.00    -0.295 A  
HETATM   14  C   UNL     1     -10.255   9.661  65.855  1.00  0.00    -0.219 A  
HETATM   15  C   UNL     1     -10.775  10.961  65.759  1.00  0.00    -0.179 A  
BRANCH  13  16
HETATM   16  N   UNL     1     -11.929  12.886  66.834  1.00  0.00    -0.402 NA 
HETATM   17  H   UNL     1     -12.577  13.168  66.098  1.00  0.00     0.000 HD 
BRANCH  16  18
HETATM   18  N   UNL     1     -11.603  13.624  67.787  1.00  0.00    -0.318 NA 
HETATM   19  H   UNL     1     -12.087  13.632  68.686  1.00  0.00     0.000 HD 
BRANCH  18  20
HETATM   20  C   UNL     1     -10.495  14.447  67.489  1.00  0.00    -0.252 A  
HETATM   21  C   UNL     1     -10.560  15.556  66.631  1.00  0.00    -0.307 A  
HETATM   22  C   UNL     1      -9.412  16.287  66.303  1.00  0.00    -0.347 A  
HETATM   23  C   UNL     1      -8.177  15.906  66.826  1.00  0.00    -0.272 A  
HETATM   24  O   UNL     1      -7.055  16.613  66.478  1.00  0.00    -0.233 OA 
HETATM   25  C   UNL     1      -8.079  14.806  67.689  1.00  0.00    -0.183 A  
HETATM   26  C   UNL     1      -6.799  14.325  68.284  1.00  0.00    -0.109 C  
HETATM   27  C   UNL     1      -9.246  14.087  68.009  1.00  0.00    -0.201 A  
HETATM   28  H   UNL     1      -6.213  16.353  66.834  1.00  0.00     0.000 HD 
HETATM   29  O   UNL     1      -6.748  13.366  69.040  1.00  0.00    -0.102 OA 
HETATM   30  O   UNL     1      -5.695  15.016  67.929  1.00  0.00    -0.137 OA 
ENDBRANCH  18  20
ENDBRANCH  16  18
ENDBRANCH  13  16
ENDBRANCH   7  10
ENDBRANCH   5   6
ENDBRANCH   4   5
TORSDOF 6
ENDMDL
MODEL      227
REMARK 921   NORMALIZED FREE ENERGY PREDICTED BY IDOCK:   -4.61 KCAL/MOL
REMARK 922        TOTAL FREE ENERGY PREDICTED BY IDOCK:   -7.21 KCAL/MOL
REMARK 923 INTER-LIGAND FREE ENERGY PREDICTED BY IDOCK:   -6.24 KCAL/MOL
REMARK 924 INTRA-LIGAND FREE ENERGY PREDICTED BY IDOCK:   -0.96 KCAL/MOL
REMARK 927      BINDING AFFINITY PREDICTED BY RF-SCORE:    0.00 PKD
ROOT
HETATM    1  O   UNL     1      -5.698   7.557  63.906  1.00  0.00    -0.040 OA 
HETATM    2  C   UNL     1      -6.674   6.692  63.556  1.00  0.00    -0.048 C  
HETATM    3  O   UNL     1      -7.478   6.933  62.667  1.00  0.00    -0.071 OA 
HETATM    4  C   UNL     1      -6.679   5.417  64.352  1.00  0.00    -0.046 C  
ENDROOT
BRANCH   4   5
HETATM    5  C   UNL     1      -7.499   5.563  65.622  1.00  0.00    -0.077 C  
BRANCH   5   6
HETATM    6  N   UNL     1      -8.309   6.765  65.632  1.00  0.00    -0.144 N  
HETATM    7  C   UNL     1      -7.951   7.873  66.375  1.00  0.00    -0.102 C  
HETATM    8  H   UNL     1      -9.164   6.793  65.076  1.00  0.00     0.000 HD 
HETATM    9  O   UNL     1      -6.930   7.926  67.051  1.00  0.00    -0.070 OA 
BRANCH   7  10
HETATM   10  C   UNL     1      -8.914   9.014  66.369  1.00  0.00    -0.189 A  
HETATM   11  C   UNL     1      -9.982   8.993  67.274  1.00  0.00    -0.275 A  
HETATM   12  C   UNL     1     -10.949  10.007  67.252  1.00  0.00    -0.225 A  
HETATM   13  C   UNL     1     -10.867  11.069  66.341  1.00  0.00    -0.191 A  
HETATM   14  C   UNL     1      -8.793  10.092  65.485  1.00  0.00    -0.189 A  
HETATM   15  C   UNL     1      -9.769  11.101  65.466  1.00  0.00    -0.271 A  
BRANCH  13  16
HETATM   16  N   UNL     1     -11.931  11.999  66.309  1.00  0.00    -0.574 NA 
HETATM   17  H   UNL     1     -12.742  11.949  66.926  1.00  0.00     0.000 HD 
BRANCH  16  18
HETATM   18  N   UNL     1     -11.773  12.889  65.447  1.00  0.00    -0.354 NA 
HETATM   19  H   UNL     1     -11.891  12.732  64.446  1.00  0.00     0.000 HD 
BRANCH  18  20
HETATM   20  C   UNL     1     -11.412  14.135  66.006  1.00  0.00    -0.342 A  
HETATM   21  C   UNL     1     -10.678  15.112  65.316  1.00  0.00    -0.422 A  
HETATM   22  C   UNL     1     -10.274  16.295  65.945  1.00  0.00    -0.384 A  
HETATM   23  C   UNL     1     -10.593  16.508  67.285  1.00  0.00    -0.285 A  
HETATM   24  O   UNL     1     -10.171  17.659  67.900  1.00  0.00    -0.321 OA 
HETATM   25  C   UNL     1     -11.328  15.554  68.002  1.00  0.00    -0.332 A  
HETATM   26  C   UNL     1     -11.705  15.698  69.438  1.00  0.00    -0.383 C  
HETATM   27  C   UNL     1     -11.729  14.373  67.348  1.00  0.00    -0.424 A  
HETATM   28  H   UNL     1     -10.388  17.804  68.814  1.00  0.00     0.000 HD 
HETATM   29  O   UNL     1     -12.354  14.849  70.033  1.00  0.00    -0.324 OA 
HETATM   30  O   UNL     1     -11.275  16.826  70.043  1.00  0.00    -0.158 OA 
ENDBRANCH  18  20
ENDBRANCH  16  18
ENDBRANCH  13  16
ENDBRANCH   7  10
ENDBRANCH   5   6
ENDBRANCH   4   5
TORSDOF 6
ENDMDL
MODEL      228
REMARK 921   NORMALIZED FREE ENERGY PREDICTED BY IDOCK:   -4.60 KCAL/MOL
REMARK 922        TOTAL FREE ENERGY PREDICTED BY IDOCK:   -7.20 KCAL/MOL
REMARK 923 INTER-LIGAND FREE ENERGY PREDICTED BY IDOCK:   -6.38 KCAL/MOL
REMARK 924 INTRA-LIGAND FREE ENERGY PREDICTED BY IDOCK:   -0.82 KCAL/MOL
REMARK 927      BINDING AFFINITY PREDICTED BY RF-SCORE:    0.00 PKD
ROOT
HETATM    1  O   UNL     1      -9.508   4.566  71.264  1.00  0.00    -0.139 OA 
HETATM    2  C   UNL     1      -8.729   3.580  70.769  1.00  0.00    -0.074 C  
HETATM    3  O   UNL     1      -7.560   3.438  71.097  1.00  0.00    -0.043 OA 
HETATM    4  C   UNL     1      -9.428   2.681  69.786  1.00  0.00    -0.145 C  
ENDROOT
BRANCH   4   5
HETATM    5  C   UNL     1      -9.335   3.232  68.374  1.00  0.00    -0.180 C  
BRANCH   5   6
HETATM    6  N   UNL     1      -9.508   4.669  68.319  1.00  0.00    -0.140 N  
HETATM    7  C   UNL     1      -8.758   5.456  67.466  1.00  0.00    -0.107 C  
HETATM    8  H   UNL     1     -10.201   5.110  68.924  1.00  0.00     0.000 HD 
HETATM    9  O   UNL     1      -7.922   5.001  66.694  1.00  0.00    -0.106 OA 
BRANCH   7  10
HETATM   10  C   UNL     1      -8.970   6.931  67.567  1.00  0.00    -0.116 A  
HETATM   11  C   UNL     1      -9.902   7.533  66.714  1.00  0.00    -0.295 A  
HETATM   12  C   UNL     1     -10.078   8.923  66.726  1.00  0.00    -0.350 A  
HETATM   13  C   UNL     1      -9.344   9.741  67.595  1.00  0.00    -0.140 A  
HETATM   14  C   UNL     1      -8.263   7.728  68.474  1.00  0.00    -0.128 A  
HETATM   15  C   UNL     1      -8.442   9.121  68.476  1.00  0.00    -0.128 A  
BRANCH  13  16
HETATM   16  N   UNL     1      -9.500  11.141  67.481  1.00  0.00    -0.167 NA 
HETATM   17  H   UNL     1      -9.816  11.738  68.246  1.00  0.00     0.000 HD 
BRANCH  16  18
HETATM   18  N   UNL     1      -9.212  11.571  66.345  1.00  0.00    -0.203 NA 
HETATM   19  H   UNL     1      -8.866  10.980  65.588  1.00  0.00     0.000 HD 
BRANCH  18  20
HETATM   20  C   UNL     1      -9.415  12.964  66.218  1.00  0.00    -0.200 A  
HETATM   21  C   UNL     1      -8.754  13.920  67.003  1.00  0.00    -0.215 A  
HETATM   22  C   UNL     1      -9.056  15.282  66.894  1.00  0.00    -0.263 A  
HETATM   23  C   UNL     1     -10.039  15.703  66.000  1.00  0.00    -0.333 A  
HETATM   24  O   UNL     1     -10.346  17.036  65.919  1.00  0.00    -0.407 OA 
HETATM   25  C   UNL     1     -10.716  14.774  65.198  1.00  0.00    -0.433 A  
HETATM   26  C   UNL     1     -11.785  15.135  64.223  1.00  0.00    -0.224 C  
HETATM   27  C   UNL     1     -10.393  13.409  65.320  1.00  0.00    -0.330 A  
HETATM   28  H   UNL     1     -11.016  17.323  65.309  1.00  0.00     0.000 HD 
HETATM   29  O   UNL     1     -12.351  14.300  63.532  1.00  0.00    -0.714 OA 
HETATM   30  O   UNL     1     -12.093  16.448  64.156  1.00  0.00    -0.802 OA 
ENDBRANCH  18  20
ENDBRANCH  16  18
ENDBRANCH  13  16
ENDBRANCH   7  10
ENDBRANCH   5   6
ENDBRANCH   4   5
TORSDOF 6
ENDMDL
MODEL      229
REMARK 921   NORMALIZED FREE ENERGY PREDICTED BY IDOCK:   -4.60 KCAL/MOL
REMARK 922        TOTAL FREE ENERGY PREDICTED BY IDOCK:   -7.20 KCAL/MOL
REMARK 923 INTER-LIGAND FREE ENERGY PREDICTED BY IDOCK:   -5.93 KCAL/MOL
REMARK 924 INTRA-LIGAND FREE ENERGY PREDICTED BY IDOCK:   -1.26 KCAL/MOL
REMARK 927      BINDING AFFINITY PREDICTED BY RF-SCORE:    0.00 PKD
ROOT
HETATM    1  O   UNL     1      -7.791   4.398  66.903  1.00  0.00    -0.096 OA 
HETATM    2  C   UNL     1      -8.961   3.817  67.244  1.00  0.00    -0.140 C  
HETATM    3  O   UNL     1      -9.851   3.604  66.432  1.00  0.00    -0.134 OA 
HETATM    4  C   UNL     1      -9.068   3.459  68.700  1.00  0.00    -0.207 C  
ENDROOT
BRANCH   4   5
HETATM    5  C   UNL     1      -9.603   4.622  69.516  1.00  0.00    -0.188 C  
BRANCH   5   6
HETATM    6  N   UNL     1      -9.735   5.839  68.741  1.00  0.00    -0.126 N  
HETATM    7  C   UNL     1      -8.922   6.933  68.966  1.00  0.00    -0.132 C  
HETATM    8  H   UNL     1     -10.444   5.889  68.010  1.00  0.00     0.000 HD 
HETATM    9  O   UNL     1      -8.033   6.945  69.811  1.00  0.00    -0.119 OA 
BRANCH   7  10
HETATM   10  C   UNL     1      -9.216   8.154  68.160  1.00  0.00    -0.136 A  
HETATM   11  C   UNL     1     -10.144   8.060  67.117  1.00  0.00    -0.334 A  
HETATM   12  C   UNL     1     -10.394   9.164  66.290  1.00  0.00    -0.166 A  
HETATM   13  C   UNL     1      -9.739  10.386  66.490  1.00  0.00    -0.194 A  
HETATM   14  C   UNL     1      -8.587   9.381  68.403  1.00  0.00    -0.124 A  
HETATM   15  C   UNL     1      -8.840  10.480  67.566  1.00  0.00    -0.131 A  
BRANCH  13  16
HETATM   16  N   UNL     1      -9.965  11.422  65.556  1.00  0.00    -0.228 NA 
HETATM   17  H   UNL     1      -9.274  11.722  64.868  1.00  0.00     0.000 HD 
BRANCH  16  18
HETATM   18  N   UNL     1     -11.100  11.932  65.662  1.00  0.00    -0.313 NA 
HETATM   19  H   UNL     1     -11.914  11.611  65.137  1.00  0.00     0.000 HD 
BRANCH  18  20
HETATM   20  C   UNL     1     -11.138  13.001  66.585  1.00  0.00    -0.289 A  
HETATM   21  C   UNL     1     -11.950  13.011  67.729  1.00  0.00    -0.344 A  
HETATM   22  C   UNL     1     -12.012  14.132  68.564  1.00  0.00    -0.367 A  
HETATM   23  C   UNL     1     -11.264  15.267  68.254  1.00  0.00    -0.314 A  
HETATM   24  O   UNL     1     -11.352  16.369  69.064  1.00  0.00    -0.317 OA 
HETATM   25  C   UNL     1     -10.440  15.288  67.121  1.00  0.00    -0.280 A  
HETATM   26  C   UNL     1      -9.615  16.461  66.711  1.00  0.00    -0.248 C  
HETATM   27  C   UNL     1     -10.389  14.148  66.296  1.00  0.00    -0.294 A  
HETATM   28  H   UNL     1     -10.842  17.143  68.853  1.00  0.00     0.000 HD 
HETATM   29  O   UNL     1      -8.900  16.444  65.719  1.00  0.00    -0.446 OA 
HETATM   30  O   UNL     1      -9.715  17.549  67.504  1.00  0.00    -0.267 OA 
ENDBRANCH  18  20
ENDBRANCH  16  18
ENDBRANCH  13  16
ENDBRANCH   7  10
ENDBRANCH   5   6
ENDBRANCH   4   5
TORSDOF 6
ENDMDL
MODEL      230
REMARK 921   NORMALIZED FREE ENERGY PREDICTED BY IDOCK:   -4.60 KCAL/MOL
REMARK 922        TOTAL FREE ENERGY PREDICTED BY IDOCK:   -7.19 KCAL/MOL
REMARK 923 INTER-LIGAND FREE ENERGY PREDICTED BY IDOCK:   -6.03 KCAL/MOL
REMARK 924 INTRA-LIGAND FREE ENERGY PREDICTED BY IDOCK:   -1.17 KCAL/MOL
REMARK 927      BINDING AFFINITY PREDICTED BY RF-SCORE:    0.00 PKD
ROOT
HETATM    1  O   UNL     1      -5.206   8.452  66.608  1.00  0.00    -0.030 OA 
HETATM    2  C   UNL     1      -5.957   8.202  65.514  1.00  0.00    -0.045 C  
HETATM    3  O   UNL     1      -6.704   9.037  65.024  1.00  0.00    -0.068 OA 
HETATM    4  C   UNL     1      -5.790   6.815  64.959  1.00  0.00    -0.035 C  
ENDROOT
BRANCH   4   5
HETATM    5  C   UNL     1      -6.741   5.836  65.625  1.00  0.00    -0.048 C  
BRANCH   5   6
HETATM    6  N   UNL     1      -7.394   6.394  66.792  1.00  0.00    -0.077 N  
HETATM    7  C   UNL     1      -8.761   6.297  66.973  1.00  0.00    -0.108 C  
HETATM    8  H   UNL     1      -6.832   6.871  67.497  1.00  0.00     0.000 HD 
HETATM    9  O   UNL     1      -9.502   5.723  66.183  1.00  0.00    -0.159 OA 
BRANCH   7  10
HETATM   10  C   UNL     1      -9.321   6.988  68.171  1.00  0.00    -0.125 A  
HETATM   11  C   UNL     1     -10.643   6.717  68.542  1.00  0.00    -0.265 A  
HETATM   12  C   UNL     1     -11.231   7.400  69.616  1.00  0.00    -0.065 A  
HETATM   13  C   UNL     1     -10.514   8.353  70.351  1.00  0.00    -0.214 A  
HETATM   14  C   UNL     1      -8.577   7.904  68.924  1.00  0.00    -0.132 A  
HETATM   15  C   UNL     1      -9.175   8.587  69.995  1.00  0.00    -0.155 A  
BRANCH  13  16
HETATM   16  N   UNL     1     -11.202   9.073  71.354  1.00  0.00    -0.296 NA 
HETATM   17  H   UNL     1     -10.827   9.236  72.289  1.00  0.00     0.000 HD 
BRANCH  16  18
HETATM   18  N   UNL     1     -12.317   9.489  70.975  1.00  0.00    -0.377 NA 
HETATM   19  H   UNL     1     -13.169   8.929  71.007  1.00  0.00     0.000 HD 
BRANCH  18  20
HETATM   20  C   UNL     1     -12.274  10.818  70.499  1.00  0.00    -0.366 A  
HETATM   21  C   UNL     1     -11.806  11.171  69.223  1.00  0.00    -0.422 A  
HETATM   22  C   UNL     1     -11.705  12.511  68.833  1.00  0.00    -0.367 A  
HETATM   23  C   UNL     1     -12.063  13.520  69.726  1.00  0.00    -0.318 A  
HETATM   24  O   UNL     1     -11.935  14.830  69.343  1.00  0.00    -0.299 OA 
HETATM   25  C   UNL     1     -12.537  13.202  71.006  1.00  0.00    -0.397 A  
HETATM   26  C   UNL     1     -12.932  14.216  72.026  1.00  0.00    -0.360 C  
HETATM   27  C   UNL     1     -12.635  11.847  71.377  1.00  0.00    -0.346 A  
HETATM   28  H   UNL     1     -12.179  15.518  69.953  1.00  0.00     0.000 HD 
HETATM   29  O   UNL     1     -13.349  13.905  73.132  1.00  0.00    -0.571 OA 
HETATM   30  O   UNL     1     -12.792  15.505  71.649  1.00  0.00    -0.384 OA 
ENDBRANCH  18  20
ENDBRANCH  16  18
ENDBRANCH  13  16
ENDBRANCH   7  10
ENDBRANCH   5   6
ENDBRANCH   4   5
TORSDOF 6
ENDMDL
MODEL      231
REMARK 921   NORMALIZED FREE ENERGY PREDICTED BY IDOCK:   -4.56 KCAL/MOL
REMARK 922        TOTAL FREE ENERGY PREDICTED BY IDOCK:   -7.15 KCAL/MOL
REMARK 923 INTER-LIGAND FREE ENERGY PREDICTED BY IDOCK:   -5.94 KCAL/MOL
REMARK 924 INTRA-LIGAND FREE ENERGY PREDICTED BY IDOCK:   -1.20 KCAL/MOL
REMARK 927      BINDING AFFINITY PREDICTED BY RF-SCORE:    0.00 PKD
ROOT
HETATM    1  O   UNL     1      -7.375   7.372  63.350  1.00  0.00    -0.074 OA 
HETATM    2  C   UNL     1      -6.915   8.628  63.533  1.00  0.00    -0.089 C  
HETATM    3  O   UNL     1      -6.305   8.965  64.538  1.00  0.00    -0.069 OA 
HETATM    4  C   UNL     1      -7.219   9.565  62.397  1.00  0.00    -0.106 C  
ENDROOT
BRANCH   4   5
HETATM    5  C   UNL     1      -8.578  10.220  62.571  1.00  0.00    -0.199 C  
BRANCH   5   6
HETATM    6  N   UNL     1      -9.165   9.958  63.870  1.00  0.00    -0.299 N  
HETATM    7  C   UNL     1      -9.796  10.953  64.593  1.00  0.00    -0.294 C  
HETATM    8  H   UNL     1      -9.111   9.018  64.260  1.00  0.00     0.000 HD 
HETATM    9  O   UNL     1      -9.921  12.102  64.185  1.00  0.00    -0.296 OA 
BRANCH   7  10
HETATM   10  C   UNL     1     -10.282  10.576  65.953  1.00  0.00    -0.311 A  
HETATM   11  C   UNL     1     -11.103  11.475  66.643  1.00  0.00    -0.355 A  
HETATM   12  C   UNL     1     -11.520  11.193  67.951  1.00  0.00    -0.359 A  
HETATM   13  C   UNL     1     -11.142  10.007  68.594  1.00  0.00    -0.174 A  
HETATM   14  C   UNL     1      -9.934   9.366  66.564  1.00  0.00    -0.339 A  
HETATM   15  C   UNL     1     -10.352   9.094  67.876  1.00  0.00    -0.285 A  
BRANCH  13  16
HETATM   16  N   UNL     1     -11.515   9.837  69.947  1.00  0.00    -0.396 NA 
HETATM   17  H   UNL     1     -12.468   9.627  70.246  1.00  0.00     0.000 HD 
BRANCH  16  18
HETATM   18  N   UNL     1     -10.557   9.970  70.736  1.00  0.00    -0.378 NA 
HETATM   19  H   UNL     1      -9.969  10.802  70.775  1.00  0.00     0.000 HD 
BRANCH  18  20
HETATM   20  C   UNL     1     -10.373   8.844  71.570  1.00  0.00    -0.324 A  
HETATM   21  C   UNL     1     -11.278   8.464  72.572  1.00  0.00    -0.406 A  
HETATM   22  C   UNL     1     -11.006   7.389  73.426  1.00  0.00    -0.292 A  
HETATM   23  C   UNL     1      -9.809   6.686  73.291  1.00  0.00    -0.179 A  
HETATM   24  O   UNL     1      -9.540   5.651  74.149  1.00  0.00    -0.139 OA 
HETATM   25  C   UNL     1      -8.886   7.037  72.298  1.00  0.00    -0.143 A  
HETATM   26  C   UNL     1      -7.581   6.346  72.090  1.00  0.00    -0.094 C  
HETATM   27  C   UNL     1      -9.182   8.119  71.446  1.00  0.00    -0.195 A  
HETATM   28  H   UNL     1      -8.724   5.172  74.058  1.00  0.00     0.000 HD 
HETATM   29  O   UNL     1      -6.800   6.672  71.208  1.00  0.00    -0.060 OA 
HETATM   30  O   UNL     1      -7.314   5.336  72.945  1.00  0.00    -0.088 OA 
ENDBRANCH  18  20
ENDBRANCH  16  18
ENDBRANCH  13  16
ENDBRANCH   7  10
ENDBRANCH   5   6
ENDBRANCH   4   5
TORSDOF 6
ENDMDL
MODEL      232
REMARK 921   NORMALIZED FREE ENERGY PREDICTED BY IDOCK:   -4.55 KCAL/MOL
REMARK 922        TOTAL FREE ENERGY PREDICTED BY IDOCK:   -7.13 KCAL/MOL
REMARK 923 INTER-LIGAND FREE ENERGY PREDICTED BY IDOCK:   -5.91 KCAL/MOL
REMARK 924 INTRA-LIGAND FREE ENERGY PREDICTED BY IDOCK:   -1.22 KCAL/MOL
REMARK 927      BINDING AFFINITY PREDICTED BY RF-SCORE:    0.00 PKD
ROOT
HETATM    1  O   UNL     1      -8.268  16.170  66.093  1.00  0.00    -0.299 OA 
HETATM    2  C   UNL     1      -9.586  16.045  66.357  1.00  0.00    -0.283 C  
HETATM    3  O   UNL     1     -10.026  15.977  67.496  1.00  0.00    -0.235 OA 
HETATM    4  C   UNL     1     -10.457  15.999  65.131  1.00  0.00    -0.331 C  
ENDROOT
BRANCH   4   5
HETATM    5  C   UNL     1     -10.600  14.579  64.611  1.00  0.00    -0.272 C  
BRANCH   5   6
HETATM    6  N   UNL     1     -10.203  13.581  65.583  1.00  0.00    -0.293 N  
HETATM    7  C   UNL     1     -11.130  12.763  66.201  1.00  0.00    -0.290 C  
HETATM    8  H   UNL     1      -9.215  13.480  65.818  1.00  0.00     0.000 HD 
HETATM    9  O   UNL     1     -12.330  12.809  65.959  1.00  0.00    -0.547 OA 
BRANCH   7  10
HETATM   10  C   UNL     1     -10.603  11.838  67.247  1.00  0.00    -0.259 A  
HETATM   11  C   UNL     1     -11.502  10.987  67.901  1.00  0.00    -0.358 A  
HETATM   12  C   UNL     1     -11.061  10.155  68.939  1.00  0.00    -0.251 A  
HETATM   13  C   UNL     1      -9.718  10.141  69.339  1.00  0.00    -0.229 A  
HETATM   14  C   UNL     1      -9.250  11.802  67.603  1.00  0.00    -0.180 A  
HETATM   15  C   UNL     1      -8.819  10.969  68.648  1.00  0.00    -0.164 A  
BRANCH  13  16
HETATM   16  N   UNL     1      -9.367   9.353  70.459  1.00  0.00    -0.255 NA 
HETATM   17  H   UNL     1      -9.833   9.420  71.364  1.00  0.00     0.000 HD 
BRANCH  16  18
HETATM   18  N   UNL     1      -8.427   8.566  70.224  1.00  0.00    -0.122 NA 
HETATM   19  H   UNL     1      -7.473   8.869  70.024  1.00  0.00     0.000 HD 
BRANCH  18  20
HETATM   20  C   UNL     1      -8.824   7.211  70.262  1.00  0.00    -0.148 A  
HETATM   21  C   UNL     1      -9.026   6.494  71.452  1.00  0.00    -0.140 A  
HETATM   22  C   UNL     1      -9.337   5.130  71.433  1.00  0.00    -0.189 A  
HETATM   23  C   UNL     1      -9.436   4.461  70.214  1.00  0.00    -0.171 A  
HETATM   24  O   UNL     1      -9.715   3.119  70.206  1.00  0.00    -0.151 OA 
HETATM   25  C   UNL     1      -9.244   5.148  69.007  1.00  0.00    -0.156 A  
HETATM   26  C   UNL     1      -9.323   4.509  67.662  1.00  0.00    -0.147 C  
HETATM   27  C   UNL     1      -8.937   6.521  69.049  1.00  0.00    -0.129 A  
HETATM   28  H   UNL     1      -9.783   2.663  69.375  1.00  0.00     0.000 HD 
HETATM   29  O   UNL     1      -9.157   5.139  66.628  1.00  0.00    -0.117 OA 
HETATM   30  O   UNL     1      -9.584   3.185  67.660  1.00  0.00    -0.197 OA 
ENDBRANCH  18  20
ENDBRANCH  16  18
ENDBRANCH  13  16
ENDBRANCH   7  10
ENDBRANCH   5   6
ENDBRANCH   4   5
TORSDOF 6
ENDMDL
MODEL      233
REMARK 921   NORMALIZED FREE ENERGY PREDICTED BY IDOCK:   -4.55 KCAL/MOL
REMARK 922        TOTAL FREE ENERGY PREDICTED BY IDOCK:   -7.13 KCAL/MOL
REMARK 923 INTER-LIGAND FREE ENERGY PREDICTED BY IDOCK:   -6.52 KCAL/MOL
REMARK 924 INTRA-LIGAND FREE ENERGY PREDICTED BY IDOCK:   -0.61 KCAL/MOL
REMARK 927      BINDING AFFINITY PREDICTED BY RF-SCORE:    0.00 PKD
ROOT
HETATM    1  O   UNL     1      -9.555   2.706  70.051  1.00  0.00    -0.117 OA 
HETATM    2  C   UNL     1      -8.930   3.418  71.012  1.00  0.00    -0.096 C  
HETATM    3  O   UNL     1      -8.447   2.897  72.008  1.00  0.00    -0.064 OA 
HETATM    4  C   UNL     1      -8.881   4.897  70.747  1.00  0.00    -0.154 C  
ENDROOT
BRANCH   4   5
HETATM    5  C   UNL     1     -10.122   5.593  71.277  1.00  0.00    -0.206 C  
BRANCH   5   6
HETATM    6  N   UNL     1     -10.282   6.934  70.752  1.00  0.00    -0.195 N  
HETATM    7  C   UNL     1     -11.369   7.718  71.087  1.00  0.00    -0.269 C  
HETATM    8  H   UNL     1      -9.574   7.309  70.121  1.00  0.00     0.000 HD 
HETATM    9  O   UNL     1     -12.251   7.349  71.854  1.00  0.00    -0.297 OA 
BRANCH   7  10
HETATM   10  C   UNL     1     -11.462   9.046  70.411  1.00  0.00    -0.202 A  
HETATM   11  C   UNL     1     -10.864   9.200  69.155  1.00  0.00    -0.131 A  
HETATM   12  C   UNL     1     -10.864  10.450  68.519  1.00  0.00    -0.278 A  
HETATM   13  C   UNL     1     -11.470  11.566  69.112  1.00  0.00    -0.297 A  
HETATM   14  C   UNL     1     -12.111  10.140  70.995  1.00  0.00    -0.476 A  
HETATM   15  C   UNL     1     -12.102  11.388  70.354  1.00  0.00    -0.473 A  
BRANCH  13  16
HETATM   16  N   UNL     1     -11.343  12.814  68.460  1.00  0.00    -0.268 NA 
HETATM   17  H   UNL     1     -11.724  13.008  67.534  1.00  0.00     0.000 HD 
BRANCH  16  18
HETATM   18  N   UNL     1     -10.715  13.654  69.138  1.00  0.00    -0.416 NA 
HETATM   19  H   UNL     1     -10.944  13.884  70.105  1.00  0.00     0.000 HD 
BRANCH  18  20
HETATM   20  C   UNL     1      -9.654  14.253  68.423  1.00  0.00    -0.221 A  
HETATM   21  C   UNL     1      -8.346  13.745  68.403  1.00  0.00    -0.152 A  
HETATM   22  C   UNL     1      -7.313  14.425  67.747  1.00  0.00    -0.186 A  
HETATM   23  C   UNL     1      -7.579  15.636  67.111  1.00  0.00    -0.223 A  
HETATM   24  O   UNL     1      -6.556  16.308  66.493  1.00  0.00    -0.224 OA 
HETATM   25  C   UNL     1      -8.875  16.170  67.109  1.00  0.00    -0.218 A  
HETATM   26  C   UNL     1      -9.245  17.461  66.461  1.00  0.00    -0.266 C  
HETATM   27  C   UNL     1      -9.900  15.467  67.770  1.00  0.00    -0.220 A  
HETATM   28  H   UNL     1      -6.737  17.134  66.060  1.00  0.00     0.000 HD 
HETATM   29  O   UNL     1     -10.387  17.896  66.472  1.00  0.00    -0.357 OA 
HETATM   30  O   UNL     1      -8.231  18.126  65.866  1.00  0.00    -0.513 OA 
ENDBRANCH  18  20
ENDBRANCH  16  18
ENDBRANCH  13  16
ENDBRANCH   7  10
ENDBRANCH   5   6
ENDBRANCH   4   5
TORSDOF 6
ENDMDL
MODEL      234
REMARK 921   NORMALIZED FREE ENERGY PREDICTED BY IDOCK:   -4.54 KCAL/MOL
REMARK 922        TOTAL FREE ENERGY PREDICTED BY IDOCK:   -7.12 KCAL/MOL
REMARK 923 INTER-LIGAND FREE ENERGY PREDICTED BY IDOCK:   -6.01 KCAL/MOL
REMARK 924 INTRA-LIGAND FREE ENERGY PREDICTED BY IDOCK:   -1.11 KCAL/MOL
REMARK 927      BINDING AFFINITY PREDICTED BY RF-SCORE:    0.00 PKD
ROOT
HETATM    1  O   UNL     1     -11.927  12.928  70.187  1.00  0.00    -0.341 OA 
HETATM    2  C   UNL     1     -11.854  12.401  68.946  1.00  0.00    -0.301 C  
HETATM    3  O   UNL     1     -12.403  11.351  68.644  1.00  0.00    -0.491 OA 
HETATM    4  C   UNL     1     -11.042  13.217  67.979  1.00  0.00    -0.282 C  
ENDROOT
BRANCH   4   5
HETATM    5  C   UNL     1      -9.571  12.843  68.040  1.00  0.00    -0.221 C  
BRANCH   5   6
HETATM    6  N   UNL     1      -9.361  11.417  68.188  1.00  0.00    -0.175 N  
HETATM    7  C   UNL     1      -9.226  10.587  67.091  1.00  0.00    -0.143 C  
HETATM    8  H   UNL     1      -9.309  11.016  69.124  1.00  0.00     0.000 HD 
HETATM    9  O   UNL     1      -9.255  10.995  65.935  1.00  0.00    -0.186 OA 
BRANCH   7  10
HETATM   10  C   UNL     1      -9.101   9.127  67.376  1.00  0.00    -0.142 A  
HETATM   11  C   UNL     1     -10.089   8.264  66.888  1.00  0.00    -0.366 A  
HETATM   12  C   UNL     1     -10.048   6.897  67.195  1.00  0.00    -0.272 A  
HETATM   13  C   UNL     1      -9.019   6.358  67.979  1.00  0.00    -0.115 A  
HETATM   14  C   UNL     1      -8.042   8.598  68.121  1.00  0.00    -0.115 A  
HETATM   15  C   UNL     1      -8.012   7.228  68.428  1.00  0.00    -0.124 A  
BRANCH  13  16
HETATM   16  N   UNL     1      -9.099   4.992  68.331  1.00  0.00    -0.111 NA 
HETATM   17  H   UNL     1      -8.367   4.312  68.123  1.00  0.00     0.000 HD 
BRANCH  16  18
HETATM   18  N   UNL     1     -10.159   4.704  68.924  1.00  0.00    -0.096 NA 
HETATM   19  H   UNL     1     -10.895   4.127  68.517  1.00  0.00     0.000 HD 
BRANCH  18  20
HETATM   20  C   UNL     1     -10.232   5.262  70.220  1.00  0.00    -0.275 A  
HETATM   21  C   UNL     1      -9.482   4.794  71.310  1.00  0.00    -0.216 A  
HETATM   22  C   UNL     1      -9.655   5.328  72.592  1.00  0.00    -0.168 A  
HETATM   23  C   UNL     1     -10.597   6.336  72.799  1.00  0.00    -0.228 A  
HETATM   24  O   UNL     1     -10.777   6.834  74.064  1.00  0.00    -0.484 OA 
HETATM   25  C   UNL     1     -11.359   6.827  71.732  1.00  0.00    -0.307 A  
HETATM   26  C   UNL     1     -12.392   7.895  71.866  1.00  0.00    -0.315 C  
HETATM   27  C   UNL     1     -11.166   6.279  70.449  1.00  0.00    -0.439 A  
HETATM   28  H   UNL     1     -11.420   7.520  74.205  1.00  0.00     0.000 HD 
HETATM   29  O   UNL     1     -13.036   8.307  70.912  1.00  0.00    -0.014 OA 
HETATM   30  O   UNL     1     -12.576   8.373  73.115  1.00  0.00    -0.084 OA 
ENDBRANCH  18  20
ENDBRANCH  16  18
ENDBRANCH  13  16
ENDBRANCH   7  10
ENDBRANCH   5   6
ENDBRANCH   4   5
TORSDOF 6
ENDMDL
MODEL      235
REMARK 921   NORMALIZED FREE ENERGY PREDICTED BY IDOCK:   -4.53 KCAL/MOL
REMARK 922        TOTAL FREE ENERGY PREDICTED BY IDOCK:   -7.10 KCAL/MOL
REMARK 923 INTER-LIGAND FREE ENERGY PREDICTED BY IDOCK:   -5.87 KCAL/MOL
REMARK 924 INTRA-LIGAND FREE ENERGY PREDICTED BY IDOCK:   -1.23 KCAL/MOL
REMARK 927      BINDING AFFINITY PREDICTED BY RF-SCORE:    0.00 PKD
ROOT
HETATM    1  O   UNL     1      -6.027   9.682  64.472  1.00  0.00    -0.076 OA 
HETATM    2  C   UNL     1      -7.061   9.239  63.725  1.00  0.00    -0.095 C  
HETATM    3  O   UNL     1      -8.189   9.701  63.822  1.00  0.00    -0.140 OA 
HETATM    4  C   UNL     1      -6.699   8.134  62.771  1.00  0.00    -0.086 C  
ENDROOT
BRANCH   4   5
HETATM    5  C   UNL     1      -6.816   6.773  63.434  1.00  0.00    -0.050 C  
BRANCH   5   6
HETATM    6  N   UNL     1      -7.345   6.848  64.781  1.00  0.00    -0.082 N  
HETATM    7  C   UNL     1      -8.348   6.002  65.213  1.00  0.00    -0.148 C  
HETATM    8  H   UNL     1      -6.966   7.542  65.426  1.00  0.00     0.000 HD 
HETATM    9  O   UNL     1      -8.840   5.129  64.506  1.00  0.00    -0.140 OA 
BRANCH   7  10
HETATM   10  C   UNL     1      -8.865   6.239  66.593  1.00  0.00    -0.132 A  
HETATM   11  C   UNL     1      -9.927   5.452  67.054  1.00  0.00    -0.204 A  
HETATM   12  C   UNL     1     -10.489   5.690  68.315  1.00  0.00    -0.257 A  
HETATM   13  C   UNL     1     -10.000   6.705  69.149  1.00  0.00    -0.157 A  
HETATM   14  C   UNL     1      -8.335   7.225  67.433  1.00  0.00    -0.119 A  
HETATM   15  C   UNL     1      -8.908   7.460  68.693  1.00  0.00    -0.126 A  
BRANCH  13  16
HETATM   16  N   UNL     1     -10.681   6.953  70.362  1.00  0.00    -0.236 NA 
HETATM   17  H   UNL     1     -10.237   6.902  71.279  1.00  0.00     0.000 HD 
BRANCH  16  18
HETATM   18  N   UNL     1     -11.884   7.243  70.194  1.00  0.00    -0.538 NA 
HETATM   19  H   UNL     1     -12.529   6.676  69.642  1.00  0.00     0.000 HD 
BRANCH  18  20
HETATM   20  C   UNL     1     -12.258   8.438  70.847  1.00  0.00    -0.095 A  
HETATM   21  C   UNL     1     -13.062   8.477  71.997  1.00  0.00    -0.403 A  
HETATM   22  C   UNL     1     -13.472   9.693  72.555  1.00  0.00    -0.320 A  
HETATM   23  C   UNL     1     -13.087  10.892  71.956  1.00  0.00    -0.356 A  
HETATM   24  O   UNL     1     -13.515  12.077  72.496  1.00  0.00    -0.590 OA 
HETATM   25  C   UNL     1     -12.281  10.889  70.810  1.00  0.00    -0.483 A  
HETATM   26  C   UNL     1     -11.832  12.122  70.103  1.00  0.00    -0.287 C  
HETATM   27  C   UNL     1     -11.876   9.654  70.268  1.00  0.00    -0.157 A  
HETATM   28  H   UNL     1     -13.253  12.895  72.088  1.00  0.00     0.000 HD 
HETATM   29  O   UNL     1     -11.122  12.085  69.108  1.00  0.00    -0.232 OA 
HETATM   30  O   UNL     1     -12.267  13.287  70.629  1.00  0.00    -0.360 OA 
ENDBRANCH  18  20
ENDBRANCH  16  18
ENDBRANCH  13  16
ENDBRANCH   7  10
ENDBRANCH   5   6
ENDBRANCH   4   5
TORSDOF 6
ENDMDL
MODEL      236
REMARK 921   NORMALIZED FREE ENERGY PREDICTED BY IDOCK:   -4.51 KCAL/MOL
REMARK 922        TOTAL FREE ENERGY PREDICTED BY IDOCK:   -7.07 KCAL/MOL
REMARK 923 INTER-LIGAND FREE ENERGY PREDICTED BY IDOCK:   -6.00 KCAL/MOL
REMARK 924 INTRA-LIGAND FREE ENERGY PREDICTED BY IDOCK:   -1.07 KCAL/MOL
REMARK 927      BINDING AFFINITY PREDICTED BY RF-SCORE:    0.00 PKD
ROOT
HETATM    1  O   UNL     1      -5.374  18.588  67.783  1.00  0.00    -0.165 OA 
HETATM    2  C   UNL     1      -6.388  19.041  68.550  1.00  0.00    -0.235 C  
HETATM    3  O   UNL     1      -6.682  18.530  69.621  1.00  0.00    -0.181 OA 
HETATM    4  C   UNL     1      -7.115  20.223  67.971  1.00  0.00    -0.316 C  
ENDROOT
BRANCH   4   5
HETATM    5  C   UNL     1      -8.237  19.782  67.047  1.00  0.00    -0.303 C  
BRANCH   5   6
HETATM    6  N   UNL     1      -8.605  18.393  67.235  1.00  0.00    -0.255 N  
HETATM    7  C   UNL     1      -9.893  18.024  67.572  1.00  0.00    -0.309 C  
HETATM    8  H   UNL     1      -7.895  17.670  67.114  1.00  0.00     0.000 HD 
HETATM    9  O   UNL     1     -10.805  18.830  67.715  1.00  0.00    -0.389 OA 
BRANCH   7  10
HETATM   10  C   UNL     1     -10.121  16.570  67.822  1.00  0.00    -0.264 A  
HETATM   11  C   UNL     1      -9.017  15.711  67.833  1.00  0.00    -0.180 A  
HETATM   12  C   UNL     1      -9.195  14.330  67.991  1.00  0.00    -0.192 A  
HETATM   13  C   UNL     1     -10.472  13.776  68.154  1.00  0.00    -0.249 A  
HETATM   14  C   UNL     1     -11.399  16.038  68.031  1.00  0.00    -0.266 A  
HETATM   15  C   UNL     1     -11.569  14.653  68.183  1.00  0.00    -0.362 A  
BRANCH  13  16
HETATM   16  N   UNL     1     -10.583  12.368  68.206  1.00  0.00    -0.215 NA 
HETATM   17  H   UNL     1     -10.288  11.808  69.006  1.00  0.00     0.000 HD 
BRANCH  16  18
HETATM   18  N   UNL     1     -11.081  11.882  67.169  1.00  0.00    -0.275 NA 
HETATM   19  H   UNL     1     -11.681  12.406  66.531  1.00  0.00     0.000 HD 
BRANCH  18  20
HETATM   20  C   UNL     1     -10.728  10.528  66.974  1.00  0.00    -0.250 A  
HETATM   21  C   UNL     1     -11.015   9.509  67.895  1.00  0.00    -0.172 A  
HETATM   22  C   UNL     1     -10.567   8.199  67.692  1.00  0.00    -0.258 A  
HETATM   23  C   UNL     1      -9.810   7.896  66.561  1.00  0.00    -0.202 A  
HETATM   24  O   UNL     1      -9.354   6.615  66.383  1.00  0.00    -0.162 OA 
HETATM   25  C   UNL     1      -9.509   8.889  65.619  1.00  0.00    -0.230 A  
HETATM   26  C   UNL     1      -8.699   8.654  64.389  1.00  0.00     0.029 C  
HETATM   27  C   UNL     1      -9.974  10.199  65.841  1.00  0.00    -0.334 A  
HETATM   28  H   UNL     1      -8.838   6.409  65.613  1.00  0.00     0.000 HD 
HETATM   29  O   UNL     1      -8.460   9.541  63.583  1.00  0.00    -0.169 OA 
HETATM   30  O   UNL     1      -8.241   7.395  64.225  1.00  0.00    -0.093 OA 
ENDBRANCH  18  20
ENDBRANCH  16  18
ENDBRANCH  13  16
ENDBRANCH   7  10
ENDBRANCH   5   6
ENDBRANCH   4   5
TORSDOF 6
ENDMDL
MODEL      237
REMARK 921   NORMALIZED FREE ENERGY PREDICTED BY IDOCK:   -4.51 KCAL/MOL
REMARK 922        TOTAL FREE ENERGY PREDICTED BY IDOCK:   -7.07 KCAL/MOL
REMARK 923 INTER-LIGAND FREE ENERGY PREDICTED BY IDOCK:   -6.31 KCAL/MOL
REMARK 924 INTRA-LIGAND FREE ENERGY PREDICTED BY IDOCK:   -0.77 KCAL/MOL
REMARK 927      BINDING AFFINITY PREDICTED BY RF-SCORE:    0.00 PKD
ROOT
HETATM    1  O   UNL     1      -6.812   1.524  66.954  1.00  0.00    -0.036 OA 
HETATM    2  C   UNL     1      -7.607   2.596  66.751  1.00  0.00    -0.071 C  
HETATM    3  O   UNL     1      -7.186   3.651  66.297  1.00  0.00    -0.062 OA 
HETATM    4  C   UNL     1      -9.045   2.376  67.132  1.00  0.00    -0.164 C  
ENDROOT
BRANCH   4   5
HETATM    5  C   UNL     1      -9.281   2.691  68.599  1.00  0.00    -0.179 C  
BRANCH   5   6
HETATM    6  N   UNL     1      -9.866   4.001  68.804  1.00  0.00    -0.062 N  
HETATM    7  C   UNL     1      -9.092   5.094  69.144  1.00  0.00    -0.102 C  
HETATM    8  H   UNL     1     -10.873   4.119  68.695  1.00  0.00     0.000 HD 
HETATM    9  O   UNL     1      -7.874   5.040  69.274  1.00  0.00    -0.074 OA 
BRANCH   7  10
HETATM   10  C   UNL     1      -9.825   6.367  69.414  1.00  0.00    -0.170 A  
HETATM   11  C   UNL     1      -9.484   7.505  68.674  1.00  0.00    -0.146 A  
HETATM   12  C   UNL     1     -10.096   8.736  68.946  1.00  0.00    -0.210 A  
HETATM   13  C   UNL     1     -11.069   8.858  69.947  1.00  0.00    -0.136 A  
HETATM   14  C   UNL     1     -10.829   6.462  70.385  1.00  0.00    -0.343 A  
HETATM   15  C   UNL     1     -11.433   7.700  70.654  1.00  0.00    -0.276 A  
BRANCH  13  16
HETATM   16  N   UNL     1     -11.569  10.149  70.233  1.00  0.00    -0.284 NA 
HETATM   17  H   UNL     1     -11.434  10.620  71.128  1.00  0.00     0.000 HD 
BRANCH  16  18
HETATM   18  N   UNL     1     -12.192  10.652  69.276  1.00  0.00    -0.669 NA 
HETATM   19  H   UNL     1     -12.825  10.124  68.675  1.00  0.00     0.000 HD 
BRANCH  18  20
HETATM   20  C   UNL     1     -11.927  12.030  69.112  1.00  0.00    -0.268 A  
HETATM   21  C   UNL     1     -11.910  12.948  70.173  1.00  0.00    -0.319 A  
HETATM   22  C   UNL     1     -11.725  14.317  69.945  1.00  0.00    -0.373 A  
HETATM   23  C   UNL     1     -11.568  14.785  68.641  1.00  0.00    -0.319 A  
HETATM   24  O   UNL     1     -11.414  16.130  68.425  1.00  0.00    -0.369 OA 
HETATM   25  C   UNL     1     -11.576  13.893  67.559  1.00  0.00    -0.392 A  
HETATM   26  C   UNL     1     -11.424  14.308  66.135  1.00  0.00    -0.355 C  
HETATM   27  C   UNL     1     -11.758  12.520  67.812  1.00  0.00    -0.419 A  
HETATM   28  H   UNL     1     -11.307  16.449  67.536  1.00  0.00     0.000 HD 
HETATM   29  O   UNL     1     -11.428  13.504  65.215  1.00  0.00    -0.294 OA 
HETATM   30  O   UNL     1     -11.286  15.635  65.926  1.00  0.00    -0.214 OA 
ENDBRANCH  18  20
ENDBRANCH  16  18
ENDBRANCH  13  16
ENDBRANCH   7  10
ENDBRANCH   5   6
ENDBRANCH   4   5
TORSDOF 6
ENDMDL
MODEL      238
REMARK 921   NORMALIZED FREE ENERGY PREDICTED BY IDOCK:   -4.51 KCAL/MOL
REMARK 922        TOTAL FREE ENERGY PREDICTED BY IDOCK:   -7.07 KCAL/MOL
REMARK 923 INTER-LIGAND FREE ENERGY PREDICTED BY IDOCK:   -7.10 KCAL/MOL
REMARK 924 INTRA-LIGAND FREE ENERGY PREDICTED BY IDOCK:    0.02 KCAL/MOL
REMARK 927      BINDING AFFINITY PREDICTED BY RF-SCORE:    0.00 PKD
ROOT
HETATM    1  O   UNL     1      -6.747   8.705  72.818  1.00  0.00    -0.207 OA 
HETATM    2  C   UNL     1      -6.036   9.059  71.726  1.00  0.00    -0.075 C  
HETATM    3  O   UNL     1      -6.103  10.176  71.231  1.00  0.00    -0.284 OA 
HETATM    4  C   UNL     1      -5.162   7.965  71.179  1.00  0.00    -0.026 C  
ENDROOT
BRANCH   4   5
HETATM    5  C   UNL     1      -5.921   7.094  70.193  1.00  0.00    -0.024 C  
BRANCH   5   6
HETATM    6  N   UNL     1      -7.119   7.733  69.687  1.00  0.00    -0.061 N  
HETATM    7  C   UNL     1      -7.064   8.701  68.703  1.00  0.00    -0.068 C  
HETATM    8  H   UNL     1      -8.026   7.460  70.066  1.00  0.00     0.000 HD 
HETATM    9  O   UNL     1      -6.016   9.069  68.183  1.00  0.00    -0.045 OA 
BRANCH   7  10
HETATM   10  C   UNL     1      -8.359   9.343  68.331  1.00  0.00    -0.119 A  
HETATM   11  C   UNL     1      -8.409  10.738  68.224  1.00  0.00    -0.125 A  
HETATM   12  C   UNL     1      -9.621  11.384  67.949  1.00  0.00    -0.180 A  
HETATM   13  C   UNL     1     -10.805  10.659  67.760  1.00  0.00    -0.286 A  
HETATM   14  C   UNL     1      -9.523   8.601  68.100  1.00  0.00    -0.152 A  
HETATM   15  C   UNL     1     -10.735   9.257  67.830  1.00  0.00    -0.270 A  
BRANCH  13  16
HETATM   16  N   UNL     1     -12.007  11.382  67.587  1.00  0.00    -0.626 NA 
HETATM   17  H   UNL     1     -12.742  11.107  66.936  1.00  0.00     0.000 HD 
BRANCH  16  18
HETATM   18  N   UNL     1     -12.074  12.394  68.316  1.00  0.00    -0.304 NA 
HETATM   19  H   UNL     1     -12.473  12.389  69.255  1.00  0.00     0.000 HD 
BRANCH  18  20
HETATM   20  C   UNL     1     -11.539  13.549  67.701  1.00  0.00    -0.339 A  
HETATM   21  C   UNL     1     -10.757  14.497  68.378  1.00  0.00    -0.246 A  
HETATM   22  C   UNL     1     -10.323  15.666  67.742  1.00  0.00    -0.266 A  
HETATM   23  C   UNL     1     -10.681  15.905  66.416  1.00  0.00    -0.256 A  
HETATM   24  O   UNL     1     -10.273  17.065  65.810  1.00  0.00    -0.506 OA 
HETATM   25  C   UNL     1     -11.458  14.976  65.711  1.00  0.00    -0.236 A  
HETATM   26  C   UNL     1     -11.893  15.156  64.295  1.00  0.00    -0.251 C  
HETATM   27  C   UNL     1     -11.880  13.805  66.368  1.00  0.00    -0.434 A  
HETATM   28  H   UNL     1     -10.518  17.228  64.907  1.00  0.00     0.000 HD 
HETATM   29  O   UNL     1     -12.565  14.322  63.706  1.00  0.00    -0.821 OA 
HETATM   30  O   UNL     1     -11.500  16.306  63.707  1.00  0.00    -0.888 OA 
ENDBRANCH  18  20
ENDBRANCH  16  18
ENDBRANCH  13  16
ENDBRANCH   7  10
ENDBRANCH   5   6
ENDBRANCH   4   5
TORSDOF 6
ENDMDL
MODEL      239
REMARK 921   NORMALIZED FREE ENERGY PREDICTED BY IDOCK:   -4.50 KCAL/MOL
REMARK 922        TOTAL FREE ENERGY PREDICTED BY IDOCK:   -7.07 KCAL/MOL
REMARK 923 INTER-LIGAND FREE ENERGY PREDICTED BY IDOCK:   -5.91 KCAL/MOL
REMARK 924 INTRA-LIGAND FREE ENERGY PREDICTED BY IDOCK:   -1.16 KCAL/MOL
REMARK 927      BINDING AFFINITY PREDICTED BY RF-SCORE:    0.00 PKD
ROOT
HETATM    1  O   UNL     1     -11.668   9.907  71.924  1.00  0.00    -0.252 OA 
HETATM    2  C   UNL     1     -12.839  10.381  71.448  1.00  0.00    -0.452 C  
HETATM    3  O   UNL     1     -13.525   9.757  70.650  1.00  0.00    -0.181 OA 
HETATM    4  C   UNL     1     -13.218  11.733  71.984  1.00  0.00    -0.460 C  
ENDROOT
BRANCH   4   5
HETATM    5  C   UNL     1     -12.620  12.847  71.142  1.00  0.00    -0.281 C  
BRANCH   5   6
HETATM    6  N   UNL     1     -11.760  12.353  70.087  1.00  0.00    -0.534 N  
HETATM    7  C   UNL     1     -11.604  13.041  68.898  1.00  0.00    -0.311 C  
HETATM    8  H   UNL     1     -11.257  11.476  70.224  1.00  0.00     0.000 HD 
HETATM    9  O   UNL     1     -12.156  14.110  68.665  1.00  0.00    -0.343 OA 
BRANCH   7  10
HETATM   10  C   UNL     1     -10.759  12.383  67.858  1.00  0.00    -0.245 A  
HETATM   11  C   UNL     1      -9.412  12.749  67.760  1.00  0.00    -0.205 A  
HETATM   12  C   UNL     1      -8.603  12.209  66.751  1.00  0.00    -0.163 A  
HETATM   13  C   UNL     1      -9.112  11.286  65.828  1.00  0.00    -0.203 A  
HETATM   14  C   UNL     1     -11.271  11.427  66.973  1.00  0.00    -0.350 A  
HETATM   15  C   UNL     1     -10.455  10.895  65.962  1.00  0.00    -0.287 A  
BRANCH  13  16
HETATM   16  N   UNL     1      -8.266  10.862  64.777  1.00  0.00    -0.373 NA 
HETATM   17  H   UNL     1      -8.500  10.965  63.790  1.00  0.00     0.000 HD 
BRANCH  16  18
HETATM   18  N   UNL     1      -7.203  10.350  65.186  1.00  0.00    -0.251 NA 
HETATM   19  H   UNL     1      -6.317  10.852  65.234  1.00  0.00     0.000 HD 
BRANCH  18  20
HETATM   20  C   UNL     1      -7.359   9.000  65.573  1.00  0.00    -0.085 A  
HETATM   21  C   UNL     1      -7.396   7.931  64.665  1.00  0.00    -0.084 A  
HETATM   22  C   UNL     1      -7.638   6.621  65.096  1.00  0.00    -0.090 A  
HETATM   23  C   UNL     1      -7.858   6.369  66.449  1.00  0.00    -0.104 A  
HETATM   24  O   UNL     1      -8.120   5.087  66.858  1.00  0.00    -0.107 OA 
HETATM   25  C   UNL     1      -7.825   7.414  67.383  1.00  0.00    -0.111 A  
HETATM   26  C   UNL     1      -8.058   7.234  68.844  1.00  0.00    -0.128 C  
HETATM   27  C   UNL     1      -7.575   8.723  66.928  1.00  0.00    -0.090 A  
HETATM   28  H   UNL     1      -8.271   4.915  67.780  1.00  0.00     0.000 HD 
HETATM   29  O   UNL     1      -8.014   8.167  69.634  1.00  0.00    -0.110 OA 
HETATM   30  O   UNL     1      -8.329   5.972  69.241  1.00  0.00    -0.112 OA 
ENDBRANCH  18  20
ENDBRANCH  16  18
ENDBRANCH  13  16
ENDBRANCH   7  10
ENDBRANCH   5   6
ENDBRANCH   4   5
TORSDOF 6
ENDMDL
MODEL      240
REMARK 921   NORMALIZED FREE ENERGY PREDICTED BY IDOCK:   -4.50 KCAL/MOL
REMARK 922        TOTAL FREE ENERGY PREDICTED BY IDOCK:   -7.06 KCAL/MOL
REMARK 923 INTER-LIGAND FREE ENERGY PREDICTED BY IDOCK:   -6.27 KCAL/MOL
REMARK 924 INTRA-LIGAND FREE ENERGY PREDICTED BY IDOCK:   -0.79 KCAL/MOL
REMARK 927      BINDING AFFINITY PREDICTED BY RF-SCORE:    0.00 PKD
ROOT
HETATM    1  O   UNL     1     -10.104   5.056  71.565  1.00  0.00    -0.182 OA 
HETATM    2  C   UNL     1     -11.010   5.667  72.358  1.00  0.00    -0.259 C  
HETATM    3  O   UNL     1     -11.775   5.046  73.082  1.00  0.00    -0.313 OA 
HETATM    4  C   UNL     1     -10.993   7.168  72.268  1.00  0.00    -0.277 C  
ENDROOT
BRANCH   4   5
HETATM    5  C   UNL     1     -11.891   7.664  71.148  1.00  0.00    -0.293 C  
BRANCH   5   6
HETATM    6  N   UNL     1     -11.244   8.648  70.304  1.00  0.00    -0.366 N  
HETATM    7  C   UNL     1     -10.522   8.279  69.185  1.00  0.00    -0.206 C  
HETATM    8  H   UNL     1     -11.324   9.636  70.541  1.00  0.00     0.000 HD 
HETATM    9  O   UNL     1     -10.396   7.115  68.821  1.00  0.00    -0.181 OA 
BRANCH   7  10
HETATM   10  C   UNL     1      -9.832   9.380  68.449  1.00  0.00    -0.177 A  
HETATM   11  C   UNL     1      -9.060  10.291  69.179  1.00  0.00    -0.199 A  
HETATM   12  C   UNL     1      -8.456  11.381  68.538  1.00  0.00    -0.152 A  
HETATM   13  C   UNL     1      -8.595  11.580  67.158  1.00  0.00    -0.155 A  
HETATM   14  C   UNL     1      -9.943   9.539  67.063  1.00  0.00    -0.273 A  
HETATM   15  C   UNL     1      -9.339  10.636  66.430  1.00  0.00    -0.195 A  
BRANCH  13  16
HETATM   16  N   UNL     1      -8.043  12.755  66.597  1.00  0.00    -0.394 NA 
HETATM   17  H   UNL     1      -8.235  13.070  65.646  1.00  0.00     0.000 HD 
BRANCH  16  18
HETATM   18  N   UNL     1      -7.297  13.366  67.389  1.00  0.00    -0.296 NA 
HETATM   19  H   UNL     1      -6.589  12.910  67.966  1.00  0.00     0.000 HD 
BRANCH  18  20
HETATM   20  C   UNL     1      -7.535  14.759  67.403  1.00  0.00    -0.194 A  
HETATM   21  C   UNL     1      -6.514  15.722  67.407  1.00  0.00    -0.193 A  
HETATM   22  C   UNL     1      -6.805  17.087  67.507  1.00  0.00    -0.166 A  
HETATM   23  C   UNL     1      -8.131  17.504  67.616  1.00  0.00    -0.207 A  
HETATM   24  O   UNL     1      -8.404  18.842  67.740  1.00  0.00    -0.271 OA 
HETATM   25  C   UNL     1      -9.175  16.569  67.612  1.00  0.00    -0.200 A  
HETATM   26  C   UNL     1     -10.617  16.927  67.733  1.00  0.00    -0.340 C  
HETATM   27  C   UNL     1      -8.860  15.201  67.506  1.00  0.00    -0.190 A  
HETATM   28  H   UNL     1      -9.308  19.127  67.815  1.00  0.00     0.000 HD 
HETATM   29  O   UNL     1     -11.504  16.086  67.718  1.00  0.00    -0.228 OA 
HETATM   30  O   UNL     1     -10.881  18.245  67.868  1.00  0.00    -0.363 OA 
ENDBRANCH  18  20
ENDBRANCH  16  18
ENDBRANCH  13  16
ENDBRANCH   7  10
ENDBRANCH   5   6
ENDBRANCH   4   5
TORSDOF 6
ENDMDL
MODEL      241
REMARK 921   NORMALIZED FREE ENERGY PREDICTED BY IDOCK:   -4.48 KCAL/MOL
REMARK 922        TOTAL FREE ENERGY PREDICTED BY IDOCK:   -7.04 KCAL/MOL
REMARK 923 INTER-LIGAND FREE ENERGY PREDICTED BY IDOCK:   -6.33 KCAL/MOL
REMARK 924 INTRA-LIGAND FREE ENERGY PREDICTED BY IDOCK:   -0.70 KCAL/MOL
REMARK 927      BINDING AFFINITY PREDICTED BY RF-SCORE:    0.00 PKD
ROOT
HETATM    1  O   UNL     1     -10.971  19.508  66.147  1.00  0.00    -0.355 OA 
HETATM    2  C   UNL     1     -10.296  18.342  66.072  1.00  0.00    -0.363 C  
HETATM    3  O   UNL     1     -10.660  17.415  65.361  1.00  0.00    -0.638 OA 
HETATM    4  C   UNL     1      -9.065  18.288  66.934  1.00  0.00    -0.282 C  
ENDROOT
BRANCH   4   5
HETATM    5  C   UNL     1      -9.396  17.810  68.337  1.00  0.00    -0.294 C  
BRANCH   5   6
HETATM    6  N   UNL     1      -8.887  16.481  68.612  1.00  0.00    -0.228 N  
HETATM    7  C   UNL     1      -7.536  16.242  68.772  1.00  0.00    -0.199 C  
HETATM    8  H   UNL     1      -9.543  15.704  68.689  1.00  0.00     0.000 HD 
HETATM    9  O   UNL     1      -6.687  17.124  68.715  1.00  0.00    -0.179 OA 
BRANCH   7  10
HETATM   10  C   UNL     1      -7.134  14.817  68.964  1.00  0.00    -0.127 A  
HETATM   11  C   UNL     1      -7.550  13.871  68.020  1.00  0.00    -0.144 A  
HETATM   12  C   UNL     1      -7.256  12.513  68.202  1.00  0.00    -0.106 A  
HETATM   13  C   UNL     1      -6.532  12.069  69.316  1.00  0.00    -0.111 A  
HETATM   14  C   UNL     1      -6.370  14.395  70.059  1.00  0.00    -0.160 A  
HETATM   15  C   UNL     1      -6.085  13.032  70.235  1.00  0.00    -0.071 A  
BRANCH  13  16
HETATM   16  N   UNL     1      -6.362  10.676  69.485  1.00  0.00    -0.059 NA 
HETATM   17  H   UNL     1      -5.549  10.258  69.938  1.00  0.00     0.000 HD 
BRANCH  16  18
HETATM   18  N   UNL     1      -7.311  10.010  69.021  1.00  0.00    -0.078 NA 
HETATM   19  H   UNL     1      -7.408   9.779  68.032  1.00  0.00     0.000 HD 
BRANCH  18  20
HETATM   20  C   UNL     1      -8.236   9.611  70.011  1.00  0.00    -0.184 A  
HETATM   21  C   UNL     1      -7.936   8.695  71.031  1.00  0.00    -0.153 A  
HETATM   22  C   UNL     1      -8.915   8.270  71.936  1.00  0.00    -0.249 A  
HETATM   23  C   UNL     1     -10.219   8.752  71.820  1.00  0.00    -0.338 A  
HETATM   24  O   UNL     1     -11.177   8.309  72.695  1.00  0.00    -0.378 OA 
HETATM   25  C   UNL     1     -10.551   9.670  70.815  1.00  0.00    -0.392 A  
HETATM   26  C   UNL     1     -11.919  10.228  70.614  1.00  0.00    -0.342 C  
HETATM   27  C   UNL     1      -9.549  10.088  69.918  1.00  0.00    -0.233 A  
HETATM   28  H   UNL     1     -12.065   8.637  72.616  1.00  0.00     0.000 HD 
HETATM   29  O   UNL     1     -12.175  11.034  69.732  1.00  0.00    -0.326 OA 
HETATM   30  O   UNL     1     -12.863   9.780  71.470  1.00  0.00    -0.345 OA 
ENDBRANCH  18  20
ENDBRANCH  16  18
ENDBRANCH  13  16
ENDBRANCH   7  10
ENDBRANCH   5   6
ENDBRANCH   4   5
TORSDOF 6
ENDMDL
MODEL      242
REMARK 921   NORMALIZED FREE ENERGY PREDICTED BY IDOCK:   -4.45 KCAL/MOL
REMARK 922        TOTAL FREE ENERGY PREDICTED BY IDOCK:   -7.00 KCAL/MOL
REMARK 923 INTER-LIGAND FREE ENERGY PREDICTED BY IDOCK:   -5.95 KCAL/MOL
REMARK 924 INTRA-LIGAND FREE ENERGY PREDICTED BY IDOCK:   -1.05 KCAL/MOL
REMARK 927      BINDING AFFINITY PREDICTED BY RF-SCORE:    0.00 PKD
ROOT
HETATM    1  O   UNL     1      -6.316  18.424  67.192  1.00  0.00    -0.171 OA 
HETATM    2  C   UNL     1      -6.761  18.373  68.465  1.00  0.00    -0.244 C  
HETATM    3  O   UNL     1      -6.410  17.505  69.251  1.00  0.00    -0.223 OA 
HETATM    4  C   UNL     1      -7.721  19.473  68.825  1.00  0.00    -0.375 C  
ENDROOT
BRANCH   4   5
HETATM    5  C   UNL     1      -9.151  19.089  68.488  1.00  0.00    -0.358 C  
BRANCH   5   6
HETATM    6  N   UNL     1      -9.340  17.656  68.393  1.00  0.00    -0.281 N  
HETATM    7  C   UNL     1      -9.852  17.066  67.253  1.00  0.00    -0.260 C  
HETATM    8  H   UNL     1      -9.088  17.067  69.187  1.00  0.00     0.000 HD 
HETATM    9  O   UNL     1     -10.160  17.702  66.251  1.00  0.00    -0.330 OA 
BRANCH   7  10
HETATM   10  C   UNL     1     -10.079  15.592  67.314  1.00  0.00    -0.255 A  
HETATM   11  C   UNL     1      -9.721  14.907  68.481  1.00  0.00    -0.215 A  
HETATM   12  C   UNL     1      -9.849  13.514  68.551  1.00  0.00    -0.189 A  
HETATM   13  C   UNL     1     -10.349  12.774  67.471  1.00  0.00    -0.219 A  
HETATM   14  C   UNL     1     -10.625  14.874  66.244  1.00  0.00    -0.309 A  
HETATM   15  C   UNL     1     -10.745  13.477  66.321  1.00  0.00    -0.288 A  
BRANCH  13  16
HETATM   16  N   UNL     1     -10.355  11.365  67.578  1.00  0.00    -0.191 NA 
HETATM   17  H   UNL     1     -11.186  10.792  67.430  1.00  0.00     0.000 HD 
BRANCH  16  18
HETATM   18  N   UNL     1      -9.236  10.895  67.871  1.00  0.00    -0.149 NA 
HETATM   19  H   UNL     1      -8.612  11.312  68.562  1.00  0.00     0.000 HD 
BRANCH  18  20
HETATM   20  C   UNL     1      -8.926   9.724  67.144  1.00  0.00    -0.135 A  
HETATM   21  C   UNL     1      -7.995   9.685  66.095  1.00  0.00    -0.108 A  
HETATM   22  C   UNL     1      -7.787   8.518  65.351  1.00  0.00    -0.107 A  
HETATM   23  C   UNL     1      -8.524   7.371  65.646  1.00  0.00    -0.130 A  
HETATM   24  O   UNL     1      -8.332   6.240  64.896  1.00  0.00    -0.199 OA 
HETATM   25  C   UNL     1      -9.459   7.375  66.690  1.00  0.00    -0.240 A  
HETATM   26  C   UNL     1     -10.294   6.198  67.066  1.00  0.00    -0.237 C  
HETATM   27  C   UNL     1      -9.648   8.559  67.428  1.00  0.00    -0.204 A  
HETATM   28  H   UNL     1      -8.835   5.459  65.096  1.00  0.00     0.000 HD 
HETATM   29  O   UNL     1     -11.096   6.233  67.988  1.00  0.00    -0.333 OA 
HETATM   30  O   UNL     1     -10.112   5.091  66.316  1.00  0.00    -0.198 OA 
ENDBRANCH  18  20
ENDBRANCH  16  18
ENDBRANCH  13  16
ENDBRANCH   7  10
ENDBRANCH   5   6
ENDBRANCH   4   5
TORSDOF 6
ENDMDL
MODEL      243
REMARK 921   NORMALIZED FREE ENERGY PREDICTED BY IDOCK:   -4.44 KCAL/MOL
REMARK 922        TOTAL FREE ENERGY PREDICTED BY IDOCK:   -6.98 KCAL/MOL
REMARK 923 INTER-LIGAND FREE ENERGY PREDICTED BY IDOCK:   -5.86 KCAL/MOL
REMARK 924 INTRA-LIGAND FREE ENERGY PREDICTED BY IDOCK:   -1.12 KCAL/MOL
REMARK 927      BINDING AFFINITY PREDICTED BY RF-SCORE:    0.00 PKD
ROOT
HETATM    1  O   UNL     1      -8.023  12.901  66.913  1.00  0.00    -0.071 OA 
HETATM    2  C   UNL     1      -9.237  13.489  66.865  1.00  0.00    -0.249 C  
HETATM    3  O   UNL     1      -9.650  14.221  67.754  1.00  0.00    -0.212 OA 
HETATM    4  C   UNL     1     -10.028  13.165  65.628  1.00  0.00    -0.237 C  
ENDROOT
BRANCH   4   5
HETATM    5  C   UNL     1     -10.840  11.894  65.810  1.00  0.00    -0.295 C  
BRANCH   5   6
HETATM    6  N   UNL     1     -10.418  11.119  66.959  1.00  0.00    -0.224 N  
HETATM    7  C   UNL     1     -11.235  10.955  68.061  1.00  0.00    -0.314 C  
HETATM    8  H   UNL     1      -9.496  10.683  66.954  1.00  0.00     0.000 HD 
HETATM    9  O   UNL     1     -12.363  11.428  68.136  1.00  0.00    -0.502 OA 
BRANCH   7  10
HETATM   10  C   UNL     1     -10.651  10.207  69.214  1.00  0.00    -0.254 A  
HETATM   11  C   UNL     1     -11.507   9.772  70.232  1.00  0.00    -0.317 A  
HETATM   12  C   UNL     1     -10.989   9.132  71.366  1.00  0.00    -0.414 A  
HETATM   13  C   UNL     1      -9.615   8.898  71.505  1.00  0.00    -0.292 A  
HETATM   14  C   UNL     1      -9.281   9.940  69.316  1.00  0.00    -0.207 A  
HETATM   15  C   UNL     1      -8.770   9.303  70.457  1.00  0.00    -0.276 A  
BRANCH  13  16
HETATM   16  N   UNL     1      -9.156   8.340  72.719  1.00  0.00    -0.254 NA 
HETATM   17  H   UNL     1      -8.179   8.358  73.015  1.00  0.00     0.000 HD 
BRANCH  16  18
HETATM   18  N   UNL     1     -10.071   7.822  73.393  1.00  0.00    -0.312 NA 
HETATM   19  H   UNL     1     -10.791   8.361  73.875  1.00  0.00     0.000 HD 
BRANCH  18  20
HETATM   20  C   UNL     1     -10.003   6.411  73.418  1.00  0.00    -0.191 A  
HETATM   21  C   UNL     1     -11.104   5.576  73.172  1.00  0.00    -0.337 A  
HETATM   22  C   UNL     1     -11.001   4.186  73.293  1.00  0.00    -0.324 A  
HETATM   23  C   UNL     1      -9.788   3.613  73.675  1.00  0.00    -0.112 A  
HETATM   24  O   UNL     1      -9.704   2.252  73.816  1.00  0.00    -0.088 OA 
HETATM   25  C   UNL     1      -8.669   4.419  73.924  1.00  0.00    -0.104 A  
HETATM   26  C   UNL     1      -7.339   3.891  74.345  1.00  0.00    -0.062 C  
HETATM   27  C   UNL     1      -8.793   5.815  73.792  1.00  0.00    -0.127 A  
HETATM   28  H   UNL     1      -8.878   1.862  74.077  1.00  0.00     0.000 HD 
HETATM   29  O   UNL     1      -6.379   4.621  74.547  1.00  0.00    -0.050 OA 
HETATM   30  O   UNL     1      -7.264   2.551  74.495  1.00  0.00    -0.038 OA 
ENDBRANCH  18  20
ENDBRANCH  16  18
ENDBRANCH  13  16
ENDBRANCH   7  10
ENDBRANCH   5   6
ENDBRANCH   4   5
TORSDOF 6
ENDMDL
MODEL      244
REMARK 921   NORMALIZED FREE ENERGY PREDICTED BY IDOCK:   -4.43 KCAL/MOL
REMARK 922        TOTAL FREE ENERGY PREDICTED BY IDOCK:   -6.96 KCAL/MOL
REMARK 923 INTER-LIGAND FREE ENERGY PREDICTED BY IDOCK:   -5.79 KCAL/MOL
REMARK 924 INTRA-LIGAND FREE ENERGY PREDICTED BY IDOCK:   -1.18 KCAL/MOL
REMARK 927      BINDING AFFINITY PREDICTED BY RF-SCORE:    0.00 PKD
ROOT
HETATM    1  O   UNL     1     -11.726   9.836  71.799  1.00  0.00    -0.369 OA 
HETATM    2  C   UNL     1     -12.888  10.424  71.441  1.00  0.00    -0.452 C  
HETATM    3  O   UNL     1     -13.744   9.847  70.786  1.00  0.00    -0.187 OA 
HETATM    4  C   UNL     1     -13.032  11.842  71.921  1.00  0.00    -0.434 C  
ENDROOT
BRANCH   4   5
HETATM    5  C   UNL     1     -12.428  12.823  70.931  1.00  0.00    -0.283 C  
BRANCH   5   6
HETATM    6  N   UNL     1     -11.653  12.170  69.895  1.00  0.00    -0.492 N  
HETATM    7  C   UNL     1     -11.581  12.681  68.614  1.00  0.00    -0.316 C  
HETATM    8  H   UNL     1     -11.148  11.312  70.118  1.00  0.00     0.000 HD 
HETATM    9  O   UNL     1     -12.141  13.716  68.272  1.00  0.00    -0.357 OA 
BRANCH   7  10
HETATM   10  C   UNL     1     -10.822  11.868  67.618  1.00  0.00    -0.271 A  
HETATM   11  C   UNL     1      -9.687  11.171  68.049  1.00  0.00    -0.183 A  
HETATM   12  C   UNL     1      -8.905  10.456  67.132  1.00  0.00    -0.141 A  
HETATM   13  C   UNL     1      -9.241  10.406  65.773  1.00  0.00    -0.174 A  
HETATM   14  C   UNL     1     -11.197  11.790  66.272  1.00  0.00    -0.370 A  
HETATM   15  C   UNL     1     -10.405  11.076  65.360  1.00  0.00    -0.330 A  
BRANCH  13  16
HETATM   16  N   UNL     1      -8.351   9.751  64.892  1.00  0.00    -0.139 NA 
HETATM   17  H   UNL     1      -8.323   9.924  63.887  1.00  0.00     0.000 HD 
BRANCH  16  18
HETATM   18  N   UNL     1      -7.602   8.939  65.473  1.00  0.00    -0.086 NA 
HETATM   19  H   UNL     1      -7.014   9.183  66.271  1.00  0.00     0.000 HD 
BRANCH  18  20
HETATM   20  C   UNL     1      -7.654   7.644  64.909  1.00  0.00    -0.099 A  
HETATM   21  C   UNL     1      -6.998   7.288  63.721  1.00  0.00    -0.058 A  
HETATM   22  C   UNL     1      -7.152   6.015  63.161  1.00  0.00    -0.051 A  
HETATM   23  C   UNL     1      -7.981   5.082  63.784  1.00  0.00    -0.098 A  
HETATM   24  O   UNL     1      -8.146   3.846  63.213  1.00  0.00    -0.081 OA 
HETATM   25  C   UNL     1      -8.647   5.405  64.973  1.00  0.00    -0.142 A  
HETATM   26  C   UNL     1      -9.557   4.472  65.699  1.00  0.00    -0.187 C  
HETATM   27  C   UNL     1      -8.474   6.690  65.522  1.00  0.00    -0.135 A  
HETATM   28  H   UNL     1      -8.711   3.211  63.638  1.00  0.00     0.000 HD 
HETATM   29  O   UNL     1     -10.118   4.783  66.740  1.00  0.00    -0.208 OA 
HETATM   30  O   UNL     1      -9.727   3.261  65.127  1.00  0.00    -0.143 OA 
ENDBRANCH  18  20
ENDBRANCH  16  18
ENDBRANCH  13  16
ENDBRANCH   7  10
ENDBRANCH   5   6
ENDBRANCH   4   5
TORSDOF 6
ENDMDL
MODEL      245
REMARK 921   NORMALIZED FREE ENERGY PREDICTED BY IDOCK:   -4.42 KCAL/MOL
REMARK 922        TOTAL FREE ENERGY PREDICTED BY IDOCK:   -6.96 KCAL/MOL
REMARK 923 INTER-LIGAND FREE ENERGY PREDICTED BY IDOCK:   -5.98 KCAL/MOL
REMARK 924 INTRA-LIGAND FREE ENERGY PREDICTED BY IDOCK:   -0.98 KCAL/MOL
REMARK 927      BINDING AFFINITY PREDICTED BY RF-SCORE:    0.00 PKD
ROOT
HETATM    1  O   UNL     1      -5.829   5.419  63.540  1.00  0.00    -0.020 OA 
HETATM    2  C   UNL     1      -5.869   6.762  63.665  1.00  0.00    -0.031 C  
HETATM    3  O   UNL     1      -5.561   7.336  64.700  1.00  0.00    -0.032 OA 
HETATM    4  C   UNL     1      -6.321   7.482  62.425  1.00  0.00    -0.067 C  
ENDROOT
BRANCH   4   5
HETATM    5  C   UNL     1      -7.834   7.612  62.384  1.00  0.00    -0.129 C  
BRANCH   5   6
HETATM    6  N   UNL     1      -8.373   8.271  63.556  1.00  0.00    -0.368 N  
HETATM    7  C   UNL     1      -8.377   9.648  63.674  1.00  0.00    -0.172 C  
HETATM    8  H   UNL     1      -8.758   7.705  64.312  1.00  0.00     0.000 HD 
HETATM    9  O   UNL     1      -7.952  10.397  62.802  1.00  0.00    -0.149 OA 
BRANCH   7  10
HETATM   10  C   UNL     1      -8.880  10.200  64.967  1.00  0.00    -0.205 A  
HETATM   11  C   UNL     1     -10.262  10.316  65.153  1.00  0.00    -0.295 A  
HETATM   12  C   UNL     1     -10.773  10.897  66.321  1.00  0.00    -0.241 A  
HETATM   13  C   UNL     1      -9.923  11.360  67.334  1.00  0.00    -0.186 A  
HETATM   14  C   UNL     1      -8.019  10.615  65.990  1.00  0.00    -0.159 A  
HETATM   15  C   UNL     1      -8.539  11.200  67.154  1.00  0.00    -0.139 A  
BRANCH  13  16
HETATM   16  N   UNL     1     -10.506  12.025  68.437  1.00  0.00    -0.213 NA 
HETATM   17  H   UNL     1     -11.145  12.815  68.346  1.00  0.00     0.000 HD 
BRANCH  16  18
HETATM   18  N   UNL     1     -10.156  11.544  69.535  1.00  0.00    -0.325 NA 
HETATM   19  H   UNL     1      -9.196  11.565  69.881  1.00  0.00     0.000 HD 
BRANCH  18  20
HETATM   20  C   UNL     1     -11.230  10.967  70.248  1.00  0.00    -0.188 A  
HETATM   21  C   UNL     1     -12.338  11.695  70.708  1.00  0.00    -0.454 A  
HETATM   22  C   UNL     1     -13.333  11.090  71.483  1.00  0.00    -0.261 A  
HETATM   23  C   UNL     1     -13.223   9.741  71.818  1.00  0.00    -0.436 A  
HETATM   24  O   UNL     1     -14.190   9.163  72.599  1.00  0.00    -0.759 OA 
HETATM   25  C   UNL     1     -12.131   8.984  71.372  1.00  0.00    -0.392 A  
HETATM   26  C   UNL     1     -11.931   7.541  71.691  1.00  0.00    -0.302 C  
HETATM   27  C   UNL     1     -11.144   9.612  70.589  1.00  0.00    -0.384 A  
HETATM   28  H   UNL     1     -14.115   8.244  72.828  1.00  0.00     0.000 HD 
HETATM   29  O   UNL     1     -10.970   6.907  71.279  1.00  0.00    -0.235 OA 
HETATM   30  O   UNL     1     -12.878   6.979  72.471  1.00  0.00     0.159 OA 
ENDBRANCH  18  20
ENDBRANCH  16  18
ENDBRANCH  13  16
ENDBRANCH   7  10
ENDBRANCH   5   6
ENDBRANCH   4   5
TORSDOF 6
ENDMDL
MODEL      246
REMARK 921   NORMALIZED FREE ENERGY PREDICTED BY IDOCK:   -4.42 KCAL/MOL
REMARK 922        TOTAL FREE ENERGY PREDICTED BY IDOCK:   -6.96 KCAL/MOL
REMARK 923 INTER-LIGAND FREE ENERGY PREDICTED BY IDOCK:   -6.08 KCAL/MOL
REMARK 924 INTRA-LIGAND FREE ENERGY PREDICTED BY IDOCK:   -0.87 KCAL/MOL
REMARK 927      BINDING AFFINITY PREDICTED BY RF-SCORE:    0.00 PKD
ROOT
HETATM    1  O   UNL     1     -10.355   4.590  65.295  1.00  0.00    -0.216 OA 
HETATM    2  C   UNL     1      -9.191   3.906  65.304  1.00  0.00    -0.150 C  
HETATM    3  O   UNL     1      -9.129   2.709  65.062  1.00  0.00    -0.131 OA 
HETATM    4  C   UNL     1      -7.988   4.746  65.636  1.00  0.00    -0.099 C  
ENDROOT
BRANCH   4   5
HETATM    5  C   UNL     1      -7.762   4.816  67.136  1.00  0.00    -0.091 C  
BRANCH   5   6
HETATM    6  N   UNL     1      -8.146   6.093  67.703  1.00  0.00    -0.112 N  
HETATM    7  C   UNL     1      -9.110   6.187  68.688  1.00  0.00    -0.125 C  
HETATM    8  H   UNL     1      -7.694   6.943  67.366  1.00  0.00     0.000 HD 
HETATM    9  O   UNL     1      -9.684   5.212  69.160  1.00  0.00    -0.137 OA 
BRANCH   7  10
HETATM   10  C   UNL     1      -9.478   7.566  69.126  1.00  0.00    -0.150 A  
HETATM   11  C   UNL     1     -10.767   7.789  69.624  1.00  0.00    -0.223 A  
HETATM   12  C   UNL     1     -11.176   9.082  69.977  1.00  0.00    -0.141 A  
HETATM   13  C   UNL     1     -10.309  10.176  69.856  1.00  0.00    -0.261 A  
HETATM   14  C   UNL     1      -8.585   8.641  69.044  1.00  0.00    -0.129 A  
HETATM   15  C   UNL     1      -9.005   9.934  69.395  1.00  0.00    -0.204 A  
BRANCH  13  16
HETATM   16  N   UNL     1     -10.823  11.463  70.134  1.00  0.00    -0.327 NA 
HETATM   17  H   UNL     1     -10.354  12.139  70.739  1.00  0.00     0.000 HD 
BRANCH  16  18
HETATM   18  N   UNL     1     -11.910  11.687  69.562  1.00  0.00    -0.329 NA 
HETATM   19  H   UNL     1     -12.795  11.269  69.849  1.00  0.00     0.000 HD 
BRANCH  18  20
HETATM   20  C   UNL     1     -11.784  12.581  68.476  1.00  0.00    -0.324 A  
HETATM   21  C   UNL     1     -11.804  12.178  67.132  1.00  0.00    -0.292 A  
HETATM   22  C   UNL     1     -11.590  13.094  66.096  1.00  0.00    -0.396 A  
HETATM   23  C   UNL     1     -11.340  14.432  66.398  1.00  0.00    -0.350 A  
HETATM   24  O   UNL     1     -11.105  15.317  65.378  1.00  0.00    -0.342 OA 
HETATM   25  C   UNL     1     -11.316  14.869  67.730  1.00  0.00    -0.341 A  
HETATM   26  C   UNL     1     -11.048  16.276  68.142  1.00  0.00    -0.329 C  
HETATM   27  C   UNL     1     -11.539  13.931  68.756  1.00  0.00    -0.370 A  
HETATM   28  H   UNL     1     -10.934  16.229  65.584  1.00  0.00     0.000 HD 
HETATM   29  O   UNL     1     -11.042  16.626  69.313  1.00  0.00    -0.291 OA 
HETATM   30  O   UNL     1     -10.805  17.142  67.134  1.00  0.00    -0.225 OA 
ENDBRANCH  18  20
ENDBRANCH  16  18
ENDBRANCH  13  16
ENDBRANCH   7  10
ENDBRANCH   5   6
ENDBRANCH   4   5
TORSDOF 6
ENDMDL
MODEL      247
REMARK 921   NORMALIZED FREE ENERGY PREDICTED BY IDOCK:   -4.42 KCAL/MOL
REMARK 922        TOTAL FREE ENERGY PREDICTED BY IDOCK:   -6.95 KCAL/MOL
REMARK 923 INTER-LIGAND FREE ENERGY PREDICTED BY IDOCK:   -6.19 KCAL/MOL
REMARK 924 INTRA-LIGAND FREE ENERGY PREDICTED BY IDOCK:   -0.76 KCAL/MOL
REMARK 927      BINDING AFFINITY PREDICTED BY RF-SCORE:    0.00 PKD
ROOT
HETATM    1  O   UNL     1     -14.399  15.691  70.996  1.00  0.00    -0.428 OA 
HETATM    2  C   UNL     1     -13.424  15.135  71.746  1.00  0.00    -0.433 C  
HETATM    3  O   UNL     1     -13.218  15.463  72.906  1.00  0.00    -0.426 OA 
HETATM    4  C   UNL     1     -12.622  14.083  71.030  1.00  0.00    -0.437 C  
ENDROOT
BRANCH   4   5
HETATM    5  C   UNL     1     -11.456  14.698  70.275  1.00  0.00    -0.246 C  
BRANCH   5   6
HETATM    6  N   UNL     1     -10.793  13.752  69.401  1.00  0.00    -0.436 N  
HETATM    7  C   UNL     1     -10.295  14.132  68.169  1.00  0.00    -0.239 C  
HETATM    8  H   UNL     1     -10.690  12.783  69.702  1.00  0.00     0.000 HD 
HETATM    9  O   UNL     1     -10.360  15.280  67.744  1.00  0.00    -0.239 OA 
BRANCH   7  10
HETATM   10  C   UNL     1      -9.712  13.046  67.327  1.00  0.00    -0.225 A  
HETATM   11  C   UNL     1     -10.445  12.584  66.228  1.00  0.00    -0.268 A  
HETATM   12  C   UNL     1      -9.967  11.517  65.455  1.00  0.00    -0.282 A  
HETATM   13  C   UNL     1      -8.746  10.896  65.750  1.00  0.00    -0.190 A  
HETATM   14  C   UNL     1      -8.468  12.467  67.607  1.00  0.00    -0.171 A  
HETATM   15  C   UNL     1      -8.000  11.395  66.831  1.00  0.00    -0.158 A  
BRANCH  13  16
HETATM   16  N   UNL     1      -8.377   9.762  64.991  1.00  0.00    -0.136 NA 
HETATM   17  H   UNL     1      -7.467   9.656  64.542  1.00  0.00     0.000 HD 
BRANCH  16  18
HETATM   18  N   UNL     1      -9.282   8.904  64.928  1.00  0.00    -0.436 NA 
HETATM   19  H   UNL     1      -9.900   8.794  64.124  1.00  0.00     0.000 HD 
BRANCH  18  20
HETATM   20  C   UNL     1      -9.360   8.103  66.089  1.00  0.00    -0.166 A  
HETATM   21  C   UNL     1     -10.422   8.161  67.003  1.00  0.00    -0.396 A  
HETATM   22  C   UNL     1     -10.408   7.405  68.182  1.00  0.00    -0.235 A  
HETATM   23  C   UNL     1      -9.315   6.587  68.464  1.00  0.00    -0.123 A  
HETATM   24  O   UNL     1      -9.298   5.871  69.633  1.00  0.00    -0.137 OA 
HETATM   25  C   UNL     1      -8.238   6.504  67.570  1.00  0.00    -0.121 A  
HETATM   26  C   UNL     1      -7.028   5.663  67.798  1.00  0.00    -0.066 C  
HETATM   27  C   UNL     1      -8.276   7.269  66.389  1.00  0.00    -0.120 A  
HETATM   28  H   UNL     1      -8.553   5.314  69.826  1.00  0.00     0.000 HD 
HETATM   29  O   UNL     1      -6.109   5.607  66.994  1.00  0.00    -0.024 OA 
HETATM   30  O   UNL     1      -7.010   4.970  68.957  1.00  0.00    -0.050 OA 
ENDBRANCH  18  20
ENDBRANCH  16  18
ENDBRANCH  13  16
ENDBRANCH   7  10
ENDBRANCH   5   6
ENDBRANCH   4   5
TORSDOF 6
ENDMDL
MODEL      248
REMARK 921   NORMALIZED FREE ENERGY PREDICTED BY IDOCK:   -4.41 KCAL/MOL
REMARK 922        TOTAL FREE ENERGY PREDICTED BY IDOCK:   -6.94 KCAL/MOL
REMARK 923 INTER-LIGAND FREE ENERGY PREDICTED BY IDOCK:   -6.01 KCAL/MOL
REMARK 924 INTRA-LIGAND FREE ENERGY PREDICTED BY IDOCK:   -0.94 KCAL/MOL
REMARK 927      BINDING AFFINITY PREDICTED BY RF-SCORE:    0.00 PKD
ROOT
HETATM    1  O   UNL     1     -11.728  15.066  67.602  1.00  0.00    -0.342 OA 
HETATM    2  C   UNL     1     -12.192  14.044  66.851  1.00  0.00    -0.380 C  
HETATM    3  O   UNL     1     -12.214  12.889  67.252  1.00  0.00    -0.353 OA 
HETATM    4  C   UNL     1     -12.674  14.455  65.487  1.00  0.00    -0.308 C  
ENDROOT
BRANCH   4   5
HETATM    5  C   UNL     1     -11.539  14.458  64.479  1.00  0.00    -0.384 C  
BRANCH   5   6
HETATM    6  N   UNL     1     -10.683  13.294  64.593  1.00  0.00    -0.377 N  
HETATM    7  C   UNL     1     -11.033  12.079  64.036  1.00  0.00    -0.381 C  
HETATM    8  H   UNL     1      -9.799  13.374  65.097  1.00  0.00     0.000 HD 
HETATM    9  O   UNL     1     -12.066  11.907  63.399  1.00  0.00    -0.502 OA 
BRANCH   7  10
HETATM   10  C   UNL     1     -10.108  10.938  64.300  1.00  0.00    -0.413 A  
HETATM   11  C   UNL     1      -9.208  10.561  63.296  1.00  0.00    -0.299 A  
HETATM   12  C   UNL     1      -8.373   9.450  63.475  1.00  0.00    -0.184 A  
HETATM   13  C   UNL     1      -8.405   8.700  64.658  1.00  0.00    -0.155 A  
HETATM   14  C   UNL     1     -10.119  10.228  65.505  1.00  0.00    -0.351 A  
HETATM   15  C   UNL     1      -9.283   9.113  65.674  1.00  0.00    -0.296 A  
BRANCH  13  16
HETATM   16  N   UNL     1      -7.609   7.534  64.726  1.00  0.00    -0.095 NA 
HETATM   17  H   UNL     1      -6.734   7.418  64.214  1.00  0.00     0.000 HD 
BRANCH  16  18
HETATM   18  N   UNL     1      -8.088   6.662  65.480  1.00  0.00    -0.119 NA 
HETATM   19  H   UNL     1      -8.562   6.873  66.359  1.00  0.00     0.000 HD 
BRANCH  18  20
HETATM   20  C   UNL     1      -7.903   5.350  64.989  1.00  0.00    -0.096 A  
HETATM   21  C   UNL     1      -6.644   4.750  64.832  1.00  0.00    -0.043 A  
HETATM   22  C   UNL     1      -6.513   3.479  64.260  1.00  0.00    -0.034 A  
HETATM   23  C   UNL     1      -7.648   2.796  63.825  1.00  0.00    -0.067 A  
HETATM   24  O   UNL     1      -7.507   1.563  63.243  1.00  0.00    -0.046 OA 
HETATM   25  C   UNL     1      -8.920   3.366  63.971  1.00  0.00    -0.097 A  
HETATM   26  C   UNL     1     -10.184   2.710  63.526  1.00  0.00    -0.165 C  
HETATM   27  C   UNL     1      -9.030   4.643  64.553  1.00  0.00    -0.147 A  
HETATM   28  H   UNL     1      -8.280   1.098  62.946  1.00  0.00     0.000 HD 
HETATM   29  O   UNL     1     -11.279   3.232  63.674  1.00  0.00    -0.279 OA 
HETATM   30  O   UNL     1     -10.038   1.502  62.941  1.00  0.00    -0.096 OA 
ENDBRANCH  18  20
ENDBRANCH  16  18
ENDBRANCH  13  16
ENDBRANCH   7  10
ENDBRANCH   5   6
ENDBRANCH   4   5
TORSDOF 6
ENDMDL
MODEL      249
REMARK 921   NORMALIZED FREE ENERGY PREDICTED BY IDOCK:   -4.38 KCAL/MOL
REMARK 922        TOTAL FREE ENERGY PREDICTED BY IDOCK:   -6.90 KCAL/MOL
REMARK 923 INTER-LIGAND FREE ENERGY PREDICTED BY IDOCK:   -5.74 KCAL/MOL
REMARK 924 INTRA-LIGAND FREE ENERGY PREDICTED BY IDOCK:   -1.16 KCAL/MOL
REMARK 927      BINDING AFFINITY PREDICTED BY RF-SCORE:    0.00 PKD
ROOT
HETATM    1  O   UNL     1      -5.357  18.737  67.661  1.00  0.00    -0.166 OA 
HETATM    2  C   UNL     1      -6.247  19.356  68.465  1.00  0.00    -0.241 C  
HETATM    3  O   UNL     1      -6.541  18.929  69.573  1.00  0.00    -0.283 OA 
HETATM    4  C   UNL     1      -6.838  20.609  67.879  1.00  0.00    -0.335 C  
ENDROOT
BRANCH   4   5
HETATM    5  C   UNL     1      -8.067  20.299  67.042  1.00  0.00    -0.321 C  
BRANCH   5   6
HETATM    6  N   UNL     1      -8.498  18.921  67.165  1.00  0.00    -0.271 N  
HETATM    7  C   UNL     1      -9.739  18.594  67.678  1.00  0.00    -0.303 C  
HETATM    8  H   UNL     1      -7.870  18.175  66.867  1.00  0.00     0.000 HD 
HETATM    9  O   UNL     1     -10.557  19.432  68.039  1.00  0.00    -0.407 OA 
BRANCH   7  10
HETATM   10  C   UNL     1     -10.028  17.137  67.834  1.00  0.00    -0.292 A  
HETATM   11  C   UNL     1      -9.022  16.218  67.515  1.00  0.00    -0.193 A  
HETATM   12  C   UNL     1      -9.276  14.841  67.577  1.00  0.00    -0.198 A  
HETATM   13  C   UNL     1     -10.528  14.350  67.971  1.00  0.00    -0.237 A  
HETATM   14  C   UNL     1     -11.269  16.663  68.274  1.00  0.00    -0.220 A  
HETATM   15  C   UNL     1     -11.516  15.282  68.329  1.00  0.00    -0.359 A  
BRANCH  13  16
HETATM   16  N   UNL     1     -10.742  12.954  67.913  1.00  0.00    -0.215 NA 
HETATM   17  H   UNL     1     -11.033  12.395  68.715  1.00  0.00     0.000 HD 
BRANCH  16  18
HETATM   18  N   UNL     1     -10.538  12.478  66.777  1.00  0.00    -0.232 NA 
HETATM   19  H   UNL     1     -10.851  12.922  65.914  1.00  0.00     0.000 HD 
BRANCH  18  20
HETATM   20  C   UNL     1      -9.826  11.258  66.813  1.00  0.00    -0.199 A  
HETATM   21  C   UNL     1      -8.714  10.983  66.004  1.00  0.00    -0.192 A  
HETATM   22  C   UNL     1      -8.098   9.726  66.020  1.00  0.00    -0.114 A  
HETATM   23  C   UNL     1      -8.602   8.721  66.844  1.00  0.00    -0.115 A  
HETATM   24  O   UNL     1      -8.007   7.485  66.833  1.00  0.00    -0.111 OA 
HETATM   25  C   UNL     1      -9.709   8.963  67.667  1.00  0.00    -0.202 A  
HETATM   26  C   UNL     1     -10.317   7.944  68.570  1.00  0.00    -0.200 C  
HETATM   27  C   UNL     1     -10.311  10.236  67.639  1.00  0.00    -0.264 A  
HETATM   28  H   UNL     1      -8.351   6.799  67.394  1.00  0.00     0.000 HD 
HETATM   29  O   UNL     1     -11.280   8.190  69.282  1.00  0.00     0.065 OA 
HETATM   30  O   UNL     1      -9.737   6.725  68.546  1.00  0.00    -0.133 OA 
ENDBRANCH  18  20
ENDBRANCH  16  18
ENDBRANCH  13  16
ENDBRANCH   7  10
ENDBRANCH   5   6
ENDBRANCH   4   5
TORSDOF 6
ENDMDL
MODEL      250
REMARK 921   NORMALIZED FREE ENERGY PREDICTED BY IDOCK:   -4.37 KCAL/MOL
REMARK 922        TOTAL FREE ENERGY PREDICTED BY IDOCK:   -6.90 KCAL/MOL
REMARK 923 INTER-LIGAND FREE ENERGY PREDICTED BY IDOCK:   -5.73 KCAL/MOL
REMARK 924 INTRA-LIGAND FREE ENERGY PREDICTED BY IDOCK:   -1.17 KCAL/MOL
REMARK 927      BINDING AFFINITY PREDICTED BY RF-SCORE:    0.00 PKD
ROOT
HETATM    1  O   UNL     1     -10.361  14.554  66.964  1.00  0.00    -0.260 OA 
HETATM    2  C   UNL     1      -9.888  14.766  68.210  1.00  0.00    -0.222 C  
HETATM    3  O   UNL     1      -8.790  14.369  68.574  1.00  0.00    -0.177 OA 
HETATM    4  C   UNL     1     -10.828  15.528  69.103  1.00  0.00    -0.251 C  
ENDROOT
BRANCH   4   5
HETATM    5  C   UNL     1     -11.794  14.595  69.812  1.00  0.00    -0.316 C  
BRANCH   5   6
HETATM    6  N   UNL     1     -11.386  13.206  69.742  1.00  0.00    -0.491 N  
HETATM    7  C   UNL     1     -12.044  12.222  70.453  1.00  0.00    -0.300 C  
HETATM    8  H   UNL     1     -10.594  12.949  69.152  1.00  0.00     0.000 HD 
HETATM    9  O   UNL     1     -13.016  12.446  71.166  1.00  0.00    -0.268 OA 
BRANCH   7  10
HETATM   10  C   UNL     1     -11.473  10.845  70.364  1.00  0.00    -0.367 A  
HETATM   11  C   UNL     1     -12.150   9.797  70.998  1.00  0.00    -0.434 A  
HETATM   12  C   UNL     1     -11.609   8.504  71.001  1.00  0.00    -0.317 A  
HETATM   13  C   UNL     1     -10.394   8.223  70.362  1.00  0.00    -0.205 A  
HETATM   14  C   UNL     1     -10.282  10.572  69.681  1.00  0.00    -0.207 A  
HETATM   15  C   UNL     1      -9.745   9.275  69.693  1.00  0.00    -0.192 A  
BRANCH  13  16
HETATM   16  N   UNL     1      -9.861   6.921  70.492  1.00  0.00    -0.179 NA 
HETATM   17  H   UNL     1     -10.265   6.204  71.095  1.00  0.00     0.000 HD 
BRANCH  16  18
HETATM   18  N   UNL     1      -8.844   6.739  69.790  1.00  0.00    -0.141 NA 
HETATM   19  H   UNL     1      -7.931   7.140  70.006  1.00  0.00     0.000 HD 
BRANCH  18  20
HETATM   20  C   UNL     1      -9.093   5.922  68.666  1.00  0.00    -0.115 A  
HETATM   21  C   UNL     1      -9.629   4.628  68.749  1.00  0.00    -0.229 A  
HETATM   22  C   UNL     1      -9.776   3.828  67.610  1.00  0.00    -0.136 A  
HETATM   23  C   UNL     1      -9.372   4.315  66.368  1.00  0.00    -0.164 A  
HETATM   24  O   UNL     1      -9.496   3.514  65.262  1.00  0.00    -0.153 OA 
HETATM   25  C   UNL     1      -8.836   5.604  66.249  1.00  0.00    -0.137 A  
HETATM   26  C   UNL     1      -8.372   6.199  64.963  1.00  0.00    -0.112 C  
HETATM   27  C   UNL     1      -8.702   6.394  67.407  1.00  0.00    -0.106 A  
HETATM   28  H   UNL     1      -9.221   3.846  64.415  1.00  0.00     0.000 HD 
HETATM   29  O   UNL     1      -7.915   7.331  64.892  1.00  0.00    -0.120 OA 
HETATM   30  O   UNL     1      -8.483   5.403  63.878  1.00  0.00    -0.131 OA 
ENDBRANCH  18  20
ENDBRANCH  16  18
ENDBRANCH  13  16
ENDBRANCH   7  10
ENDBRANCH   5   6
ENDBRANCH   4   5
TORSDOF 6
ENDMDL
MODEL      251
REMARK 921   NORMALIZED FREE ENERGY PREDICTED BY IDOCK:   -4.37 KCAL/MOL
REMARK 922        TOTAL FREE ENERGY PREDICTED BY IDOCK:   -6.90 KCAL/MOL
REMARK 923 INTER-LIGAND FREE ENERGY PREDICTED BY IDOCK:   -5.86 KCAL/MOL
REMARK 924 INTRA-LIGAND FREE ENERGY PREDICTED BY IDOCK:   -1.04 KCAL/MOL
REMARK 927      BINDING AFFINITY PREDICTED BY RF-SCORE:    0.00 PKD
ROOT
HETATM    1  O   UNL     1      -8.081  17.931  67.827  1.00  0.00    -0.224 OA 
HETATM    2  C   UNL     1      -7.743  16.904  67.019  1.00  0.00    -0.195 C  
HETATM    3  O   UNL     1      -8.541  16.374  66.259  1.00  0.00    -0.296 OA 
HETATM    4  C   UNL     1      -6.306  16.476  67.138  1.00  0.00    -0.220 C  
ENDROOT
BRANCH   4   5
HETATM    5  C   UNL     1      -6.128  15.445  68.239  1.00  0.00    -0.117 C  
BRANCH   5   6
HETATM    6  N   UNL     1      -7.115  14.386  68.182  1.00  0.00    -0.109 N  
HETATM    7  C   UNL     1      -6.848  13.179  67.565  1.00  0.00    -0.149 C  
HETATM    8  H   UNL     1      -8.030  14.535  68.608  1.00  0.00     0.000 HD 
HETATM    9  O   UNL     1      -5.767  12.915  67.049  1.00  0.00    -0.323 OA 
BRANCH   7  10
HETATM   10  C   UNL     1      -7.976  12.205  67.498  1.00  0.00    -0.163 A  
HETATM   11  C   UNL     1      -9.047  12.358  68.387  1.00  0.00    -0.141 A  
HETATM   12  C   UNL     1     -10.091  11.423  68.406  1.00  0.00    -0.207 A  
HETATM   13  C   UNL     1     -10.100  10.326  67.534  1.00  0.00    -0.198 A  
HETATM   14  C   UNL     1      -7.994  11.141  66.589  1.00  0.00    -0.159 A  
HETATM   15  C   UNL     1      -9.041  10.206  66.618  1.00  0.00    -0.164 A  
BRANCH  13  16
HETATM   16  N   UNL     1     -11.132   9.371  67.679  1.00  0.00    -0.459 NA 
HETATM   17  H   UNL     1     -11.938   9.313  67.057  1.00  0.00     0.000 HD 
BRANCH  16  18
HETATM   18  N   UNL     1     -10.952   8.606  68.650  1.00  0.00    -0.439 NA 
HETATM   19  H   UNL     1     -11.053   8.895  69.623  1.00  0.00     0.000 HD 
BRANCH  18  20
HETATM   20  C   UNL     1     -10.595   7.297  68.256  1.00  0.00    -0.172 A  
HETATM   21  C   UNL     1     -10.685   6.831  66.936  1.00  0.00    -0.394 A  
HETATM   22  C   UNL     1     -10.399   5.499  66.616  1.00  0.00    -0.322 A  
HETATM   23  C   UNL     1     -10.028   4.610  67.624  1.00  0.00    -0.106 A  
HETATM   24  O   UNL     1      -9.774   3.301  67.305  1.00  0.00    -0.356 OA 
HETATM   25  C   UNL     1      -9.924   5.044  68.953  1.00  0.00    -0.236 A  
HETATM   26  C   UNL     1      -9.543   4.161  70.092  1.00  0.00    -0.202 C  
HETATM   27  C   UNL     1     -10.212   6.390  69.252  1.00  0.00    -0.229 A  
HETATM   28  H   UNL     1      -9.522   2.696  67.992  1.00  0.00     0.000 HD 
HETATM   29  O   UNL     1      -9.455   4.573  71.239  1.00  0.00    -0.139 OA 
HETATM   30  O   UNL     1      -9.308   2.870  69.775  1.00  0.00    -0.140 OA 
ENDBRANCH  18  20
ENDBRANCH  16  18
ENDBRANCH  13  16
ENDBRANCH   7  10
ENDBRANCH   5   6
ENDBRANCH   4   5
TORSDOF 6
ENDMDL
MODEL      252
REMARK 921   NORMALIZED FREE ENERGY PREDICTED BY IDOCK:   -4.36 KCAL/MOL
REMARK 922        TOTAL FREE ENERGY PREDICTED BY IDOCK:   -6.87 KCAL/MOL
REMARK 923 INTER-LIGAND FREE ENERGY PREDICTED BY IDOCK:   -5.94 KCAL/MOL
REMARK 924 INTRA-LIGAND FREE ENERGY PREDICTED BY IDOCK:   -0.93 KCAL/MOL
REMARK 927      BINDING AFFINITY PREDICTED BY RF-SCORE:    0.00 PKD
ROOT
HETATM    1  O   UNL     1     -10.196  14.203  68.654  1.00  0.00    -0.234 OA 
HETATM    2  C   UNL     1     -11.510  14.073  68.373  1.00  0.00    -0.306 C  
HETATM    3  O   UNL     1     -12.328  13.710  69.206  1.00  0.00    -0.288 OA 
HETATM    4  C   UNL     1     -11.872  14.414  66.954  1.00  0.00    -0.433 C  
ENDROOT
BRANCH   4   5
HETATM    5  C   UNL     1     -11.732  13.206  66.044  1.00  0.00    -0.379 C  
BRANCH   5   6
HETATM    6  N   UNL     1     -11.698  11.955  66.774  1.00  0.00    -0.282 N  
HETATM    7  C   UNL     1     -10.515  11.273  66.987  1.00  0.00    -0.234 C  
HETATM    8  H   UNL     1     -12.568  11.568  67.140  1.00  0.00     0.000 HD 
HETATM    9  O   UNL     1      -9.427  11.681  66.598  1.00  0.00    -0.190 OA 
BRANCH   7  10
HETATM   10  C   UNL     1     -10.626   9.954  67.676  1.00  0.00    -0.325 A  
HETATM   11  C   UNL     1     -10.991   9.933  69.027  1.00  0.00    -0.223 A  
HETATM   12  C   UNL     1     -11.035   8.721  69.730  1.00  0.00    -0.146 A  
HETATM   13  C   UNL     1     -10.732   7.506  69.103  1.00  0.00    -0.151 A  
HETATM   14  C   UNL     1     -10.365   8.743  67.023  1.00  0.00    -0.353 A  
HETATM   15  C   UNL     1     -10.407   7.535  67.736  1.00  0.00    -0.278 A  
BRANCH  13  16
HETATM   16  N   UNL     1     -10.699   6.338  69.898  1.00  0.00    -0.262 NA 
HETATM   17  H   UNL     1     -10.430   5.420  69.542  1.00  0.00     0.000 HD 
BRANCH  16  18
HETATM   18  N   UNL     1     -11.033   6.547  71.083  1.00  0.00    -0.254 NA 
HETATM   19  H   UNL     1     -11.561   7.367  71.384  1.00  0.00     0.000 HD 
BRANCH  18  20
HETATM   20  C   UNL     1     -10.603   5.529  71.963  1.00  0.00    -0.228 A  
HETATM   21  C   UNL     1     -10.838   5.546  73.346  1.00  0.00    -0.332 A  
HETATM   22  C   UNL     1     -10.316   4.554  74.183  1.00  0.00    -0.293 A  
HETATM   23  C   UNL     1      -9.536   3.533  73.641  1.00  0.00    -0.106 A  
HETATM   24  O   UNL     1      -9.008   2.580  74.473  1.00  0.00    -0.073 OA 
HETATM   25  C   UNL     1      -9.285   3.484  72.263  1.00  0.00    -0.158 A  
HETATM   26  C   UNL     1      -8.457   2.435  71.603  1.00  0.00    -0.063 C  
HETATM   27  C   UNL     1      -9.824   4.490  71.439  1.00  0.00    -0.264 A  
HETATM   28  H   UNL     1      -8.476   1.884  74.104  1.00  0.00     0.000 HD 
HETATM   29  O   UNL     1      -8.263   2.417  70.396  1.00  0.00    -0.041 OA 
HETATM   30  O   UNL     1      -7.927   1.506  72.428  1.00  0.00    -0.043 OA 
ENDBRANCH  18  20
ENDBRANCH  16  18
ENDBRANCH  13  16
ENDBRANCH   7  10
ENDBRANCH   5   6
ENDBRANCH   4   5
TORSDOF 6
ENDMDL
MODEL      253
REMARK 921   NORMALIZED FREE ENERGY PREDICTED BY IDOCK:   -4.36 KCAL/MOL
REMARK 922        TOTAL FREE ENERGY PREDICTED BY IDOCK:   -6.87 KCAL/MOL
REMARK 923 INTER-LIGAND FREE ENERGY PREDICTED BY IDOCK:   -5.96 KCAL/MOL
REMARK 924 INTRA-LIGAND FREE ENERGY PREDICTED BY IDOCK:   -0.91 KCAL/MOL
REMARK 927      BINDING AFFINITY PREDICTED BY RF-SCORE:    0.00 PKD
ROOT
HETATM    1  O   UNL     1     -12.148   9.181  72.175  1.00  0.00    -0.362 OA 
HETATM    2  C   UNL     1     -13.241   9.864  71.773  1.00  0.00    -0.434 C  
HETATM    3  O   UNL     1     -14.232   9.310  71.319  1.00  0.00    -0.193 OA 
HETATM    4  C   UNL     1     -13.128  11.354  71.935  1.00  0.00    -0.505 C  
ENDROOT
BRANCH   4   5
HETATM    5  C   UNL     1     -12.489  11.994  70.715  1.00  0.00    -0.279 C  
BRANCH   5   6
HETATM    6  N   UNL     1     -11.498  11.144  70.089  1.00  0.00    -0.418 N  
HETATM    7  C   UNL     1     -11.395  11.042  68.715  1.00  0.00    -0.283 C  
HETATM    8  H   UNL     1     -10.860  10.607  70.677  1.00  0.00     0.000 HD 
HETATM    9  O   UNL     1     -12.109  11.669  67.941  1.00  0.00    -0.613 OA 
BRANCH   7  10
HETATM   10  C   UNL     1     -10.391  10.066  68.196  1.00  0.00    -0.228 A  
HETATM   11  C   UNL     1      -9.220   9.855  68.933  1.00  0.00    -0.160 A  
HETATM   12  C   UNL     1      -8.220   9.003  68.445  1.00  0.00    -0.116 A  
HETATM   13  C   UNL     1      -8.370   8.333  67.223  1.00  0.00    -0.124 A  
HETATM   14  C   UNL     1     -10.576   9.367  66.997  1.00  0.00    -0.272 A  
HETATM   15  C   UNL     1      -9.567   8.520  66.513  1.00  0.00    -0.303 A  
BRANCH  13  16
HETATM   16  N   UNL     1      -7.279   7.571  66.747  1.00  0.00    -0.082 NA 
HETATM   17  H   UNL     1      -6.633   7.899  66.028  1.00  0.00     0.000 HD 
BRANCH  16  18
HETATM   18  N   UNL     1      -7.189   6.453  67.297  1.00  0.00    -0.076 NA 
HETATM   19  H   UNL     1      -6.583   6.265  68.096  1.00  0.00     0.000 HD 
BRANCH  18  20
HETATM   20  C   UNL     1      -8.015   5.478  66.696  1.00  0.00    -0.101 A  
HETATM   21  C   UNL     1      -8.665   4.461  67.413  1.00  0.00    -0.110 A  
HETATM   22  C   UNL     1      -9.403   3.469  66.758  1.00  0.00    -0.203 A  
HETATM   23  C   UNL     1      -9.489   3.478  65.366  1.00  0.00    -0.152 A  
HETATM   24  O   UNL     1     -10.193   2.487  64.732  1.00  0.00    -0.345 OA 
HETATM   25  C   UNL     1      -8.855   4.481  64.621  1.00  0.00    -0.151 A  
HETATM   26  C   UNL     1      -8.888   4.560  63.132  1.00  0.00    -0.128 C  
HETATM   27  C   UNL     1      -8.121   5.472  65.300  1.00  0.00    -0.122 A  
HETATM   28  H   UNL     1     -10.251   2.493  63.784  1.00  0.00     0.000 HD 
HETATM   29  O   UNL     1      -8.330   5.454  62.511  1.00  0.00    -0.106 OA 
HETATM   30  O   UNL     1      -9.571   3.575  62.511  1.00  0.00    -0.092 OA 
ENDBRANCH  18  20
ENDBRANCH  16  18
ENDBRANCH  13  16
ENDBRANCH   7  10
ENDBRANCH   5   6
ENDBRANCH   4   5
TORSDOF 6
ENDMDL
MODEL      254
REMARK 921   NORMALIZED FREE ENERGY PREDICTED BY IDOCK:   -4.35 KCAL/MOL
REMARK 922        TOTAL FREE ENERGY PREDICTED BY IDOCK:   -6.87 KCAL/MOL
REMARK 923 INTER-LIGAND FREE ENERGY PREDICTED BY IDOCK:   -6.31 KCAL/MOL
REMARK 924 INTRA-LIGAND FREE ENERGY PREDICTED BY IDOCK:   -0.55 KCAL/MOL
REMARK 927      BINDING AFFINITY PREDICTED BY RF-SCORE:    0.00 PKD
ROOT
HETATM    1  O   UNL     1      -7.860  20.456  67.188  1.00  0.00    -0.318 OA 
HETATM    2  C   UNL     1      -8.873  19.772  66.615  1.00  0.00    -0.359 C  
HETATM    3  O   UNL     1      -9.844  20.327  66.119  1.00  0.00    -0.418 OA 
HETATM    4  C   UNL     1      -8.700  18.279  66.643  1.00  0.00    -0.289 C  
ENDROOT
BRANCH   4   5
HETATM    5  C   UNL     1      -9.251  17.684  67.927  1.00  0.00    -0.267 C  
BRANCH   5   6
HETATM    6  N   UNL     1      -9.426  16.248  67.851  1.00  0.00    -0.217 N  
HETATM    7  C   UNL     1     -10.643  15.652  68.120  1.00  0.00    -0.274 C  
HETATM    8  H   UNL     1      -8.631  15.663  67.593  1.00  0.00     0.000 HD 
HETATM    9  O   UNL     1     -11.649  16.286  68.416  1.00  0.00    -0.327 OA 
BRANCH   7  10
HETATM   10  C   UNL     1     -10.670  14.159  68.092  1.00  0.00    -0.251 A  
HETATM   11  C   UNL     1     -11.905  13.515  67.959  1.00  0.00    -0.400 A  
HETATM   12  C   UNL     1     -11.982  12.116  68.002  1.00  0.00    -0.233 A  
HETATM   13  C   UNL     1     -10.834  11.330  68.164  1.00  0.00    -0.217 A  
HETATM   14  C   UNL     1      -9.508  13.387  68.207  1.00  0.00    -0.209 A  
HETATM   15  C   UNL     1      -9.595  11.987  68.254  1.00  0.00    -0.204 A  
BRANCH  13  16
HETATM   16  N   UNL     1     -11.000   9.933  68.300  1.00  0.00    -0.415 NA 
HETATM   17  H   UNL     1     -11.247   9.477  69.179  1.00  0.00     0.000 HD 
BRANCH  16  18
HETATM   18  N   UNL     1     -10.812   9.315  67.231  1.00  0.00    -0.363 NA 
HETATM   19  H   UNL     1     -11.329   9.502  66.372  1.00  0.00     0.000 HD 
BRANCH  18  20
HETATM   20  C   UNL     1      -9.807   8.327  67.338  1.00  0.00    -0.188 A  
HETATM   21  C   UNL     1      -8.536   8.568  67.883  1.00  0.00    -0.134 A  
HETATM   22  C   UNL     1      -7.549   7.575  67.887  1.00  0.00    -0.110 A  
HETATM   23  C   UNL     1      -7.823   6.326  67.331  1.00  0.00    -0.101 A  
HETATM   24  O   UNL     1      -6.841   5.370  67.317  1.00  0.00    -0.057 OA 
HETATM   25  C   UNL     1      -9.083   6.052  66.783  1.00  0.00    -0.134 A  
HETATM   26  C   UNL     1      -9.457   4.749  66.161  1.00  0.00    -0.163 C  
HETATM   27  C   UNL     1     -10.063   7.063  66.793  1.00  0.00    -0.270 A  
HETATM   28  H   UNL     1      -7.028   4.518  66.938  1.00  0.00     0.000 HD 
HETATM   29  O   UNL     1     -10.568   4.540  65.698  1.00  0.00    -0.288 OA 
HETATM   30  O   UNL     1      -8.483   3.814  66.137  1.00  0.00    -0.107 OA 
ENDBRANCH  18  20
ENDBRANCH  16  18
ENDBRANCH  13  16
ENDBRANCH   7  10
ENDBRANCH   5   6
ENDBRANCH   4   5
TORSDOF 6
ENDMDL
MODEL      255
REMARK 921   NORMALIZED FREE ENERGY PREDICTED BY IDOCK:   -4.34 KCAL/MOL
REMARK 922        TOTAL FREE ENERGY PREDICTED BY IDOCK:   -6.85 KCAL/MOL
REMARK 923 INTER-LIGAND FREE ENERGY PREDICTED BY IDOCK:   -6.45 KCAL/MOL
REMARK 924 INTRA-LIGAND FREE ENERGY PREDICTED BY IDOCK:   -0.40 KCAL/MOL
REMARK 927      BINDING AFFINITY PREDICTED BY RF-SCORE:    0.00 PKD
ROOT
HETATM    1  O   UNL     1     -11.206  15.792  72.479  1.00  0.00    -0.184 OA 
HETATM    2  C   UNL     1     -12.224  15.337  73.241  1.00  0.00    -0.463 C  
HETATM    3  O   UNL     1     -12.087  14.426  74.046  1.00  0.00    -0.256 OA 
HETATM    4  C   UNL     1     -13.529  16.048  73.012  1.00  0.00    -0.567 C  
ENDROOT
BRANCH   4   5
HETATM    5  C   UNL     1     -14.314  15.407  71.881  1.00  0.00    -0.543 C  
BRANCH   5   6
HETATM    6  N   UNL     1     -13.482  15.058  70.747  1.00  0.00    -0.658 N  
HETATM    7  C   UNL     1     -12.955  13.790  70.597  1.00  0.00    -0.108 C  
HETATM    8  H   UNL     1     -13.281  15.767  70.041  1.00  0.00     0.000 HD 
HETATM    9  O   UNL     1     -13.167  12.878  71.389  1.00  0.00    -0.297 OA 
BRANCH   7  10
HETATM   10  C   UNL     1     -12.044  13.583  69.433  1.00  0.00    -0.340 A  
HETATM   11  C   UNL     1     -11.945  12.302  68.880  1.00  0.00    -0.300 A  
HETATM   12  C   UNL     1     -11.047  12.049  67.834  1.00  0.00    -0.289 A  
HETATM   13  C   UNL     1     -10.241  13.067  67.307  1.00  0.00    -0.239 A  
HETATM   14  C   UNL     1     -11.281  14.621  68.886  1.00  0.00    -0.285 A  
HETATM   15  C   UNL     1     -10.380  14.359  67.842  1.00  0.00    -0.232 A  
BRANCH  13  16
HETATM   16  N   UNL     1      -9.288  12.718  66.323  1.00  0.00    -0.391 NA 
HETATM   17  H   UNL     1      -9.524  12.546  65.346  1.00  0.00     0.000 HD 
BRANCH  16  18
HETATM   18  N   UNL     1      -8.127  12.641  66.777  1.00  0.00    -0.403 NA 
HETATM   19  H   UNL     1      -7.648  13.416  67.236  1.00  0.00     0.000 HD 
BRANCH  18  20
HETATM   20  C   UNL     1      -7.547  11.367  66.586  1.00  0.00    -0.119 A  
HETATM   21  C   UNL     1      -6.291  11.167  65.994  1.00  0.00    -0.004 A  
HETATM   22  C   UNL     1      -5.800   9.878  65.752  1.00  0.00    -0.065 A  
HETATM   23  C   UNL     1      -6.574   8.769  66.092  1.00  0.00    -0.065 A  
HETATM   24  O   UNL     1      -6.096   7.512  65.828  1.00  0.00    -0.037 OA 
HETATM   25  C   UNL     1      -7.831   8.935  66.688  1.00  0.00    -0.100 A  
HETATM   26  C   UNL     1      -8.726   7.806  67.075  1.00  0.00    -0.129 C  
HETATM   27  C   UNL     1      -8.304  10.239  66.927  1.00  0.00    -0.123 A  
HETATM   28  H   UNL     1      -6.623   6.756  66.059  1.00  0.00     0.000 HD 
HETATM   29  O   UNL     1      -9.815   7.985  67.600  1.00  0.00    -0.151 OA 
HETATM   30  O   UNL     1      -8.257   6.570  66.800  1.00  0.00    -0.108 OA 
ENDBRANCH  18  20
ENDBRANCH  16  18
ENDBRANCH  13  16
ENDBRANCH   7  10
ENDBRANCH   5   6
ENDBRANCH   4   5
TORSDOF 6
ENDMDL
MODEL      256
REMARK 921   NORMALIZED FREE ENERGY PREDICTED BY IDOCK:   -4.34 KCAL/MOL
REMARK 922        TOTAL FREE ENERGY PREDICTED BY IDOCK:   -6.85 KCAL/MOL
REMARK 923 INTER-LIGAND FREE ENERGY PREDICTED BY IDOCK:   -6.09 KCAL/MOL
REMARK 924 INTRA-LIGAND FREE ENERGY PREDICTED BY IDOCK:   -0.76 KCAL/MOL
REMARK 927      BINDING AFFINITY PREDICTED BY RF-SCORE:    0.00 PKD
ROOT
HETATM    1  O   UNL     1      -7.579   2.537  65.252  1.00  0.00    -0.073 OA 
HETATM    2  C   UNL     1      -8.488   3.516  65.448  1.00  0.00    -0.107 C  
HETATM    3  O   UNL     1      -8.652   4.431  64.653  1.00  0.00    -0.122 OA 
HETATM    4  C   UNL     1      -9.274   3.379  66.723  1.00  0.00    -0.194 C  
ENDROOT
BRANCH   4   5
HETATM    5  C   UNL     1      -8.559   4.044  67.886  1.00  0.00    -0.097 C  
BRANCH   5   6
HETATM    6  N   UNL     1      -8.838   5.462  67.979  1.00  0.00    -0.106 N  
HETATM    7  C   UNL     1      -7.852   6.374  68.308  1.00  0.00    -0.105 C  
HETATM    8  H   UNL     1      -9.784   5.796  67.798  1.00  0.00     0.000 HD 
HETATM    9  O   UNL     1      -6.688   6.055  68.520  1.00  0.00    -0.056 OA 
BRANCH   7  10
HETATM   10  C   UNL     1      -8.287   7.794  68.457  1.00  0.00    -0.129 A  
HETATM   11  C   UNL     1      -7.585   8.785  67.762  1.00  0.00    -0.097 A  
HETATM   12  C   UNL     1      -7.914  10.137  67.931  1.00  0.00    -0.101 A  
HETATM   13  C   UNL     1      -8.955  10.530  68.783  1.00  0.00    -0.166 A  
HETATM   14  C   UNL     1      -9.360   8.167  69.276  1.00  0.00    -0.151 A  
HETATM   15  C   UNL     1      -9.679   9.524  69.443  1.00  0.00    -0.190 A  
BRANCH  13  16
HETATM   16  N   UNL     1      -9.163  11.914  68.982  1.00  0.00    -0.375 NA 
HETATM   17  H   UNL     1      -9.592  12.305  69.821  1.00  0.00     0.000 HD 
BRANCH  16  18
HETATM   18  N   UNL     1      -8.765  12.608  68.023  1.00  0.00    -0.183 NA 
HETATM   19  H   UNL     1      -7.780  12.775  67.817  1.00  0.00     0.000 HD 
BRANCH  18  20
HETATM   20  C   UNL     1      -9.825  13.138  67.253  1.00  0.00    -0.232 A  
HETATM   21  C   UNL     1     -10.552  14.282  67.616  1.00  0.00    -0.253 A  
HETATM   22  C   UNL     1     -11.648  14.715  66.861  1.00  0.00    -0.374 A  
HETATM   23  C   UNL     1     -12.037  13.995  65.732  1.00  0.00    -0.427 A  
HETATM   24  O   UNL     1     -13.127  14.412  65.014  1.00  0.00    -0.615 OA 
HETATM   25  C   UNL     1     -11.330  12.850  65.340  1.00  0.00    -0.336 A  
HETATM   26  C   UNL     1     -11.682  12.017  64.154  1.00  0.00    -0.372 C  
HETATM   27  C   UNL     1     -10.228  12.435  66.112  1.00  0.00    -0.262 A  
HETATM   28  H   UNL     1     -13.393  13.921  64.245  1.00  0.00     0.000 HD 
HETATM   29  O   UNL     1     -11.039  11.028  63.835  1.00  0.00    -0.236 OA 
HETATM   30  O   UNL     1     -12.764  12.424  63.457  1.00  0.00    -0.727 OA 
ENDBRANCH  18  20
ENDBRANCH  16  18
ENDBRANCH  13  16
ENDBRANCH   7  10
ENDBRANCH   5   6
ENDBRANCH   4   5
TORSDOF 6
ENDMDL
MODEL      257
REMARK 921   NORMALIZED FREE ENERGY PREDICTED BY IDOCK:   -4.32 KCAL/MOL
REMARK 922        TOTAL FREE ENERGY PREDICTED BY IDOCK:   -6.82 KCAL/MOL
REMARK 923 INTER-LIGAND FREE ENERGY PREDICTED BY IDOCK:   -5.82 KCAL/MOL
REMARK 924 INTRA-LIGAND FREE ENERGY PREDICTED BY IDOCK:   -1.01 KCAL/MOL
REMARK 927      BINDING AFFINITY PREDICTED BY RF-SCORE:    0.00 PKD
ROOT
HETATM    1  O   UNL     1      -9.693  15.673  69.193  1.00  0.00    -0.214 OA 
HETATM    2  C   UNL     1     -10.407  16.247  68.201  1.00  0.00    -0.277 C  
HETATM    3  O   UNL     1     -11.036  17.285  68.358  1.00  0.00    -0.312 OA 
HETATM    4  C   UNL     1     -10.358  15.500  66.897  1.00  0.00    -0.290 C  
ENDROOT
BRANCH   4   5
HETATM    5  C   UNL     1     -11.441  14.437  66.830  1.00  0.00    -0.366 C  
BRANCH   5   6
HETATM    6  N   UNL     1     -10.904  13.094  66.745  1.00  0.00    -0.274 N  
HETATM    7  C   UNL     1     -10.791  12.287  67.861  1.00  0.00    -0.218 C  
HETATM    8  H   UNL     1     -10.603  12.735  65.839  1.00  0.00     0.000 HD 
HETATM    9  O   UNL     1     -11.149  12.637  68.980  1.00  0.00    -0.253 OA 
BRANCH   7  10
HETATM   10  C   UNL     1     -10.142  10.958  67.656  1.00  0.00    -0.206 A  
HETATM   11  C   UNL     1     -10.953   9.854  67.370  1.00  0.00    -0.214 A  
HETATM   12  C   UNL     1     -10.392   8.577  67.242  1.00  0.00    -0.372 A  
HETATM   13  C   UNL     1      -9.013   8.372  67.381  1.00  0.00    -0.134 A  
HETATM   14  C   UNL     1      -8.757  10.778  67.751  1.00  0.00    -0.130 A  
HETATM   15  C   UNL     1      -8.204   9.494  67.627  1.00  0.00    -0.121 A  
BRANCH  13  16
HETATM   16  N   UNL     1      -8.531   7.044  67.340  1.00  0.00    -0.121 NA 
HETATM   17  H   UNL     1      -8.691   6.410  66.557  1.00  0.00     0.000 HD 
BRANCH  16  18
HETATM   18  N   UNL     1      -7.888   6.728  68.363  1.00  0.00    -0.112 NA 
HETATM   19  H   UNL     1      -6.872   6.790  68.433  1.00  0.00     0.000 HD 
BRANCH  18  20
HETATM   20  C   UNL     1      -8.718   6.276  69.414  1.00  0.00    -0.128 A  
HETATM   21  C   UNL     1      -9.480   5.100  69.350  1.00  0.00    -0.198 A  
HETATM   22  C   UNL     1     -10.350   4.742  70.386  1.00  0.00    -0.183 A  
HETATM   23  C   UNL     1     -10.476   5.572  71.500  1.00  0.00    -0.235 A  
HETATM   24  O   UNL     1     -11.351   5.226  72.497  1.00  0.00    -0.243 OA 
HETATM   25  C   UNL     1      -9.727   6.752  71.596  1.00  0.00    -0.166 A  
HETATM   26  C   UNL     1      -9.806   7.699  72.745  1.00  0.00    -0.226 C  
HETATM   27  C   UNL     1      -8.853   7.090  70.545  1.00  0.00    -0.154 A  
HETATM   28  H   UNL     1     -11.437   5.792  73.256  1.00  0.00     0.000 HD 
HETATM   29  O   UNL     1      -9.133   8.718  72.802  1.00  0.00    -0.338 OA 
HETATM   30  O   UNL     1     -10.678   7.362  73.719  1.00  0.00    -0.331 OA 
ENDBRANCH  18  20
ENDBRANCH  16  18
ENDBRANCH  13  16
ENDBRANCH   7  10
ENDBRANCH   5   6
ENDBRANCH   4   5
TORSDOF 6
ENDMDL
MODEL      258
REMARK 921   NORMALIZED FREE ENERGY PREDICTED BY IDOCK:   -4.31 KCAL/MOL
REMARK 922        TOTAL FREE ENERGY PREDICTED BY IDOCK:   -6.80 KCAL/MOL
REMARK 923 INTER-LIGAND FREE ENERGY PREDICTED BY IDOCK:   -5.44 KCAL/MOL
REMARK 924 INTRA-LIGAND FREE ENERGY PREDICTED BY IDOCK:   -1.37 KCAL/MOL
REMARK 927      BINDING AFFINITY PREDICTED BY RF-SCORE:    0.00 PKD
ROOT
HETATM    1  O   UNL     1     -12.418   8.596  72.932  1.00  0.00    -0.278 OA 
HETATM    2  C   UNL     1     -13.310   9.116  72.062  1.00  0.00    -0.445 C  
HETATM    3  O   UNL     1     -14.336   8.531  71.743  1.00  0.00    -0.430 OA 
HETATM    4  C   UNL     1     -12.930  10.468  71.526  1.00  0.00    -0.565 C  
ENDROOT
BRANCH   4   5
HETATM    5  C   UNL     1     -12.054  10.345  70.291  1.00  0.00    -0.286 C  
BRANCH   5   6
HETATM    6  N   UNL     1     -11.473   9.026  70.144  1.00  0.00    -0.446 N  
HETATM    7  C   UNL     1     -10.105   8.833  70.149  1.00  0.00    -0.187 C  
HETATM    8  H   UNL     1     -12.089   8.220  70.034  1.00  0.00     0.000 HD 
HETATM    9  O   UNL     1      -9.299   9.745  70.296  1.00  0.00    -0.247 OA 
BRANCH   7  10
HETATM   10  C   UNL     1      -9.632   7.439  69.901  1.00  0.00    -0.163 A  
HETATM   11  C   UNL     1     -10.505   6.378  70.169  1.00  0.00    -0.269 A  
HETATM   12  C   UNL     1     -10.075   5.053  70.020  1.00  0.00    -0.342 A  
HETATM   13  C   UNL     1      -8.776   4.754  69.588  1.00  0.00    -0.085 A  
HETATM   14  C   UNL     1      -8.346   7.158  69.424  1.00  0.00    -0.133 A  
HETATM   15  C   UNL     1      -7.923   5.827  69.282  1.00  0.00    -0.101 A  
BRANCH  13  16
HETATM   16  N   UNL     1      -8.382   3.397  69.558  1.00  0.00    -0.058 NA 
HETATM   17  H   UNL     1      -7.617   3.020  70.118  1.00  0.00     0.000 HD 
BRANCH  16  18
HETATM   18  N   UNL     1      -9.069   2.708  68.776  1.00  0.00    -0.135 NA 
HETATM   19  H   UNL     1      -9.874   2.154  69.069  1.00  0.00     0.000 HD 
BRANCH  18  20
HETATM   20  C   UNL     1      -8.614   2.778  67.440  1.00  0.00    -0.104 A  
HETATM   21  C   UNL     1      -7.294   2.498  67.054  1.00  0.00    -0.061 A  
HETATM   22  C   UNL     1      -6.875   2.665  65.729  1.00  0.00    -0.044 A  
HETATM   23  C   UNL     1      -7.778   3.128  64.772  1.00  0.00    -0.078 A  
HETATM   24  O   UNL     1      -7.351   3.313  63.483  1.00  0.00    -0.052 OA 
HETATM   25  C   UNL     1      -9.104   3.413  65.124  1.00  0.00    -0.144 A  
HETATM   26  C   UNL     1     -10.130   3.920  64.168  1.00  0.00    -0.201 C  
HETATM   27  C   UNL     1      -9.505   3.234  66.461  1.00  0.00    -0.110 A  
HETATM   28  H   UNL     1      -7.966   3.629  62.831  1.00  0.00     0.000 HD 
HETATM   29  O   UNL     1     -11.282   4.152  64.506  1.00  0.00    -0.328 OA 
HETATM   30  O   UNL     1      -9.702   4.113  62.902  1.00  0.00    -0.145 OA 
ENDBRANCH  18  20
ENDBRANCH  16  18
ENDBRANCH  13  16
ENDBRANCH   7  10
ENDBRANCH   5   6
ENDBRANCH   4   5
TORSDOF 6
ENDMDL
MODEL      259
REMARK 921   NORMALIZED FREE ENERGY PREDICTED BY IDOCK:   -4.28 KCAL/MOL
REMARK 922        TOTAL FREE ENERGY PREDICTED BY IDOCK:   -6.77 KCAL/MOL
REMARK 923 INTER-LIGAND FREE ENERGY PREDICTED BY IDOCK:   -5.91 KCAL/MOL
REMARK 924 INTRA-LIGAND FREE ENERGY PREDICTED BY IDOCK:   -0.86 KCAL/MOL
REMARK 927      BINDING AFFINITY PREDICTED BY RF-SCORE:    0.00 PKD
ROOT
HETATM    1  O   UNL     1      -7.386   5.532  64.924  1.00  0.00    -0.064 OA 
HETATM    2  C   UNL     1      -6.964   4.250  64.870  1.00  0.00    -0.054 C  
HETATM    3  O   UNL     1      -7.469   3.422  64.126  1.00  0.00    -0.071 OA 
HETATM    4  C   UNL     1      -5.826   3.939  65.802  1.00  0.00    -0.023 C  
ENDROOT
BRANCH   4   5
HETATM    5  C   UNL     1      -6.332   3.536  67.176  1.00  0.00    -0.036 C  
BRANCH   5   6
HETATM    6  N   UNL     1      -7.268   4.492  67.732  1.00  0.00    -0.065 N  
HETATM    7  C   UNL     1      -7.762   4.359  69.016  1.00  0.00    -0.058 C  
HETATM    8  H   UNL     1      -7.569   5.283  67.163  1.00  0.00     0.000 HD 
HETATM    9  O   UNL     1      -7.434   3.450  69.769  1.00  0.00    -0.045 OA 
BRANCH   7  10
HETATM   10  C   UNL     1      -8.785   5.361  69.439  1.00  0.00    -0.110 A  
HETATM   11  C   UNL     1     -10.101   5.204  68.989  1.00  0.00    -0.257 A  
HETATM   12  C   UNL     1     -11.075   6.162  69.303  1.00  0.00    -0.463 A  
HETATM   13  C   UNL     1     -10.765   7.286  70.081  1.00  0.00    -0.244 A  
HETATM   14  C   UNL     1      -8.470   6.454  70.255  1.00  0.00    -0.135 A  
HETATM   15  C   UNL     1      -9.451   7.410  70.560  1.00  0.00    -0.161 A  
BRANCH  13  16
HETATM   16  N   UNL     1     -11.772   8.259  70.271  1.00  0.00    -0.470 NA 
HETATM   17  H   UNL     1     -12.749   8.119  70.011  1.00  0.00     0.000 HD 
BRANCH  16  18
HETATM   18  N   UNL     1     -11.341   9.308  70.793  1.00  0.00    -0.271 NA 
HETATM   19  H   UNL     1     -10.903   9.343  71.714  1.00  0.00     0.000 HD 
BRANCH  18  20
HETATM   20  C   UNL     1     -11.525  10.444  69.973  1.00  0.00    -0.308 A  
HETATM   21  C   UNL     1     -11.228  10.468  68.602  1.00  0.00    -0.328 A  
HETATM   22  C   UNL     1     -11.349  11.645  67.854  1.00  0.00    -0.369 A  
HETATM   23  C   UNL     1     -11.760  12.821  68.479  1.00  0.00    -0.333 A  
HETATM   24  O   UNL     1     -11.850  13.974  67.743  1.00  0.00    -0.349 OA 
HETATM   25  C   UNL     1     -12.068  12.831  69.846  1.00  0.00    -0.329 A  
HETATM   26  C   UNL     1     -12.506  14.044  70.594  1.00  0.00    -0.365 C  
HETATM   27  C   UNL     1     -11.944  11.635  70.578  1.00  0.00    -0.413 A  
HETATM   28  H   UNL     1     -12.130  14.777  68.169  1.00  0.00     0.000 HD 
HETATM   29  O   UNL     1     -12.774  14.017  71.786  1.00  0.00    -0.325 OA 
HETATM   30  O   UNL     1     -12.580  15.180  69.869  1.00  0.00    -0.264 OA 
ENDBRANCH  18  20
ENDBRANCH  16  18
ENDBRANCH  13  16
ENDBRANCH   7  10
ENDBRANCH   5   6
ENDBRANCH   4   5
TORSDOF 6
ENDMDL
MODEL      260
REMARK 921   NORMALIZED FREE ENERGY PREDICTED BY IDOCK:   -4.27 KCAL/MOL
REMARK 922        TOTAL FREE ENERGY PREDICTED BY IDOCK:   -6.75 KCAL/MOL
REMARK 923 INTER-LIGAND FREE ENERGY PREDICTED BY IDOCK:   -5.89 KCAL/MOL
REMARK 924 INTRA-LIGAND FREE ENERGY PREDICTED BY IDOCK:   -0.86 KCAL/MOL
REMARK 927      BINDING AFFINITY PREDICTED BY RF-SCORE:    0.00 PKD
ROOT
HETATM    1  O   UNL     1      -8.093   3.056  65.797  1.00  0.00    -0.085 OA 
HETATM    2  C   UNL     1      -8.628   3.992  64.984  1.00  0.00    -0.115 C  
HETATM    3  O   UNL     1      -7.943   4.763  64.329  1.00  0.00    -0.091 OA 
HETATM    4  C   UNL     1     -10.132   3.997  64.960  1.00  0.00    -0.203 C  
ENDROOT
BRANCH   4   5
HETATM    5  C   UNL     1     -10.698   4.875  66.062  1.00  0.00    -0.190 C  
BRANCH   5   6
HETATM    6  N   UNL     1     -10.197   6.233  66.011  1.00  0.00    -0.355 N  
HETATM    7  C   UNL     1     -10.349   7.102  67.075  1.00  0.00    -0.298 C  
HETATM    8  H   UNL     1      -9.720   6.556  65.169  1.00  0.00     0.000 HD 
HETATM    9  O   UNL     1     -10.891   6.784  68.128  1.00  0.00    -0.233 OA 
BRANCH   7  10
HETATM   10  C   UNL     1      -9.867   8.499  66.864  1.00  0.00    -0.310 A  
HETATM   11  C   UNL     1      -8.653   8.694  66.196  1.00  0.00    -0.158 A  
HETATM   12  C   UNL     1      -8.129   9.985  66.042  1.00  0.00    -0.124 A  
HETATM   13  C   UNL     1      -8.808  11.108  66.534  1.00  0.00    -0.171 A  
HETATM   14  C   UNL     1     -10.580   9.614  67.320  1.00  0.00    -0.315 A  
HETATM   15  C   UNL     1     -10.046  10.903  67.165  1.00  0.00    -0.235 A  
BRANCH  13  16
HETATM   16  N   UNL     1      -8.171  12.366  66.432  1.00  0.00    -0.382 NA 
HETATM   17  H   UNL     1      -7.777  12.729  65.564  1.00  0.00     0.000 HD 
BRANCH  16  18
HETATM   18  N   UNL     1      -8.143  12.986  67.515  1.00  0.00    -0.168 NA 
HETATM   19  H   UNL     1      -7.916  12.550  68.409  1.00  0.00     0.000 HD 
BRANCH  18  20
HETATM   20  C   UNL     1      -8.458  14.355  67.371  1.00  0.00    -0.203 A  
HETATM   21  C   UNL     1      -9.366  14.848  66.422  1.00  0.00    -0.327 A  
HETATM   22  C   UNL     1      -9.579  16.222  66.265  1.00  0.00    -0.336 A  
HETATM   23  C   UNL     1      -8.869  17.125  67.056  1.00  0.00    -0.229 A  
HETATM   24  O   UNL     1      -9.065  18.470  66.877  1.00  0.00    -0.274 OA 
HETATM   25  C   UNL     1      -7.958  16.666  68.017  1.00  0.00    -0.173 A  
HETATM   26  C   UNL     1      -7.153  17.561  68.897  1.00  0.00    -0.253 C  
HETATM   27  C   UNL     1      -7.763  15.279  68.161  1.00  0.00    -0.120 A  
HETATM   28  H   UNL     1      -8.582  19.086  67.416  1.00  0.00     0.000 HD 
HETATM   29  O   UNL     1      -6.371  17.128  69.731  1.00  0.00    -0.240 OA 
HETATM   30  O   UNL     1      -7.339  18.885  68.709  1.00  0.00    -0.303 OA 
ENDBRANCH  18  20
ENDBRANCH  16  18
ENDBRANCH  13  16
ENDBRANCH   7  10
ENDBRANCH   5   6
ENDBRANCH   4   5
TORSDOF 6
ENDMDL
MODEL      261
REMARK 921   NORMALIZED FREE ENERGY PREDICTED BY IDOCK:   -4.26 KCAL/MOL
REMARK 922        TOTAL FREE ENERGY PREDICTED BY IDOCK:   -6.75 KCAL/MOL
REMARK 923 INTER-LIGAND FREE ENERGY PREDICTED BY IDOCK:   -5.52 KCAL/MOL
REMARK 924 INTRA-LIGAND FREE ENERGY PREDICTED BY IDOCK:   -1.23 KCAL/MOL
REMARK 927      BINDING AFFINITY PREDICTED BY RF-SCORE:    0.00 PKD
ROOT
HETATM    1  O   UNL     1     -11.953   8.604  72.000  1.00  0.00    -0.323 OA 
HETATM    2  C   UNL     1     -13.076   9.300  71.721  1.00  0.00    -0.400 C  
HETATM    3  O   UNL     1     -14.098   8.764  71.316  1.00  0.00    -0.317 OA 
HETATM    4  C   UNL     1     -12.954  10.781  71.951  1.00  0.00    -0.524 C  
ENDROOT
BRANCH   4   5
HETATM    5  C   UNL     1     -12.414  11.488  70.721  1.00  0.00    -0.349 C  
BRANCH   5   6
HETATM    6  N   UNL     1     -11.372  10.736  70.053  1.00  0.00    -0.303 N  
HETATM    7  C   UNL     1     -11.271  10.704  68.675  1.00  0.00    -0.278 C  
HETATM    8  H   UNL     1     -10.695  10.218  70.614  1.00  0.00     0.000 HD 
HETATM    9  O   UNL     1     -12.031  11.315  67.933  1.00  0.00    -0.630 OA 
BRANCH   7  10
HETATM   10  C   UNL     1     -10.207   9.823  68.109  1.00  0.00    -0.220 A  
HETATM   11  C   UNL     1      -8.980   9.740  68.778  1.00  0.00    -0.133 A  
HETATM   12  C   UNL     1      -7.930   8.983  68.241  1.00  0.00    -0.104 A  
HETATM   13  C   UNL     1      -8.082   8.280  67.038  1.00  0.00    -0.104 A  
HETATM   14  C   UNL     1     -10.390   9.089  66.931  1.00  0.00    -0.324 A  
HETATM   15  C   UNL     1      -9.332   8.337  66.398  1.00  0.00    -0.274 A  
BRANCH  13  16
HETATM   16  N   UNL     1      -6.951   7.621  66.507  1.00  0.00    -0.065 NA 
HETATM   17  H   UNL     1      -6.527   7.863  65.610  1.00  0.00     0.000 HD 
BRANCH  16  18
HETATM   18  N   UNL     1      -6.524   6.713  67.249  1.00  0.00    -0.043 NA 
HETATM   19  H   UNL     1      -5.779   6.847  67.934  1.00  0.00     0.000 HD 
BRANCH  18  20
HETATM   20  C   UNL     1      -7.181   5.480  67.041  1.00  0.00    -0.078 A  
HETATM   21  C   UNL     1      -7.331   4.883  65.780  1.00  0.00    -0.077 A  
HETATM   22  C   UNL     1      -8.066   3.703  65.619  1.00  0.00    -0.093 A  
HETATM   23  C   UNL     1      -8.672   3.110  66.726  1.00  0.00    -0.128 A  
HETATM   24  O   UNL     1      -9.411   1.968  66.554  1.00  0.00    -0.357 OA 
HETATM   25  C   UNL     1      -8.539   3.678  68.000  1.00  0.00    -0.116 A  
HETATM   26  C   UNL     1      -9.161   3.116  69.233  1.00  0.00    -0.136 C  
HETATM   27  C   UNL     1      -7.792   4.864  68.140  1.00  0.00    -0.083 A  
HETATM   28  H   UNL     1      -9.825   1.564  67.308  1.00  0.00     0.000 HD 
HETATM   29  O   UNL     1      -9.018   3.633  70.332  1.00  0.00    -0.080 OA 
HETATM   30  O   UNL     1      -9.898   2.000  69.057  1.00  0.00     0.020 OA 
ENDBRANCH  18  20
ENDBRANCH  16  18
ENDBRANCH  13  16
ENDBRANCH   7  10
ENDBRANCH   5   6
ENDBRANCH   4   5
TORSDOF 6
ENDMDL
MODEL      262
REMARK 921   NORMALIZED FREE ENERGY PREDICTED BY IDOCK:   -4.24 KCAL/MOL
REMARK 922        TOTAL FREE ENERGY PREDICTED BY IDOCK:   -6.72 KCAL/MOL
REMARK 923 INTER-LIGAND FREE ENERGY PREDICTED BY IDOCK:   -6.04 KCAL/MOL
REMARK 924 INTRA-LIGAND FREE ENERGY PREDICTED BY IDOCK:   -0.68 KCAL/MOL
REMARK 927      BINDING AFFINITY PREDICTED BY RF-SCORE:    0.00 PKD
ROOT
HETATM    1  O   UNL     1     -14.111  15.524  71.086  1.00  0.00    -0.537 OA 
HETATM    2  C   UNL     1     -12.830  15.538  71.511  1.00  0.00    -0.451 C  
HETATM    3  O   UNL     1     -12.363  16.462  72.163  1.00  0.00    -0.389 OA 
HETATM    4  C   UNL     1     -12.037  14.325  71.112  1.00  0.00    -0.409 C  
ENDROOT
BRANCH   4   5
HETATM    5  C   UNL     1     -11.406  14.504  69.742  1.00  0.00    -0.260 C  
BRANCH   5   6
HETATM    6  N   UNL     1     -10.831  13.280  69.223  1.00  0.00    -0.440 N  
HETATM    7  C   UNL     1     -10.488  13.148  67.891  1.00  0.00    -0.240 C  
HETATM    8  H   UNL     1     -10.674  12.496  69.857  1.00  0.00     0.000 HD 
HETATM    9  O   UNL     1     -10.625  14.049  67.072  1.00  0.00    -0.276 OA 
BRANCH   7  10
HETATM   10  C   UNL     1      -9.986  11.808  67.466  1.00  0.00    -0.204 A  
HETATM   11  C   UNL     1     -10.909  10.767  67.310  1.00  0.00    -0.344 A  
HETATM   12  C   UNL     1     -10.471   9.476  66.983  1.00  0.00    -0.302 A  
HETATM   13  C   UNL     1      -9.111   9.197  66.791  1.00  0.00    -0.144 A  
HETATM   14  C   UNL     1      -8.630  11.556  67.231  1.00  0.00    -0.150 A  
HETATM   15  C   UNL     1      -8.199  10.259  66.909  1.00  0.00    -0.123 A  
BRANCH  13  16
HETATM   16  N   UNL     1      -8.735   7.854  66.564  1.00  0.00    -0.140 NA 
HETATM   17  H   UNL     1      -8.146   7.557  65.786  1.00  0.00     0.000 HD 
BRANCH  16  18
HETATM   18  N   UNL     1      -9.199   7.068  67.417  1.00  0.00    -0.125 NA 
HETATM   19  H   UNL     1     -10.030   6.497  67.265  1.00  0.00     0.000 HD 
BRANCH  18  20
HETATM   20  C   UNL     1      -8.451   7.055  68.615  1.00  0.00    -0.121 A  
HETATM   21  C   UNL     1      -7.259   6.331  68.779  1.00  0.00    -0.084 A  
HETATM   22  C   UNL     1      -6.603   6.285  70.014  1.00  0.00    -0.048 A  
HETATM   23  C   UNL     1      -7.143   6.958  71.109  1.00  0.00    -0.075 A  
HETATM   24  O   UNL     1      -6.506   6.885  72.321  1.00  0.00    -0.055 OA 
HETATM   25  C   UNL     1      -8.329   7.693  70.978  1.00  0.00    -0.112 A  
HETATM   26  C   UNL     1      -8.979   8.434  72.097  1.00  0.00    -0.223 C  
HETATM   27  C   UNL     1      -8.970   7.730  69.725  1.00  0.00    -0.146 A  
HETATM   28  H   UNL     1      -6.874   7.344  73.067  1.00  0.00     0.000 HD 
HETATM   29  O   UNL     1     -10.010   9.072  71.948  1.00  0.00    -0.332 OA 
HETATM   30  O   UNL     1      -8.355   8.348  73.292  1.00  0.00    -0.306 OA 
ENDBRANCH  18  20
ENDBRANCH  16  18
ENDBRANCH  13  16
ENDBRANCH   7  10
ENDBRANCH   5   6
ENDBRANCH   4   5
TORSDOF 6
ENDMDL
MODEL      263
REMARK 921   NORMALIZED FREE ENERGY PREDICTED BY IDOCK:   -4.21 KCAL/MOL
REMARK 922        TOTAL FREE ENERGY PREDICTED BY IDOCK:   -6.67 KCAL/MOL
REMARK 923 INTER-LIGAND FREE ENERGY PREDICTED BY IDOCK:   -5.41 KCAL/MOL
REMARK 924 INTRA-LIGAND FREE ENERGY PREDICTED BY IDOCK:   -1.25 KCAL/MOL
REMARK 927      BINDING AFFINITY PREDICTED BY RF-SCORE:    0.00 PKD
ROOT
HETATM    1  O   UNL     1     -11.470  12.983  69.462  1.00  0.00    -0.264 OA 
HETATM    2  C   UNL     1     -11.404  12.416  68.238  1.00  0.00    -0.284 C  
HETATM    3  O   UNL     1     -12.015  11.396  67.951  1.00  0.00    -0.626 OA 
HETATM    4  C   UNL     1     -10.518  13.149  67.269  1.00  0.00    -0.243 C  
ENDROOT
BRANCH   4   5
HETATM    5  C   UNL     1      -9.078  12.680  67.376  1.00  0.00    -0.191 C  
BRANCH   5   6
HETATM    6  N   UNL     1      -8.967  11.263  67.656  1.00  0.00    -0.140 N  
HETATM    7  C   UNL     1      -8.851  10.332  66.641  1.00  0.00    -0.136 C  
HETATM    8  H   UNL     1      -8.975  10.945  68.625  1.00  0.00     0.000 HD 
HETATM    9  O   UNL     1      -8.814  10.635  65.454  1.00  0.00    -0.179 OA 
BRANCH   7  10
HETATM   10  C   UNL     1      -8.834   8.898  67.057  1.00  0.00    -0.138 A  
HETATM   11  C   UNL     1      -9.838   8.050  66.577  1.00  0.00    -0.289 A  
HETATM   12  C   UNL     1      -9.900   6.715  67.000  1.00  0.00    -0.207 A  
HETATM   13  C   UNL     1      -8.958   6.193  67.897  1.00  0.00    -0.112 A  
HETATM   14  C   UNL     1      -7.859   8.380  67.917  1.00  0.00    -0.107 A  
HETATM   15  C   UNL     1      -7.931   7.043  68.340  1.00  0.00    -0.123 A  
BRANCH  13  16
HETATM   16  N   UNL     1      -9.143   4.870  68.358  1.00  0.00    -0.110 NA 
HETATM   17  H   UNL     1      -8.428   4.145  68.293  1.00  0.00     0.000 HD 
BRANCH  16  18
HETATM   18  N   UNL     1     -10.274   4.681  68.853  1.00  0.00    -0.038 NA 
HETATM   19  H   UNL     1     -11.032   4.204  68.364  1.00  0.00     0.000 HD 
BRANCH  18  20
HETATM   20  C   UNL     1     -10.392   5.197  70.163  1.00  0.00    -0.270 A  
HETATM   21  C   UNL     1     -11.382   6.114  70.550  1.00  0.00    -0.381 A  
HETATM   22  C   UNL     1     -11.402   6.659  71.839  1.00  0.00    -0.318 A  
HETATM   23  C   UNL     1     -10.416   6.298  72.757  1.00  0.00    -0.214 A  
HETATM   24  O   UNL     1     -10.429   6.857  74.008  1.00  0.00    -0.384 OA 
HETATM   25  C   UNL     1      -9.415   5.383  72.403  1.00  0.00    -0.162 A  
HETATM   26  C   UNL     1      -8.320   4.950  73.318  1.00  0.00    -0.104 C  
HETATM   27  C   UNL     1      -9.417   4.843  71.103  1.00  0.00    -0.216 A  
HETATM   28  H   UNL     1      -9.757   6.612  74.634  1.00  0.00     0.000 HD 
HETATM   29  O   UNL     1      -7.466   4.143  72.981  1.00  0.00    -0.071 OA 
HETATM   30  O   UNL     1      -8.329   5.513  74.545  1.00  0.00    -0.106 OA 
ENDBRANCH  18  20
ENDBRANCH  16  18
ENDBRANCH  13  16
ENDBRANCH   7  10
ENDBRANCH   5   6
ENDBRANCH   4   5
TORSDOF 6
ENDMDL
MODEL      264
REMARK 921   NORMALIZED FREE ENERGY PREDICTED BY IDOCK:   -4.20 KCAL/MOL
REMARK 922        TOTAL FREE ENERGY PREDICTED BY IDOCK:   -6.67 KCAL/MOL
REMARK 923 INTER-LIGAND FREE ENERGY PREDICTED BY IDOCK:   -6.13 KCAL/MOL
REMARK 924 INTRA-LIGAND FREE ENERGY PREDICTED BY IDOCK:   -0.53 KCAL/MOL
REMARK 927      BINDING AFFINITY PREDICTED BY RF-SCORE:    0.00 PKD
ROOT
HETATM    1  O   UNL     1      -9.574   2.585  70.127  1.00  0.00    -0.113 OA 
HETATM    2  C   UNL     1      -8.337   2.860  70.596  1.00  0.00    -0.052 C  
HETATM    3  O   UNL     1      -7.699   2.066  71.272  1.00  0.00    -0.039 OA 
HETATM    4  C   UNL     1      -7.823   4.220  70.212  1.00  0.00    -0.052 C  
ENDROOT
BRANCH   4   5
HETATM    5  C   UNL     1      -8.253   5.275  71.217  1.00  0.00    -0.119 C  
BRANCH   5   6
HETATM    6  N   UNL     1      -8.583   6.541  70.594  1.00  0.00    -0.138 N  
HETATM    7  C   UNL     1      -9.357   7.486  71.241  1.00  0.00    -0.149 C  
HETATM    8  H   UNL     1      -8.236   6.740  69.656  1.00  0.00     0.000 HD 
HETATM    9  O   UNL     1      -9.794   7.332  72.376  1.00  0.00    -0.152 OA 
BRANCH   7  10
HETATM   10  C   UNL     1      -9.698   8.711  70.459  1.00  0.00    -0.210 A  
HETATM   11  C   UNL     1      -8.725   9.258  69.614  1.00  0.00    -0.155 A  
HETATM   12  C   UNL     1      -8.980  10.448  68.919  1.00  0.00    -0.170 A  
HETATM   13  C   UNL     1     -10.209  11.110  69.037  1.00  0.00    -0.176 A  
HETATM   14  C   UNL     1     -10.948   9.335  70.551  1.00  0.00    -0.318 A  
HETATM   15  C   UNL     1     -11.192  10.529  69.855  1.00  0.00    -0.374 A  
BRANCH  13  16
HETATM   16  N   UNL     1     -10.357  12.356  68.386  1.00  0.00    -0.226 NA 
HETATM   17  H   UNL     1      -9.791  12.646  67.589  1.00  0.00     0.000 HD 
BRANCH  16  18
HETATM   18  N   UNL     1     -11.254  13.064  68.891  1.00  0.00    -0.266 NA 
HETATM   19  H   UNL     1     -12.084  12.684  69.346  1.00  0.00     0.000 HD 
BRANCH  18  20
HETATM   20  C   UNL     1     -10.997  14.447  68.763  1.00  0.00    -0.250 A  
HETATM   21  C   UNL     1     -11.084  15.355  69.829  1.00  0.00    -0.295 A  
HETATM   22  C   UNL     1     -10.902  16.729  69.630  1.00  0.00    -0.205 A  
HETATM   23  C   UNL     1     -10.640  17.211  68.348  1.00  0.00    -0.371 A  
HETATM   24  O   UNL     1     -10.489  18.561  68.159  1.00  0.00    -0.372 OA 
HETATM   25  C   UNL     1     -10.543  16.331  67.262  1.00  0.00    -0.298 A  
HETATM   26  C   UNL     1     -10.275  16.763  65.860  1.00  0.00    -0.328 C  
HETATM   27  C   UNL     1     -10.725  14.953  67.486  1.00  0.00    -0.276 A  
HETATM   28  H   UNL     1     -10.311  18.890  67.285  1.00  0.00     0.000 HD 
HETATM   29  O   UNL     1     -10.189  15.968  64.936  1.00  0.00    -0.483 OA 
HETATM   30  O   UNL     1     -10.140  18.093  65.676  1.00  0.00    -0.544 OA 
ENDBRANCH  18  20
ENDBRANCH  16  18
ENDBRANCH  13  16
ENDBRANCH   7  10
ENDBRANCH   5   6
ENDBRANCH   4   5
TORSDOF 6
ENDMDL
MODEL      265
REMARK 921   NORMALIZED FREE ENERGY PREDICTED BY IDOCK:   -4.20 KCAL/MOL
REMARK 922        TOTAL FREE ENERGY PREDICTED BY IDOCK:   -6.66 KCAL/MOL
REMARK 923 INTER-LIGAND FREE ENERGY PREDICTED BY IDOCK:   -5.60 KCAL/MOL
REMARK 924 INTRA-LIGAND FREE ENERGY PREDICTED BY IDOCK:   -1.06 KCAL/MOL
REMARK 927      BINDING AFFINITY PREDICTED BY RF-SCORE:    0.00 PKD
ROOT
HETATM    1  O   UNL     1     -11.886  11.804  70.493  1.00  0.00    -0.330 OA 
HETATM    2  C   UNL     1     -12.076  12.006  69.172  1.00  0.00    -0.183 C  
HETATM    3  O   UNL     1     -12.367  11.100  68.403  1.00  0.00    -0.556 OA 
HETATM    4  C   UNL     1     -11.900  13.434  68.736  1.00  0.00    -0.386 C  
ENDROOT
BRANCH   4   5
HETATM    5  C   UNL     1     -10.449  13.732  68.399  1.00  0.00    -0.252 C  
BRANCH   5   6
HETATM    6  N   UNL     1      -9.779  12.615  67.765  1.00  0.00    -0.200 N  
HETATM    7  C   UNL     1      -9.731  12.484  66.391  1.00  0.00    -0.249 C  
HETATM    8  H   UNL     1      -9.331  11.908  68.348  1.00  0.00     0.000 HD 
HETATM    9  O   UNL     1     -10.227  13.300  65.622  1.00  0.00    -0.283 OA 
BRANCH   7  10
HETATM   10  C   UNL     1      -9.087  11.244  65.865  1.00  0.00    -0.217 A  
HETATM   11  C   UNL     1      -9.793  10.463  64.943  1.00  0.00    -0.400 A  
HETATM   12  C   UNL     1      -9.254   9.254  64.481  1.00  0.00    -0.065 A  
HETATM   13  C   UNL     1      -8.000   8.805  64.914  1.00  0.00    -0.135 A  
HETATM   14  C   UNL     1      -7.812  10.833  66.271  1.00  0.00    -0.156 A  
HETATM   15  C   UNL     1      -7.283   9.618  65.808  1.00  0.00    -0.100 A  
BRANCH  13  16
HETATM   16  N   UNL     1      -7.567   7.530  64.485  1.00  0.00    -0.102 NA 
HETATM   17  H   UNL     1      -6.589   7.238  64.480  1.00  0.00     0.000 HD 
BRANCH  16  18
HETATM   18  N   UNL     1      -8.507   6.797  64.111  1.00  0.00    -0.335 NA 
HETATM   19  H   UNL     1      -9.081   6.990  63.290  1.00  0.00     0.000 HD 
BRANCH  18  20
HETATM   20  C   UNL     1      -8.691   5.673  64.947  1.00  0.00    -0.033 A  
HETATM   21  C   UNL     1      -8.686   4.350  64.480  1.00  0.00    -0.144 A  
HETATM   22  C   UNL     1      -8.958   3.277  65.337  1.00  0.00    -0.144 A  
HETATM   23  C   UNL     1      -9.251   3.522  66.678  1.00  0.00    -0.177 A  
HETATM   24  O   UNL     1      -9.542   2.467  67.504  1.00  0.00    -0.400 OA 
HETATM   25  C   UNL     1      -9.261   4.831  67.177  1.00  0.00    -0.136 A  
HETATM   26  C   UNL     1      -9.573   5.183  68.592  1.00  0.00    -0.142 C  
HETATM   27  C   UNL     1      -8.980   5.895  66.298  1.00  0.00    -0.153 A  
HETATM   28  H   UNL     1      -9.743   2.634  68.418  1.00  0.00     0.000 HD 
HETATM   29  O   UNL     1      -9.565   6.336  68.998  1.00  0.00    -0.127 OA 
HETATM   30  O   UNL     1      -9.871   4.142  69.399  1.00  0.00    -0.197 OA 
ENDBRANCH  18  20
ENDBRANCH  16  18
ENDBRANCH  13  16
ENDBRANCH   7  10
ENDBRANCH   5   6
ENDBRANCH   4   5
TORSDOF 6
ENDMDL
MODEL      266
REMARK 921   NORMALIZED FREE ENERGY PREDICTED BY IDOCK:   -4.14 KCAL/MOL
REMARK 922        TOTAL FREE ENERGY PREDICTED BY IDOCK:   -6.58 KCAL/MOL
REMARK 923 INTER-LIGAND FREE ENERGY PREDICTED BY IDOCK:   -5.54 KCAL/MOL
REMARK 924 INTRA-LIGAND FREE ENERGY PREDICTED BY IDOCK:   -1.04 KCAL/MOL
REMARK 927      BINDING AFFINITY PREDICTED BY RF-SCORE:    0.00 PKD
ROOT
HETATM    1  O   UNL     1      -6.509   3.008  68.122  1.00  0.00    -0.035 OA 
HETATM    2  C   UNL     1      -7.202   3.283  69.248  1.00  0.00    -0.048 C  
HETATM    3  O   UNL     1      -8.419   3.401  69.260  1.00  0.00    -0.059 OA 
HETATM    4  C   UNL     1      -6.346   3.428  70.476  1.00  0.00    -0.027 C  
ENDROOT
BRANCH   4   5
HETATM    5  C   UNL     1      -5.850   4.854  70.636  1.00  0.00    -0.017 C  
BRANCH   5   6
HETATM    6  N   UNL     1      -6.918   5.831  70.576  1.00  0.00    -0.056 N  
HETATM    7  C   UNL     1      -7.671   6.151  71.689  1.00  0.00    -0.101 C  
HETATM    8  H   UNL     1      -7.119   6.294  69.689  1.00  0.00     0.000 HD 
HETATM    9  O   UNL     1      -7.478   5.655  72.794  1.00  0.00    -0.093 OA 
BRANCH   7  10
HETATM   10  C   UNL     1      -8.798   7.106  71.475  1.00  0.00    -0.127 A  
HETATM   11  C   UNL     1      -8.497   8.443  71.189  1.00  0.00    -0.178 A  
HETATM   12  C   UNL     1      -9.524   9.387  71.053  1.00  0.00    -0.243 A  
HETATM   13  C   UNL     1     -10.870   9.020  71.185  1.00  0.00    -0.294 A  
HETATM   14  C   UNL     1     -10.139   6.715  71.563  1.00  0.00    -0.200 A  
HETATM   15  C   UNL     1     -11.161   7.668  71.431  1.00  0.00    -0.265 A  
BRANCH  13  16
HETATM   16  N   UNL     1     -11.844  10.042  71.136  1.00  0.00    -0.369 NA 
HETATM   17  H   UNL     1     -12.037  10.675  71.913  1.00  0.00     0.000 HD 
BRANCH  16  18
HETATM   18  N   UNL     1     -12.445  10.090  70.043  1.00  0.00    -0.506 NA 
HETATM   19  H   UNL     1     -13.242   9.497  69.810  1.00  0.00     0.000 HD 
BRANCH  18  20
HETATM   20  C   UNL     1     -11.903  11.052  69.161  1.00  0.00    -0.337 A  
HETATM   21  C   UNL     1     -11.961  12.435  69.390  1.00  0.00    -0.319 A  
HETATM   22  C   UNL     1     -11.483  13.347  68.442  1.00  0.00    -0.351 A  
HETATM   23  C   UNL     1     -10.950  12.881  67.241  1.00  0.00    -0.261 A  
HETATM   24  O   UNL     1     -10.509  13.784  66.309  1.00  0.00    -0.282 OA 
HETATM   25  C   UNL     1     -10.875  11.506  66.983  1.00  0.00    -0.320 A  
HETATM   26  C   UNL     1     -10.329  10.922  65.724  1.00  0.00    -0.241 C  
HETATM   27  C   UNL     1     -11.356  10.605  67.952  1.00  0.00    -0.342 A  
HETATM   28  H   UNL     1     -10.146  13.466  65.490  1.00  0.00     0.000 HD 
HETATM   29  O   UNL     1     -10.270   9.716  65.533  1.00  0.00    -0.228 OA 
HETATM   30  O   UNL     1      -9.908  11.815  64.803  1.00  0.00    -0.245 OA 
ENDBRANCH  18  20
ENDBRANCH  16  18
ENDBRANCH  13  16
ENDBRANCH   7  10
ENDBRANCH   5   6
ENDBRANCH   4   5
TORSDOF 6
ENDMDL
MODEL      267
REMARK 921   NORMALIZED FREE ENERGY PREDICTED BY IDOCK:   -4.11 KCAL/MOL
REMARK 922        TOTAL FREE ENERGY PREDICTED BY IDOCK:   -6.54 KCAL/MOL
REMARK 923 INTER-LIGAND FREE ENERGY PREDICTED BY IDOCK:   -5.32 KCAL/MOL
REMARK 924 INTRA-LIGAND FREE ENERGY PREDICTED BY IDOCK:   -1.21 KCAL/MOL
REMARK 927      BINDING AFFINITY PREDICTED BY RF-SCORE:    0.00 PKD
ROOT
HETATM    1  O   UNL     1      -8.362   6.655  63.264  1.00  0.00     0.012 OA 
HETATM    2  C   UNL     1      -7.760   7.663  63.931  1.00  0.00    -0.126 C  
HETATM    3  O   UNL     1      -7.282   7.519  65.048  1.00  0.00    -0.061 OA 
HETATM    4  C   UNL     1      -7.729   8.965  63.181  1.00  0.00    -0.119 C  
ENDROOT
BRANCH   4   5
HETATM    5  C   UNL     1      -8.988   9.777  63.436  1.00  0.00    -0.246 C  
BRANCH   5   6
HETATM    6  N   UNL     1      -9.595   9.485  64.718  1.00  0.00    -0.439 N  
HETATM    7  C   UNL     1      -9.945  10.490  65.599  1.00  0.00    -0.270 C  
HETATM    8  H   UNL     1      -9.768   8.514  64.978  1.00  0.00     0.000 HD 
HETATM    9  O   UNL     1      -9.789  11.681  65.354  1.00  0.00    -0.228 OA 
BRANCH   7  10
HETATM   10  C   UNL     1     -10.481  10.055  66.923  1.00  0.00    -0.284 A  
HETATM   11  C   UNL     1     -11.053  11.017  67.762  1.00  0.00    -0.356 A  
HETATM   12  C   UNL     1     -11.502  10.663  69.042  1.00  0.00    -0.342 A  
HETATM   13  C   UNL     1     -11.404   9.345  69.508  1.00  0.00     0.057 A  
HETATM   14  C   UNL     1     -10.419   8.725  67.355  1.00  0.00    -0.349 A  
HETATM   15  C   UNL     1     -10.865   8.380  68.640  1.00  0.00     0.027 A  
BRANCH  13  16
HETATM   16  N   UNL     1     -11.782   9.084  70.844  1.00  0.00    -0.296 NA 
HETATM   17  H   UNL     1     -12.663   8.638  71.104  1.00  0.00     0.000 HD 
BRANCH  16  18
HETATM   18  N   UNL     1     -10.926   9.455  71.674  1.00  0.00    -0.366 NA 
HETATM   19  H   UNL     1     -10.848  10.413  72.015  1.00  0.00     0.000 HD 
BRANCH  18  20
HETATM   20  C   UNL     1     -10.074   8.406  72.089  1.00  0.00    -0.306 A  
HETATM   21  C   UNL     1      -8.674   8.480  72.047  1.00  0.00    -0.265 A  
HETATM   22  C   UNL     1      -7.879   7.380  72.390  1.00  0.00    -0.106 A  
HETATM   23  C   UNL     1      -8.483   6.183  72.771  1.00  0.00    -0.123 A  
HETATM   24  O   UNL     1      -7.696   5.104  73.081  1.00  0.00    -0.095 OA 
HETATM   25  C   UNL     1      -9.880   6.077  72.828  1.00  0.00    -0.175 A  
HETATM   26  C   UNL     1     -10.607   4.834  73.216  1.00  0.00    -0.226 C  
HETATM   27  C   UNL     1     -10.660   7.197  72.483  1.00  0.00    -0.273 A  
HETATM   28  H   UNL     1      -8.108   4.288  73.340  1.00  0.00     0.000 HD 
HETATM   29  O   UNL     1     -11.827   4.778  73.262  1.00  0.00    -0.261 OA 
HETATM   30  O   UNL     1      -9.829   3.771  73.507  1.00  0.00    -0.109 OA 
ENDBRANCH  18  20
ENDBRANCH  16  18
ENDBRANCH  13  16
ENDBRANCH   7  10
ENDBRANCH   5   6
ENDBRANCH   4   5
TORSDOF 6
ENDMDL
MODEL      268
REMARK 921   NORMALIZED FREE ENERGY PREDICTED BY IDOCK:   -4.10 KCAL/MOL
REMARK 922        TOTAL FREE ENERGY PREDICTED BY IDOCK:   -6.52 KCAL/MOL
REMARK 923 INTER-LIGAND FREE ENERGY PREDICTED BY IDOCK:   -5.34 KCAL/MOL
REMARK 924 INTRA-LIGAND FREE ENERGY PREDICTED BY IDOCK:   -1.18 KCAL/MOL
REMARK 927      BINDING AFFINITY PREDICTED BY RF-SCORE:    0.00 PKD
ROOT
HETATM    1  O   UNL     1      -7.748   4.387  66.897  1.00  0.00    -0.091 OA 
HETATM    2  C   UNL     1      -9.015   3.956  67.074  1.00  0.00    -0.138 C  
HETATM    3  O   UNL     1      -9.856   4.003  66.187  1.00  0.00    -0.202 OA 
HETATM    4  C   UNL     1      -9.294   3.418  68.450  1.00  0.00    -0.238 C  
ENDROOT
BRANCH   4   5
HETATM    5  C   UNL     1      -9.719   4.524  69.399  1.00  0.00    -0.202 C  
BRANCH   5   6
HETATM    6  N   UNL     1      -9.332   5.841  68.935  1.00  0.00    -0.121 N  
HETATM    7  C   UNL     1      -8.344   6.571  69.569  1.00  0.00    -0.130 C  
HETATM    8  H   UNL     1      -9.799   6.239  68.121  1.00  0.00     0.000 HD 
HETATM    9  O   UNL     1      -7.722   6.155  70.540  1.00  0.00    -0.096 OA 
BRANCH   7  10
HETATM   10  C   UNL     1      -8.100   7.948  69.047  1.00  0.00    -0.124 A  
HETATM   11  C   UNL     1      -7.394   8.094  67.848  1.00  0.00    -0.096 A  
HETATM   12  C   UNL     1      -7.080   9.370  67.361  1.00  0.00    -0.086 A  
HETATM   13  C   UNL     1      -7.473  10.526  68.048  1.00  0.00    -0.090 A  
HETATM   14  C   UNL     1      -8.541   9.093  69.721  1.00  0.00    -0.144 A  
HETATM   15  C   UNL     1      -8.217  10.368  69.229  1.00  0.00    -0.163 A  
BRANCH  13  16
HETATM   16  N   UNL     1      -7.034  11.775  67.552  1.00  0.00    -0.103 NA 
HETATM   17  H   UNL     1      -6.314  12.339  68.003  1.00  0.00     0.000 HD 
BRANCH  16  18
HETATM   18  N   UNL     1      -7.620  12.114  66.503  1.00  0.00    -0.370 NA 
HETATM   19  H   UNL     1      -7.206  12.033  65.574  1.00  0.00     0.000 HD 
BRANCH  18  20
HETATM   20  C   UNL     1      -8.916  12.623  66.739  1.00  0.00    -0.197 A  
HETATM   21  C   UNL     1     -10.070  12.129  66.111  1.00  0.00    -0.251 A  
HETATM   22  C   UNL     1     -11.320  12.726  66.317  1.00  0.00    -0.365 A  
HETATM   23  C   UNL     1     -11.425  13.839  67.150  1.00  0.00    -0.340 A  
HETATM   24  O   UNL     1     -12.648  14.432  67.325  1.00  0.00    -0.538 OA 
HETATM   25  C   UNL     1     -10.292  14.354  67.795  1.00  0.00    -0.238 A  
HETATM   26  C   UNL     1     -10.314  15.544  68.694  1.00  0.00    -0.219 C  
HETATM   27  C   UNL     1      -9.046  13.736  67.578  1.00  0.00    -0.209 A  
HETATM   28  H   UNL     1     -12.720  15.191  67.892  1.00  0.00     0.000 HD 
HETATM   29  O   UNL     1      -9.308  15.964  69.248  1.00  0.00    -0.238 OA 
HETATM   30  O   UNL     1     -11.518  16.133  68.853  1.00  0.00    -0.352 OA 
ENDBRANCH  18  20
ENDBRANCH  16  18
ENDBRANCH  13  16
ENDBRANCH   7  10
ENDBRANCH   5   6
ENDBRANCH   4   5
TORSDOF 6
ENDMDL
MODEL      269
REMARK 921   NORMALIZED FREE ENERGY PREDICTED BY IDOCK:   -4.09 KCAL/MOL
REMARK 922        TOTAL FREE ENERGY PREDICTED BY IDOCK:   -6.51 KCAL/MOL
REMARK 923 INTER-LIGAND FREE ENERGY PREDICTED BY IDOCK:   -5.29 KCAL/MOL
REMARK 924 INTRA-LIGAND FREE ENERGY PREDICTED BY IDOCK:   -1.23 KCAL/MOL
REMARK 927      BINDING AFFINITY PREDICTED BY RF-SCORE:    0.00 PKD
ROOT
HETATM    1  O   UNL     1      -6.145   9.188  73.441  1.00  0.00    -0.295 OA 
HETATM    2  C   UNL     1      -6.263   8.102  72.648  1.00  0.00    -0.072 C  
HETATM    3  O   UNL     1      -5.806   8.062  71.514  1.00  0.00    -0.034 OA 
HETATM    4  C   UNL     1      -7.001   6.955  73.282  1.00  0.00    -0.074 C  
ENDROOT
BRANCH   4   5
HETATM    5  C   UNL     1      -8.498   7.071  73.057  1.00  0.00    -0.113 C  
BRANCH   5   6
HETATM    6  N   UNL     1      -8.848   8.143  72.147  1.00  0.00    -0.159 N  
HETATM    7  C   UNL     1     -10.159   8.539  71.963  1.00  0.00    -0.316 C  
HETATM    8  H   UNL     1      -8.108   8.617  71.629  1.00  0.00     0.000 HD 
HETATM    9  O   UNL     1     -11.101   8.035  72.563  1.00  0.00    -0.319 OA 
BRANCH   7  10
HETATM   10  C   UNL     1     -10.394   9.594  70.934  1.00  0.00    -0.334 A  
HETATM   11  C   UNL     1      -9.419   9.800  69.951  1.00  0.00    -0.264 A  
HETATM   12  C   UNL     1      -9.568  10.829  69.011  1.00  0.00    -0.193 A  
HETATM   13  C   UNL     1     -10.693  11.663  69.019  1.00  0.00    -0.179 A  
HETATM   14  C   UNL     1     -11.546  10.389  70.926  1.00  0.00    -0.428 A  
HETATM   15  C   UNL     1     -11.684  11.421  69.984  1.00  0.00    -0.416 A  
BRANCH  13  16
HETATM   16  N   UNL     1     -10.726  12.742  68.106  1.00  0.00    -0.219 NA 
HETATM   17  H   UNL     1     -11.560  13.300  67.923  1.00  0.00     0.000 HD 
BRANCH  16  18
HETATM   18  N   UNL     1      -9.627  12.939  67.547  1.00  0.00    -0.195 NA 
HETATM   19  H   UNL     1      -9.132  12.228  67.008  1.00  0.00     0.000 HD 
BRANCH  18  20
HETATM   20  C   UNL     1      -9.141  14.252  67.740  1.00  0.00    -0.195 A  
HETATM   21  C   UNL     1      -9.755  15.393  67.203  1.00  0.00    -0.219 A  
HETATM   22  C   UNL     1      -9.184  16.663  67.354  1.00  0.00    -0.216 A  
HETATM   23  C   UNL     1      -7.978  16.800  68.039  1.00  0.00    -0.178 A  
HETATM   24  O   UNL     1      -7.414  18.044  68.159  1.00  0.00    -0.233 OA 
HETATM   25  C   UNL     1      -7.341  15.681  68.590  1.00  0.00    -0.127 A  
HETATM   26  C   UNL     1      -6.046  15.737  69.329  1.00  0.00    -0.133 C  
HETATM   27  C   UNL     1      -7.935  14.414  68.431  1.00  0.00    -0.141 A  
HETATM   28  H   UNL     1      -6.591  18.138  68.625  1.00  0.00     0.000 HD 
HETATM   29  O   UNL     1      -5.520  14.741  69.805  1.00  0.00    -0.093 OA 
HETATM   30  O   UNL     1      -5.488  16.961  69.433  1.00  0.00    -0.140 OA 
ENDBRANCH  18  20
ENDBRANCH  16  18
ENDBRANCH  13  16
ENDBRANCH   7  10
ENDBRANCH   5   6
ENDBRANCH   4   5
TORSDOF 6
ENDMDL
MODEL      270
REMARK 921   NORMALIZED FREE ENERGY PREDICTED BY IDOCK:   -4.08 KCAL/MOL
REMARK 922        TOTAL FREE ENERGY PREDICTED BY IDOCK:   -6.50 KCAL/MOL
REMARK 923 INTER-LIGAND FREE ENERGY PREDICTED BY IDOCK:   -5.76 KCAL/MOL
REMARK 924 INTRA-LIGAND FREE ENERGY PREDICTED BY IDOCK:   -0.75 KCAL/MOL
REMARK 927      BINDING AFFINITY PREDICTED BY RF-SCORE:    0.00 PKD
ROOT
HETATM    1  O   UNL     1      -7.593  17.976  66.805  1.00  0.00    -0.201 OA 
HETATM    2  C   UNL     1      -8.187  19.078  67.311  1.00  0.00    -0.274 C  
HETATM    3  O   UNL     1      -7.550  20.031  67.739  1.00  0.00    -0.281 OA 
HETATM    4  C   UNL     1      -9.690  19.027  67.299  1.00  0.00    -0.368 C  
ENDROOT
BRANCH   4   5
HETATM    5  C   UNL     1     -10.229  18.367  68.556  1.00  0.00    -0.364 C  
BRANCH   5   6
HETATM    6  N   UNL     1     -10.227  16.921  68.476  1.00  0.00    -0.290 N  
HETATM    7  C   UNL     1     -11.138  16.238  67.693  1.00  0.00    -0.184 C  
HETATM    8  H   UNL     1      -9.536  16.394  69.010  1.00  0.00     0.000 HD 
HETATM    9  O   UNL     1     -11.984  16.798  67.005  1.00  0.00     1.254 OA 
BRANCH   7  10
HETATM   10  C   UNL     1     -11.087  14.748  67.765  1.00  0.00    -0.306 A  
HETATM   11  C   UNL     1     -11.617  14.008  66.701  1.00  0.00    -0.400 A  
HETATM   12  C   UNL     1     -11.656  12.608  66.762  1.00  0.00    -0.438 A  
HETATM   13  C   UNL     1     -11.156  11.915  67.873  1.00  0.00    -0.242 A  
HETATM   14  C   UNL     1     -10.541  14.069  68.860  1.00  0.00    -0.241 A  
HETATM   15  C   UNL     1     -10.588  12.667  68.915  1.00  0.00    -0.157 A  
BRANCH  13  16
HETATM   16  N   UNL     1     -11.320  10.512  67.909  1.00  0.00    -0.518 NA 
HETATM   17  H   UNL     1     -12.097  10.024  67.462  1.00  0.00     0.000 HD 
BRANCH  16  18
HETATM   18  N   UNL     1     -10.415   9.932  68.544  1.00  0.00    -0.196 NA 
HETATM   19  H   UNL     1      -9.420  10.105  68.394  1.00  0.00     0.000 HD 
BRANCH  18  20
HETATM   20  C   UNL     1     -10.913   9.012  69.493  1.00  0.00    -0.106 A  
HETATM   21  C   UNL     1     -10.687   7.629  69.427  1.00  0.00    -0.188 A  
HETATM   22  C   UNL     1     -11.275   6.753  70.346  1.00  0.00    -0.378 A  
HETATM   23  C   UNL     1     -12.112   7.255  71.341  1.00  0.00    -0.335 A  
HETATM   24  O   UNL     1     -12.704   6.386  72.221  1.00  0.00    -0.552 OA 
HETATM   25  C   UNL     1     -12.356   8.632  71.437  1.00  0.00    -0.344 A  
HETATM   26  C   UNL     1     -13.243   9.252  72.463  1.00  0.00    -0.366 C  
HETATM   27  C   UNL     1     -11.750   9.496  70.505  1.00  0.00    -0.285 A  
HETATM   28  H   UNL     1     -13.275   6.729  72.899  1.00  0.00     0.000 HD 
HETATM   29  O   UNL     1     -13.429  10.459  72.524  1.00  0.00    -0.157 OA 
HETATM   30  O   UNL     1     -13.835   8.392  73.319  1.00  0.00     0.159 OA 
ENDBRANCH  18  20
ENDBRANCH  16  18
ENDBRANCH  13  16
ENDBRANCH   7  10
ENDBRANCH   5   6
ENDBRANCH   4   5
TORSDOF 6
ENDMDL
MODEL      271
REMARK 921   NORMALIZED FREE ENERGY PREDICTED BY IDOCK:   -4.07 KCAL/MOL
REMARK 922        TOTAL FREE ENERGY PREDICTED BY IDOCK:   -6.48 KCAL/MOL
REMARK 923 INTER-LIGAND FREE ENERGY PREDICTED BY IDOCK:   -5.44 KCAL/MOL
REMARK 924 INTRA-LIGAND FREE ENERGY PREDICTED BY IDOCK:   -1.04 KCAL/MOL
REMARK 927      BINDING AFFINITY PREDICTED BY RF-SCORE:    0.00 PKD
ROOT
HETATM    1  O   UNL     1      -6.409   3.298  68.147  1.00  0.00    -0.031 OA 
HETATM    2  C   UNL     1      -7.569   3.664  68.733  1.00  0.00    -0.053 C  
HETATM    3  O   UNL     1      -8.578   3.921  68.092  1.00  0.00    -0.091 OA 
HETATM    4  C   UNL     1      -7.507   3.725  70.234  1.00  0.00    -0.041 C  
ENDROOT
BRANCH   4   5
HETATM    5  C   UNL     1      -7.034   5.087  70.712  1.00  0.00    -0.048 C  
BRANCH   5   6
HETATM    6  N   UNL     1      -7.823   6.176  70.173  1.00  0.00    -0.100 N  
HETATM    7  C   UNL     1      -8.828   6.774  70.909  1.00  0.00    -0.146 C  
HETATM    8  H   UNL     1      -7.632   6.510  69.229  1.00  0.00     0.000 HD 
HETATM    9  O   UNL     1      -9.106   6.445  72.057  1.00  0.00    -0.142 OA 
BRANCH   7  10
HETATM   10  C   UNL     1      -9.625   7.825  70.210  1.00  0.00    -0.175 A  
HETATM   11  C   UNL     1     -10.061   8.934  70.945  1.00  0.00    -0.304 A  
HETATM   12  C   UNL     1     -10.872   9.906  70.345  1.00  0.00    -0.380 A  
HETATM   13  C   UNL     1     -11.255   9.805  69.001  1.00  0.00    -0.038 A  
HETATM   14  C   UNL     1      -9.960   7.733  68.854  1.00  0.00    -0.185 A  
HETATM   15  C   UNL     1     -10.778   8.709  68.263  1.00  0.00    -0.107 A  
BRANCH  13  16
HETATM   16  N   UNL     1     -12.156  10.768  68.493  1.00  0.00    -0.826 NA 
HETATM   17  H   UNL     1     -13.110  10.886  68.837  1.00  0.00     0.000 HD 
BRANCH  16  18
HETATM   18  N   UNL     1     -11.663  11.460  67.578  1.00  0.00    -0.609 NA 
HETATM   19  H   UNL     1     -11.585  11.145  66.611  1.00  0.00     0.000 HD 
BRANCH  18  20
HETATM   20  C   UNL     1     -11.224  12.727  68.024  1.00  0.00    -0.270 A  
HETATM   21  C   UNL     1     -12.065  13.845  68.136  1.00  0.00    -0.317 A  
HETATM   22  C   UNL     1     -11.560  15.098  68.502  1.00  0.00    -0.354 A  
HETATM   23  C   UNL     1     -10.197  15.247  68.751  1.00  0.00    -0.227 A  
HETATM   24  O   UNL     1      -9.708  16.484  69.084  1.00  0.00    -0.259 OA 
HETATM   25  C   UNL     1      -9.331  14.150  68.653  1.00  0.00    -0.152 A  
HETATM   26  C   UNL     1      -7.861  14.223  68.892  1.00  0.00    -0.097 C  
HETATM   27  C   UNL     1      -9.860  12.898  68.287  1.00  0.00    -0.228 A  
HETATM   28  H   UNL     1      -8.779  16.586  69.254  1.00  0.00     0.000 HD 
HETATM   29  O   UNL     1      -7.133  13.244  68.805  1.00  0.00    -0.100 OA 
HETATM   30  O   UNL     1      -7.382  15.446  69.207  1.00  0.00    -0.163 OA 
ENDBRANCH  18  20
ENDBRANCH  16  18
ENDBRANCH  13  16
ENDBRANCH   7  10
ENDBRANCH   5   6
ENDBRANCH   4   5
TORSDOF 6
ENDMDL
MODEL      272
REMARK 921   NORMALIZED FREE ENERGY PREDICTED BY IDOCK:   -4.05 KCAL/MOL
REMARK 922        TOTAL FREE ENERGY PREDICTED BY IDOCK:   -6.46 KCAL/MOL
REMARK 923 INTER-LIGAND FREE ENERGY PREDICTED BY IDOCK:   -5.29 KCAL/MOL
REMARK 924 INTRA-LIGAND FREE ENERGY PREDICTED BY IDOCK:   -1.17 KCAL/MOL
REMARK 927      BINDING AFFINITY PREDICTED BY RF-SCORE:    0.00 PKD
ROOT
HETATM    1  O   UNL     1      -9.989  14.366  68.869  1.00  0.00    -0.225 OA 
HETATM    2  C   UNL     1     -11.275  14.535  68.494  1.00  0.00    -0.266 C  
HETATM    3  O   UNL     1     -12.212  14.372  69.264  1.00  0.00    -0.306 OA 
HETATM    4  C   UNL     1     -11.448  14.939  67.056  1.00  0.00    -0.333 C  
ENDROOT
BRANCH   4   5
HETATM    5  C   UNL     1     -11.521  13.724  66.148  1.00  0.00    -0.338 C  
BRANCH   5   6
HETATM    6  N   UNL     1     -11.459  12.473  66.876  1.00  0.00    -0.332 N  
HETATM    7  C   UNL     1     -10.381  11.618  66.754  1.00  0.00    -0.222 C  
HETATM    8  H   UNL     1     -12.229  12.218  67.494  1.00  0.00     0.000 HD 
HETATM    9  O   UNL     1      -9.408  11.861  66.049  1.00  0.00    -0.229 OA 
BRANCH   7  10
HETATM   10  C   UNL     1     -10.477  10.322  67.489  1.00  0.00    -0.293 A  
HETATM   11  C   UNL     1     -10.538  10.348  68.887  1.00  0.00    -0.241 A  
HETATM   12  C   UNL     1     -10.555   9.152  69.618  1.00  0.00    -0.237 A  
HETATM   13  C   UNL     1     -10.527   7.908  68.975  1.00  0.00    -0.198 A  
HETATM   14  C   UNL     1     -10.496   9.087  66.831  1.00  0.00    -0.293 A  
HETATM   15  C   UNL     1     -10.508   7.894  67.570  1.00  0.00    -0.332 A  
BRANCH  13  16
HETATM   16  N   UNL     1     -10.444   6.748  69.778  1.00  0.00    -0.200 NA 
HETATM   17  H   UNL     1     -10.267   5.815  69.405  1.00  0.00     0.000 HD 
BRANCH  16  18
HETATM   18  N   UNL     1     -10.611   6.984  70.993  1.00  0.00    -0.217 NA 
HETATM   19  H   UNL     1     -11.272   7.676  71.348  1.00  0.00     0.000 HD 
BRANCH  18  20
HETATM   20  C   UNL     1      -9.787   6.193  71.824  1.00  0.00    -0.164 A  
HETATM   21  C   UNL     1     -10.263   5.124  72.598  1.00  0.00    -0.232 A  
HETATM   22  C   UNL     1      -9.418   4.427  73.470  1.00  0.00    -0.129 A  
HETATM   23  C   UNL     1      -8.080   4.803  73.584  1.00  0.00    -0.106 A  
HETATM   24  O   UNL     1      -7.267   4.131  74.459  1.00  0.00    -0.067 OA 
HETATM   25  C   UNL     1      -7.572   5.864  72.822  1.00  0.00    -0.096 A  
HETATM   26  C   UNL     1      -6.160   6.337  72.888  1.00  0.00    -0.053 C  
HETATM   27  C   UNL     1      -8.438   6.549  71.948  1.00  0.00    -0.119 A  
HETATM   28  H   UNL     1      -6.356   4.388  74.537  1.00  0.00     0.000 HD 
HETATM   29  O   UNL     1      -5.746   7.262  72.203  1.00  0.00    -0.037 OA 
HETATM   30  O   UNL     1      -5.366   5.681  73.761  1.00  0.00    -0.022 OA 
ENDBRANCH  18  20
ENDBRANCH  16  18
ENDBRANCH  13  16
ENDBRANCH   7  10
ENDBRANCH   5   6
ENDBRANCH   4   5
TORSDOF 6
ENDMDL
MODEL      273
REMARK 921   NORMALIZED FREE ENERGY PREDICTED BY IDOCK:   -4.02 KCAL/MOL
REMARK 922        TOTAL FREE ENERGY PREDICTED BY IDOCK:   -6.41 KCAL/MOL
REMARK 923 INTER-LIGAND FREE ENERGY PREDICTED BY IDOCK:   -5.72 KCAL/MOL
REMARK 924 INTRA-LIGAND FREE ENERGY PREDICTED BY IDOCK:   -0.69 KCAL/MOL
REMARK 927      BINDING AFFINITY PREDICTED BY RF-SCORE:    0.00 PKD
ROOT
HETATM    1  O   UNL     1     -10.759  19.241  66.877  1.00  0.00    -0.443 OA 
HETATM    2  C   UNL     1     -10.656  18.051  66.249  1.00  0.00    -0.253 C  
HETATM    3  O   UNL     1     -10.991  17.890  65.084  1.00  0.00    -0.642 OA 
HETATM    4  C   UNL     1     -10.095  16.950  67.106  1.00  0.00    -0.287 C  
ENDROOT
BRANCH   4   5
HETATM    5  C   UNL     1     -11.191  16.249  67.890  1.00  0.00    -0.213 C  
BRANCH   5   6
HETATM    6  N   UNL     1     -10.930  14.837  68.080  1.00  0.00    -0.260 N  
HETATM    7  C   UNL     1     -11.502  13.878  67.266  1.00  0.00    -0.344 C  
HETATM    8  H   UNL     1     -10.309  14.543  68.834  1.00  0.00     0.000 HD 
HETATM    9  O   UNL     1     -12.242  14.151  66.327  1.00  0.00    -0.437 OA 
BRANCH   7  10
HETATM   10  C   UNL     1     -11.223  12.455  67.620  1.00  0.00    -0.340 A  
HETATM   11  C   UNL     1     -11.120  12.111  68.973  1.00  0.00    -0.290 A  
HETATM   12  C   UNL     1     -10.787  10.802  69.346  1.00  0.00    -0.289 A  
HETATM   13  C   UNL     1     -10.564   9.806  68.386  1.00  0.00    -0.226 A  
HETATM   14  C   UNL     1     -11.049  11.462  66.650  1.00  0.00    -0.333 A  
HETATM   15  C   UNL     1     -10.711  10.155  67.033  1.00  0.00    -0.264 A  
BRANCH  13  16
HETATM   16  N   UNL     1     -10.133   8.537  68.833  1.00  0.00    -0.198 NA 
HETATM   17  H   UNL     1     -10.760   7.741  68.961  1.00  0.00     0.000 HD 
BRANCH  16  18
HETATM   18  N   UNL     1      -8.905   8.490  69.056  1.00  0.00    -0.144 NA 
HETATM   19  H   UNL     1      -8.421   9.133  69.683  1.00  0.00     0.000 HD 
BRANCH  18  20
HETATM   20  C   UNL     1      -8.258   7.454  68.346  1.00  0.00    -0.125 A  
HETATM   21  C   UNL     1      -7.877   7.556  66.999  1.00  0.00    -0.116 A  
HETATM   22  C   UNL     1      -7.316   6.468  66.320  1.00  0.00    -0.073 A  
HETATM   23  C   UNL     1      -7.139   5.255  66.985  1.00  0.00    -0.070 A  
HETATM   24  O   UNL     1      -6.612   4.189  66.304  1.00  0.00    -0.040 OA 
HETATM   25  C   UNL     1      -7.506   5.122  68.331  1.00  0.00    -0.075 A  
HETATM   26  C   UNL     1      -7.360   3.861  69.114  1.00  0.00    -0.054 C  
HETATM   27  C   UNL     1      -8.065   6.230  68.996  1.00  0.00    -0.110 A  
HETATM   28  H   UNL     1      -6.493   3.362  66.757  1.00  0.00     0.000 HD 
HETATM   29  O   UNL     1      -7.683   3.780  70.290  1.00  0.00    -0.047 OA 
HETATM   30  O   UNL     1      -6.853   2.809  68.436  1.00  0.00    -0.046 OA 
ENDBRANCH  18  20
ENDBRANCH  16  18
ENDBRANCH  13  16
ENDBRANCH   7  10
ENDBRANCH   5   6
ENDBRANCH   4   5
TORSDOF 6
ENDMDL
MODEL      274
REMARK 921   NORMALIZED FREE ENERGY PREDICTED BY IDOCK:   -4.00 KCAL/MOL
REMARK 922        TOTAL FREE ENERGY PREDICTED BY IDOCK:   -6.39 KCAL/MOL
REMARK 923 INTER-LIGAND FREE ENERGY PREDICTED BY IDOCK:   -5.59 KCAL/MOL
REMARK 924 INTRA-LIGAND FREE ENERGY PREDICTED BY IDOCK:   -0.80 KCAL/MOL
REMARK 927      BINDING AFFINITY PREDICTED BY RF-SCORE:    0.00 PKD
ROOT
HETATM    1  O   UNL     1     -12.659  14.743  73.783  1.00  0.00    -0.501 OA 
HETATM    2  C   UNL     1     -13.190  13.992  72.795  1.00  0.00    -0.481 C  
HETATM    3  O   UNL     1     -13.172  12.769  72.817  1.00  0.00    -0.298 OA 
HETATM    4  C   UNL     1     -13.801  14.790  71.677  1.00  0.00    -0.535 C  
ENDROOT
BRANCH   4   5
HETATM    5  C   UNL     1     -12.767  15.141  70.622  1.00  0.00    -0.398 C  
BRANCH   5   6
HETATM    6  N   UNL     1     -12.108  13.974  70.071  1.00  0.00    -0.329 N  
HETATM    7  C   UNL     1     -11.202  14.076  69.033  1.00  0.00    -0.276 C  
HETATM    8  H   UNL     1     -12.317  13.054  70.460  1.00  0.00     0.000 HD 
HETATM    9  O   UNL     1     -10.881  15.145  68.526  1.00  0.00    -0.234 OA 
BRANCH   7  10
HETATM   10  C   UNL     1     -10.659  12.793  68.498  1.00  0.00    -0.270 A  
HETATM   11  C   UNL     1     -11.545  11.733  68.273  1.00  0.00    -0.373 A  
HETATM   12  C   UNL     1     -11.066  10.489  67.842  1.00  0.00    -0.367 A  
HETATM   13  C   UNL     1      -9.700  10.276  67.612  1.00  0.00    -0.164 A  
HETATM   14  C   UNL     1      -9.297  12.610  68.228  1.00  0.00    -0.195 A  
HETATM   15  C   UNL     1      -8.826  11.359  67.801  1.00  0.00    -0.143 A  
BRANCH  13  16
HETATM   16  N   UNL     1      -9.280   8.969  67.277  1.00  0.00    -0.133 NA 
HETATM   17  H   UNL     1      -8.890   8.718  66.368  1.00  0.00     0.000 HD 
BRANCH  16  18
HETATM   18  N   UNL     1      -9.434   8.154  68.210  1.00  0.00    -0.141 NA 
HETATM   19  H   UNL     1      -9.959   8.362  69.060  1.00  0.00     0.000 HD 
BRANCH  18  20
HETATM   20  C   UNL     1      -8.803   6.914  67.965  1.00  0.00    -0.123 A  
HETATM   21  C   UNL     1      -8.616   5.930  68.948  1.00  0.00    -0.110 A  
HETATM   22  C   UNL     1      -7.908   4.754  68.672  1.00  0.00    -0.077 A  
HETATM   23  C   UNL     1      -7.368   4.555  67.403  1.00  0.00    -0.073 A  
HETATM   24  O   UNL     1      -6.655   3.412  67.150  1.00  0.00    -0.036 OA 
HETATM   25  C   UNL     1      -7.540   5.516  66.397  1.00  0.00    -0.091 A  
HETATM   26  C   UNL     1      -6.989   5.388  65.017  1.00  0.00    -0.053 C  
HETATM   27  C   UNL     1      -8.259   6.689  66.695  1.00  0.00    -0.112 A  
HETATM   28  H   UNL     1      -6.286   3.276  66.285  1.00  0.00     0.000 HD 
HETATM   29  O   UNL     1      -7.164   6.241  64.160  1.00  0.00    -0.054 OA 
HETATM   30  O   UNL     1      -6.276   4.266  64.777  1.00  0.00    -0.025 OA 
ENDBRANCH  18  20
ENDBRANCH  16  18
ENDBRANCH  13  16
ENDBRANCH   7  10
ENDBRANCH   5   6
ENDBRANCH   4   5
TORSDOF 6
ENDMDL
MODEL      275
REMARK 921   NORMALIZED FREE ENERGY PREDICTED BY IDOCK:   -3.95 KCAL/MOL
REMARK 922        TOTAL FREE ENERGY PREDICTED BY IDOCK:   -6.32 KCAL/MOL
REMARK 923 INTER-LIGAND FREE ENERGY PREDICTED BY IDOCK:   -5.78 KCAL/MOL
REMARK 924 INTRA-LIGAND FREE ENERGY PREDICTED BY IDOCK:   -0.54 KCAL/MOL
REMARK 927      BINDING AFFINITY PREDICTED BY RF-SCORE:    0.00 PKD
ROOT
HETATM    1  O   UNL     1     -10.975  19.546  66.130  1.00  0.00    -0.355 OA 
HETATM    2  C   UNL     1     -10.523  18.315  65.811  1.00  0.00    -0.213 C  
HETATM    3  O   UNL     1     -11.147  17.551  65.089  1.00  0.00    -0.535 OA 
HETATM    4  C   UNL     1      -9.191  17.973  66.420  1.00  0.00    -0.256 C  
ENDROOT
BRANCH   4   5
HETATM    5  C   UNL     1      -9.356  17.368  67.803  1.00  0.00    -0.255 C  
BRANCH   5   6
HETATM    6  N   UNL     1      -9.310  15.920  67.792  1.00  0.00    -0.206 N  
HETATM    7  C   UNL     1      -8.145  15.234  67.507  1.00  0.00    -0.172 C  
HETATM    8  H   UNL     1     -10.159  15.394  68.000  1.00  0.00     0.000 HD 
HETATM    9  O   UNL     1      -7.080  15.792  67.267  1.00  0.00    -0.185 OA 
BRANCH   7  10
HETATM   10  C   UNL     1      -8.251  13.747  67.441  1.00  0.00    -0.194 A  
HETATM   11  C   UNL     1      -9.272  13.182  66.669  1.00  0.00    -0.220 A  
HETATM   12  C   UNL     1      -9.452  11.792  66.639  1.00  0.00    -0.215 A  
HETATM   13  C   UNL     1      -8.613  10.935  67.364  1.00  0.00    -0.127 A  
HETATM   14  C   UNL     1      -7.375  12.902  68.134  1.00  0.00    -0.119 A  
HETATM   15  C   UNL     1      -7.566  11.512  68.103  1.00  0.00    -0.113 A  
BRANCH  13  16
HETATM   16  N   UNL     1      -8.916   9.555  67.367  1.00  0.00    -0.131 NA 
HETATM   17  H   UNL     1      -8.210   8.823  67.455  1.00  0.00     0.000 HD 
BRANCH  16  18
HETATM   18  N   UNL     1     -10.138   9.325  67.251  1.00  0.00    -0.213 NA 
HETATM   19  H   UNL     1     -10.630   9.325  66.358  1.00  0.00     0.000 HD 
BRANCH  18  20
HETATM   20  C   UNL     1     -10.767   9.068  68.490  1.00  0.00    -0.095 A  
HETATM   21  C   UNL     1     -11.316  10.069  69.305  1.00  0.00    -0.169 A  
HETATM   22  C   UNL     1     -11.853   9.768  70.562  1.00  0.00    -0.316 A  
HETATM   23  C   UNL     1     -11.833   8.452  71.024  1.00  0.00    -0.252 A  
HETATM   24  O   UNL     1     -12.337   8.171  72.268  1.00  0.00    -0.354 OA 
HETATM   25  C   UNL     1     -11.295   7.428  70.233  1.00  0.00    -0.244 A  
HETATM   26  C   UNL     1     -11.227   5.999  70.653  1.00  0.00    -0.277 C  
HETATM   27  C   UNL     1     -10.765   7.752  68.970  1.00  0.00    -0.119 A  
HETATM   28  H   UNL     1     -12.324   7.275  72.583  1.00  0.00     0.000 HD 
HETATM   29  O   UNL     1     -10.757   5.127  69.935  1.00  0.00    -0.237 OA 
HETATM   30  O   UNL     1     -11.712   5.729  71.883  1.00  0.00    -0.204 OA 
ENDBRANCH  18  20
ENDBRANCH  16  18
ENDBRANCH  13  16
ENDBRANCH   7  10
ENDBRANCH   5   6
ENDBRANCH   4   5
TORSDOF 6
ENDMDL
MODEL      276
REMARK 921   NORMALIZED FREE ENERGY PREDICTED BY IDOCK:   -3.95 KCAL/MOL
REMARK 922        TOTAL FREE ENERGY PREDICTED BY IDOCK:   -6.32 KCAL/MOL
REMARK 923 INTER-LIGAND FREE ENERGY PREDICTED BY IDOCK:   -5.46 KCAL/MOL
REMARK 924 INTRA-LIGAND FREE ENERGY PREDICTED BY IDOCK:   -0.86 KCAL/MOL
REMARK 927      BINDING AFFINITY PREDICTED BY RF-SCORE:    0.00 PKD
ROOT
HETATM    1  O   UNL     1      -7.378   5.800  63.148  1.00  0.00    -0.052 OA 
HETATM    2  C   UNL     1      -6.381   4.942  63.454  1.00  0.00    -0.026 C  
HETATM    3  O   UNL     1      -6.309   3.819  62.976  1.00  0.00    -0.021 OA 
HETATM    4  C   UNL     1      -5.376   5.491  64.429  1.00  0.00    -0.013 C  
ENDROOT
BRANCH   4   5
HETATM    5  C   UNL     1      -5.805   5.237  65.864  1.00  0.00    -0.018 C  
BRANCH   5   6
HETATM    6  N   UNL     1      -6.881   6.109  66.291  1.00  0.00    -0.060 N  
HETATM    7  C   UNL     1      -7.156   6.319  67.628  1.00  0.00    -0.081 C  
HETATM    8  H   UNL     1      -7.449   6.580  65.586  1.00  0.00     0.000 HD 
HETATM    9  O   UNL     1      -6.507   5.807  68.534  1.00  0.00    -0.039 OA 
BRANCH   7  10
HETATM   10  C   UNL     1      -8.344   7.169  67.935  1.00  0.00    -0.118 A  
HETATM   11  C   UNL     1      -9.229   7.481  66.897  1.00  0.00    -0.181 A  
HETATM   12  C   UNL     1     -10.316   8.336  67.127  1.00  0.00    -0.387 A  
HETATM   13  C   UNL     1     -10.553   8.885  68.394  1.00  0.00    -0.143 A  
HETATM   14  C   UNL     1      -8.594   7.672  69.217  1.00  0.00    -0.136 A  
HETATM   15  C   UNL     1      -9.682   8.531  69.437  1.00  0.00    -0.177 A  
BRANCH  13  16
HETATM   16  N   UNL     1     -11.607   9.817  68.527  1.00  0.00    -0.384 NA 
HETATM   17  H   UNL     1     -12.355   9.924  67.841  1.00  0.00     0.000 HD 
BRANCH  16  18
HETATM   18  N   UNL     1     -11.527  10.496  69.572  1.00  0.00    -0.262 NA 
HETATM   19  H   UNL     1     -11.402  10.091  70.500  1.00  0.00     0.000 HD 
BRANCH  18  20
HETATM   20  C   UNL     1     -11.629  11.885  69.333  1.00  0.00    -0.325 A  
HETATM   21  C   UNL     1     -11.304  12.488  68.108  1.00  0.00    -0.343 A  
HETATM   22  C   UNL     1     -11.342  13.878  67.951  1.00  0.00    -0.320 A  
HETATM   23  C   UNL     1     -11.697  14.686  69.031  1.00  0.00    -0.306 A  
HETATM   24  O   UNL     1     -11.706  16.048  68.875  1.00  0.00    -0.381 OA 
HETATM   25  C   UNL     1     -12.031  14.115  70.267  1.00  0.00    -0.404 A  
HETATM   26  C   UNL     1     -12.413  14.903  71.474  1.00  0.00    -0.331 C  
HETATM   27  C   UNL     1     -11.991  12.714  70.401  1.00  0.00    -0.331 A  
HETATM   28  H   UNL     1     -11.948  16.598  69.612  1.00  0.00     0.000 HD 
HETATM   29  O   UNL     1     -12.706  14.373  72.536  1.00  0.00    -0.348 OA 
HETATM   30  O   UNL     1     -12.407  16.244  71.320  1.00  0.00    -0.274 OA 
ENDBRANCH  18  20
ENDBRANCH  16  18
ENDBRANCH  13  16
ENDBRANCH   7  10
ENDBRANCH   5   6
ENDBRANCH   4   5
TORSDOF 6
ENDMDL
MODEL      277
REMARK 921   NORMALIZED FREE ENERGY PREDICTED BY IDOCK:   -3.92 KCAL/MOL
REMARK 922        TOTAL FREE ENERGY PREDICTED BY IDOCK:   -6.28 KCAL/MOL
REMARK 923 INTER-LIGAND FREE ENERGY PREDICTED BY IDOCK:   -5.64 KCAL/MOL
REMARK 924 INTRA-LIGAND FREE ENERGY PREDICTED BY IDOCK:   -0.64 KCAL/MOL
REMARK 927      BINDING AFFINITY PREDICTED BY RF-SCORE:    0.00 PKD
ROOT
HETATM    1  O   UNL     1      -8.597  19.511  66.728  1.00  0.00    -0.289 OA 
HETATM    2  C   UNL     1      -9.876  19.203  66.427  1.00  0.00    -0.381 C  
HETATM    3  O   UNL     1     -10.768  20.039  66.413  1.00  0.00    -0.420 OA 
HETATM    4  C   UNL     1     -10.101  17.749  66.114  1.00  0.00    -0.308 C  
ENDROOT
BRANCH   4   5
HETATM    5  C   UNL     1     -10.384  16.952  67.375  1.00  0.00    -0.309 C  
BRANCH   5   6
HETATM    6  N   UNL     1     -10.422  15.523  67.139  1.00  0.00    -0.281 N  
HETATM    7  C   UNL     1      -9.267  14.792  66.935  1.00  0.00    -0.245 C  
HETATM    8  H   UNL     1     -11.322  15.044  67.123  1.00  0.00     0.000 HD 
HETATM    9  O   UNL     1      -8.146  15.288  66.959  1.00  0.00    -0.197 OA 
BRANCH   7  10
HETATM   10  C   UNL     1      -9.446  13.345  66.616  1.00  0.00    -0.264 A  
HETATM   11  C   UNL     1      -8.511  12.429  67.112  1.00  0.00    -0.185 A  
HETATM   12  C   UNL     1      -8.602  11.072  66.775  1.00  0.00    -0.152 A  
HETATM   13  C   UNL     1      -9.629  10.594  65.951  1.00  0.00    -0.205 A  
HETATM   14  C   UNL     1     -10.505  12.877  65.830  1.00  0.00    -0.293 A  
HETATM   15  C   UNL     1     -10.585  11.516  65.493  1.00  0.00    -0.334 A  
BRANCH  13  16
HETATM   16  N   UNL     1      -9.598   9.233  65.572  1.00  0.00    -0.409 NA 
HETATM   17  H   UNL     1      -8.894   8.837  64.949  1.00  0.00     0.000 HD 
BRANCH  16  18
HETATM   18  N   UNL     1     -10.523   8.566  66.081  1.00  0.00    -0.117 NA 
HETATM   19  H   UNL     1     -11.501   8.654  65.805  1.00  0.00     0.000 HD 
BRANCH  18  20
HETATM   20  C   UNL     1     -10.071   7.676  67.081  1.00  0.00    -0.253 A  
HETATM   21  C   UNL     1     -10.882   7.205  68.125  1.00  0.00    -0.170 A  
HETATM   22  C   UNL     1     -10.360   6.392  69.138  1.00  0.00    -0.248 A  
HETATM   23  C   UNL     1      -9.009   6.049  69.122  1.00  0.00    -0.124 A  
HETATM   24  O   UNL     1      -8.502   5.274  70.132  1.00  0.00    -0.105 OA 
HETATM   25  C   UNL     1      -8.173   6.501  68.092  1.00  0.00    -0.117 A  
HETATM   26  C   UNL     1      -6.717   6.190  68.002  1.00  0.00    -0.064 C  
HETATM   27  C   UNL     1      -8.719   7.313  67.080  1.00  0.00    -0.121 A  
HETATM   28  H   UNL     1      -7.580   5.041  70.122  1.00  0.00     0.000 HD 
HETATM   29  O   UNL     1      -6.016   6.593  67.085  1.00  0.00    -0.020 OA 
HETATM   30  O   UNL     1      -6.219   5.437  69.006  1.00  0.00    -0.030 OA 
ENDBRANCH  18  20
ENDBRANCH  16  18
ENDBRANCH  13  16
ENDBRANCH   7  10
ENDBRANCH   5   6
ENDBRANCH   4   5
TORSDOF 6
ENDMDL
MODEL      278
REMARK 921   NORMALIZED FREE ENERGY PREDICTED BY IDOCK:   -3.88 KCAL/MOL
REMARK 922        TOTAL FREE ENERGY PREDICTED BY IDOCK:   -6.22 KCAL/MOL
REMARK 923 INTER-LIGAND FREE ENERGY PREDICTED BY IDOCK:   -5.54 KCAL/MOL
REMARK 924 INTRA-LIGAND FREE ENERGY PREDICTED BY IDOCK:   -0.68 KCAL/MOL
REMARK 927      BINDING AFFINITY PREDICTED BY RF-SCORE:    0.00 PKD
ROOT
HETATM    1  O   UNL     1     -10.818  17.386  67.705  1.00  0.00    -0.338 OA 
HETATM    2  C   UNL     1     -10.296  17.504  66.465  1.00  0.00    -0.325 C  
HETATM    3  O   UNL     1     -10.616  18.402  65.699  1.00  0.00    -0.622 OA 
HETATM    4  C   UNL     1      -9.292  16.440  66.117  1.00  0.00    -0.360 C  
ENDROOT
BRANCH   4   5
HETATM    5  C   UNL     1      -9.971  15.214  65.531  1.00  0.00    -0.349 C  
BRANCH   5   6
HETATM    6  N   UNL     1      -9.710  14.009  66.292  1.00  0.00    -0.308 N  
HETATM    7  C   UNL     1     -10.710  13.367  66.997  1.00  0.00    -0.268 C  
HETATM    8  H   UNL     1      -8.765  13.625  66.308  1.00  0.00     0.000 HD 
HETATM    9  O   UNL     1     -11.873  13.753  67.012  1.00  0.00    -0.365 OA 
BRANCH   7  10
HETATM   10  C   UNL     1     -10.294  12.187  67.811  1.00  0.00    -0.217 A  
HETATM   11  C   UNL     1     -11.173  11.705  68.789  1.00  0.00    -0.304 A  
HETATM   12  C   UNL     1     -10.791  10.646  69.623  1.00  0.00    -0.318 A  
HETATM   13  C   UNL     1      -9.537  10.036  69.495  1.00  0.00    -0.230 A  
HETATM   14  C   UNL     1      -9.056  11.557  67.640  1.00  0.00    -0.168 A  
HETATM   15  C   UNL     1      -8.680  10.501  68.484  1.00  0.00    -0.140 A  
BRANCH  13  16
HETATM   16  N   UNL     1      -9.182   9.043  70.437  1.00  0.00    -0.191 NA 
HETATM   17  H   UNL     1      -9.828   8.671  71.134  1.00  0.00     0.000 HD 
BRANCH  16  18
HETATM   18  N   UNL     1      -7.996   8.669  70.325  1.00  0.00    -0.099 NA 
HETATM   19  H   UNL     1      -7.233   9.286  70.047  1.00  0.00     0.000 HD 
BRANCH  18  20
HETATM   20  C   UNL     1      -7.823   7.299  70.625  1.00  0.00    -0.094 A  
HETATM   21  C   UNL     1      -7.162   6.396  69.777  1.00  0.00    -0.074 A  
HETATM   22  C   UNL     1      -7.093   5.032  70.083  1.00  0.00    -0.054 A  
HETATM   23  C   UNL     1      -7.700   4.553  71.243  1.00  0.00    -0.077 A  
HETATM   24  O   UNL     1      -7.649   3.211  71.520  1.00  0.00    -0.046 OA 
HETATM   25  C   UNL     1      -8.365   5.428  72.112  1.00  0.00    -0.126 A  
HETATM   26  C   UNL     1      -9.047   4.999  73.367  1.00  0.00    -0.121 C  
HETATM   27  C   UNL     1      -8.418   6.797  71.788  1.00  0.00    -0.120 A  
HETATM   28  H   UNL     1      -8.063   2.884  72.311  1.00  0.00     0.000 HD 
HETATM   29  O   UNL     1      -9.612   5.790  74.108  1.00  0.00    -0.141 OA 
HETATM   30  O   UNL     1      -9.006   3.675  73.629  1.00  0.00    -0.088 OA 
ENDBRANCH  18  20
ENDBRANCH  16  18
ENDBRANCH  13  16
ENDBRANCH   7  10
ENDBRANCH   5   6
ENDBRANCH   4   5
TORSDOF 6
ENDMDL
MODEL      279
REMARK 921   NORMALIZED FREE ENERGY PREDICTED BY IDOCK:   -3.85 KCAL/MOL
REMARK 922        TOTAL FREE ENERGY PREDICTED BY IDOCK:   -6.19 KCAL/MOL
REMARK 923 INTER-LIGAND FREE ENERGY PREDICTED BY IDOCK:   -5.57 KCAL/MOL
REMARK 924 INTRA-LIGAND FREE ENERGY PREDICTED BY IDOCK:   -0.62 KCAL/MOL
REMARK 927      BINDING AFFINITY PREDICTED BY RF-SCORE:    0.00 PKD
ROOT
HETATM    1  O   UNL     1      -8.537  19.818  67.459  1.00  0.00    -0.307 OA 
HETATM    2  C   UNL     1      -9.505  19.434  66.599  1.00  0.00    -0.350 C  
HETATM    3  O   UNL     1     -10.418  20.175  66.263  1.00  0.00    -0.423 OA 
HETATM    4  C   UNL     1      -9.357  18.025  66.098  1.00  0.00    -0.146 C  
ENDROOT
BRANCH   4   5
HETATM    5  C   UNL     1     -10.030  17.034  67.031  1.00  0.00    -0.288 C  
BRANCH   5   6
HETATM    6  N   UNL     1      -9.690  15.658  66.730  1.00  0.00    -0.234 N  
HETATM    7  C   UNL     1     -10.549  14.838  66.024  1.00  0.00    -0.312 C  
HETATM    8  H   UNL     1      -8.794  15.286  67.046  1.00  0.00     0.000 HD 
HETATM    9  O   UNL     1     -11.633  15.214  65.593  1.00  0.00    -0.259 OA 
BRANCH   7  10
HETATM   10  C   UNL     1     -10.120  13.418  65.856  1.00  0.00    -0.300 A  
HETATM   11  C   UNL     1     -10.310  12.805  64.612  1.00  0.00    -0.362 A  
HETATM   12  C   UNL     1      -9.989  11.452  64.433  1.00  0.00    -0.321 A  
HETATM   13  C   UNL     1      -9.459  10.686  65.479  1.00  0.00    -0.214 A  
HETATM   14  C   UNL     1      -9.548  12.679  66.898  1.00  0.00    -0.232 A  
HETATM   15  C   UNL     1      -9.234  11.324  66.711  1.00  0.00    -0.186 A  
BRANCH  13  16
HETATM   16  N   UNL     1      -9.255   9.306  65.254  1.00  0.00    -0.312 NA 
HETATM   17  H   UNL     1      -9.871   8.731  64.680  1.00  0.00     0.000 HD 
BRANCH  16  18
HETATM   18  N   UNL     1      -8.240   8.865  65.833  1.00  0.00    -0.115 NA 
HETATM   19  H   UNL     1      -7.351   9.364  65.872  1.00  0.00     0.000 HD 
BRANCH  18  20
HETATM   20  C   UNL     1      -8.453   7.600  66.425  1.00  0.00    -0.137 A  
HETATM   21  C   UNL     1      -8.906   6.477  65.717  1.00  0.00    -0.097 A  
HETATM   22  C   UNL     1      -9.182   5.270  66.370  1.00  0.00    -0.145 A  
HETATM   23  C   UNL     1      -9.016   5.178  67.751  1.00  0.00    -0.110 A  
HETATM   24  O   UNL     1      -9.314   4.000  68.385  1.00  0.00    -0.139 OA 
HETATM   25  C   UNL     1      -8.561   6.280  68.488  1.00  0.00    -0.114 A  
HETATM   26  C   UNL     1      -8.365   6.272  69.966  1.00  0.00    -0.129 C  
HETATM   27  C   UNL     1      -8.285   7.483  67.810  1.00  0.00    -0.119 A  
HETATM   28  H   UNL     1      -9.201   3.937  69.326  1.00  0.00     0.000 HD 
HETATM   29  O   UNL     1      -7.959   7.249  70.578  1.00  0.00    -0.101 OA 
HETATM   30  O   UNL     1      -8.672   5.113  70.588  1.00  0.00    -0.122 OA 
ENDBRANCH  18  20
ENDBRANCH  16  18
ENDBRANCH  13  16
ENDBRANCH   7  10
ENDBRANCH   5   6
ENDBRANCH   4   5
TORSDOF 6
ENDMDL
MODEL      280
REMARK 921   NORMALIZED FREE ENERGY PREDICTED BY IDOCK:   -3.83 KCAL/MOL
REMARK 922        TOTAL FREE ENERGY PREDICTED BY IDOCK:   -6.16 KCAL/MOL
REMARK 923 INTER-LIGAND FREE ENERGY PREDICTED BY IDOCK:   -5.62 KCAL/MOL
REMARK 924 INTRA-LIGAND FREE ENERGY PREDICTED BY IDOCK:   -0.55 KCAL/MOL
REMARK 927      BINDING AFFINITY PREDICTED BY RF-SCORE:    0.00 PKD
ROOT
HETATM    1  O   UNL     1      -8.829  19.644  67.904  1.00  0.00    -0.313 OA 
HETATM    2  C   UNL     1      -9.873  19.078  67.261  1.00  0.00    -0.326 C  
HETATM    3  O   UNL     1     -10.975  19.605  67.205  1.00  0.00    -0.467 OA 
HETATM    4  C   UNL     1      -9.557  17.752  66.627  1.00  0.00    -0.311 C  
ENDROOT
BRANCH   4   5
HETATM    5  C   UNL     1      -9.760  16.610  67.607  1.00  0.00    -0.250 C  
BRANCH   5   6
HETATM    6  N   UNL     1      -9.508  15.311  67.016  1.00  0.00    -0.217 N  
HETATM    7  C   UNL     1     -10.518  14.384  66.847  1.00  0.00    -0.269 C  
HETATM    8  H   UNL     1      -8.562  15.076  66.717  1.00  0.00     0.000 HD 
HETATM    9  O   UNL     1     -11.684  14.598  67.160  1.00  0.00    -0.378 OA 
BRANCH   7  10
HETATM   10  C   UNL     1     -10.112  13.053  66.307  1.00  0.00    -0.283 A  
HETATM   11  C   UNL     1     -10.948  12.424  65.377  1.00  0.00    -0.335 A  
HETATM   12  C   UNL     1     -10.641  11.142  64.902  1.00  0.00    -0.356 A  
HETATM   13  C   UNL     1      -9.491  10.465  65.329  1.00  0.00    -0.237 A  
HETATM   14  C   UNL     1      -8.936  12.409  66.709  1.00  0.00    -0.205 A  
HETATM   15  C   UNL     1      -8.639  11.123  66.231  1.00  0.00    -0.180 A  
BRANCH  13  16
HETATM   16  N   UNL     1      -9.300   9.137  64.885  1.00  0.00    -0.446 NA 
HETATM   17  H   UNL     1     -10.005   8.405  64.976  1.00  0.00     0.000 HD 
BRANCH  16  18
HETATM   18  N   UNL     1      -8.177   8.953  64.371  1.00  0.00    -0.157 NA 
HETATM   19  H   UNL     1      -7.552   9.711  64.095  1.00  0.00     0.000 HD 
BRANCH  18  20
HETATM   20  C   UNL     1      -7.864   7.585  64.211  1.00  0.00    -0.133 A  
HETATM   21  C   UNL     1      -6.876   7.111  63.335  1.00  0.00    -0.053 A  
HETATM   22  C   UNL     1      -6.664   5.740  63.153  1.00  0.00    -0.032 A  
HETATM   23  C   UNL     1      -7.455   4.822  63.843  1.00  0.00    -0.059 A  
HETATM   24  O   UNL     1      -7.257   3.481  63.638  1.00  0.00    -0.048 OA 
HETATM   25  C   UNL     1      -8.448   5.261  64.728  1.00  0.00    -0.149 A  
HETATM   26  C   UNL     1      -9.342   4.349  65.498  1.00  0.00    -0.162 C  
HETATM   27  C   UNL     1      -8.640   6.645  64.900  1.00  0.00     0.125 A  
HETATM   28  H   UNL     1      -7.796   2.855  64.108  1.00  0.00     0.000 HD 
HETATM   29  O   UNL     1     -10.194   4.766  66.269  1.00  0.00    -0.236 OA 
HETATM   30  O   UNL     1      -9.153   3.030  65.283  1.00  0.00    -0.141 OA 
ENDBRANCH  18  20
ENDBRANCH  16  18
ENDBRANCH  13  16
ENDBRANCH   7  10
ENDBRANCH   5   6
ENDBRANCH   4   5
TORSDOF 6
ENDMDL
MODEL      281
REMARK 921   NORMALIZED FREE ENERGY PREDICTED BY IDOCK:   -3.80 KCAL/MOL
REMARK 922        TOTAL FREE ENERGY PREDICTED BY IDOCK:   -6.12 KCAL/MOL
REMARK 923 INTER-LIGAND FREE ENERGY PREDICTED BY IDOCK:   -5.18 KCAL/MOL
REMARK 924 INTRA-LIGAND FREE ENERGY PREDICTED BY IDOCK:   -0.94 KCAL/MOL
REMARK 927      BINDING AFFINITY PREDICTED BY RF-SCORE:    0.00 PKD
ROOT
HETATM    1  O   UNL     1      -8.631  15.000  67.621  1.00  0.00    -0.158 OA 
HETATM    2  C   UNL     1      -9.309  16.005  67.027  1.00  0.00    -0.218 C  
HETATM    3  O   UNL     1      -9.692  16.993  67.638  1.00  0.00    -0.249 OA 
HETATM    4  C   UNL     1      -9.547  15.800  65.556  1.00  0.00    -0.202 C  
ENDROOT
BRANCH   4   5
HETATM    5  C   UNL     1     -10.826  15.019  65.309  1.00  0.00    -0.386 C  
BRANCH   5   6
HETATM    6  N   UNL     1     -10.678  13.602  65.572  1.00  0.00    -0.288 N  
HETATM    7  C   UNL     1     -11.409  12.968  66.559  1.00  0.00    -0.320 C  
HETATM    8  H   UNL     1     -10.018  13.059  65.015  1.00  0.00     0.000 HD 
HETATM    9  O   UNL     1     -12.236  13.545  67.256  1.00  0.00    -0.351 OA 
BRANCH   7  10
HETATM   10  C   UNL     1     -11.101  11.525  66.788  1.00  0.00    -0.361 A  
HETATM   11  C   UNL     1     -10.375  10.833  65.812  1.00  0.00    -0.295 A  
HETATM   12  C   UNL     1     -10.128   9.460  65.955  1.00  0.00    -0.243 A  
HETATM   13  C   UNL     1     -10.583   8.753  67.075  1.00  0.00    -0.213 A  
HETATM   14  C   UNL     1     -11.522  10.843  67.935  1.00  0.00    -0.344 A  
HETATM   15  C   UNL     1     -11.275   9.467  68.067  1.00  0.00     0.082 A  
BRANCH  13  16
HETATM   16  N   UNL     1     -10.385   7.353  67.102  1.00  0.00    -0.276 NA 
HETATM   17  H   UNL     1     -10.666   6.759  67.882  1.00  0.00     0.000 HD 
BRANCH  16  18
HETATM   18  N   UNL     1      -9.831   6.921  66.069  1.00  0.00    -0.387 NA 
HETATM   19  H   UNL     1      -9.879   7.389  65.164  1.00  0.00     0.000 HD 
BRANCH  18  20
HETATM   20  C   UNL     1      -9.131   5.714  66.288  1.00  0.00    -0.148 A  
HETATM   21  C   UNL     1      -8.488   4.993  65.269  1.00  0.00    -0.141 A  
HETATM   22  C   UNL     1      -7.881   3.759  65.526  1.00  0.00    -0.093 A  
HETATM   23  C   UNL     1      -7.922   3.223  66.813  1.00  0.00    -0.080 A  
HETATM   24  O   UNL     1      -7.347   2.001  67.048  1.00  0.00    -0.057 OA 
HETATM   25  C   UNL     1      -8.552   3.919  67.853  1.00  0.00    -0.111 A  
HETATM   26  C   UNL     1      -8.649   3.416  69.254  1.00  0.00    -0.070 C  
HETATM   27  C   UNL     1      -9.152   5.161  67.574  1.00  0.00    -0.118 A  
HETATM   28  H   UNL     1      -7.375   1.636  67.925  1.00  0.00     0.000 HD 
HETATM   29  O   UNL     1      -9.200   4.052  70.141  1.00  0.00    -0.111 OA 
HETATM   30  O   UNL     1      -8.093   2.206  69.479  1.00  0.00    -0.045 OA 
ENDBRANCH  18  20
ENDBRANCH  16  18
ENDBRANCH  13  16
ENDBRANCH   7  10
ENDBRANCH   5   6
ENDBRANCH   4   5
TORSDOF 6
ENDMDL
MODEL      282
REMARK 921   NORMALIZED FREE ENERGY PREDICTED BY IDOCK:   -3.79 KCAL/MOL
REMARK 922        TOTAL FREE ENERGY PREDICTED BY IDOCK:   -6.11 KCAL/MOL
REMARK 923 INTER-LIGAND FREE ENERGY PREDICTED BY IDOCK:   -4.91 KCAL/MOL
REMARK 924 INTRA-LIGAND FREE ENERGY PREDICTED BY IDOCK:   -1.20 KCAL/MOL
REMARK 927      BINDING AFFINITY PREDICTED BY RF-SCORE:    0.00 PKD
ROOT
HETATM    1  O   UNL     1      -7.888   7.473  62.989  1.00  0.00    -0.129 OA 
HETATM    2  C   UNL     1      -7.463   8.688  63.398  1.00  0.00    -0.110 C  
HETATM    3  O   UNL     1      -6.768   8.841  64.392  1.00  0.00    -0.071 OA 
HETATM    4  C   UNL     1      -7.920   9.824  62.525  1.00  0.00    -0.128 C  
ENDROOT
BRANCH   4   5
HETATM    5  C   UNL     1      -9.279  10.342  62.960  1.00  0.00    -0.291 C  
BRANCH   5   6
HETATM    6  N   UNL     1      -9.721   9.772  64.217  1.00  0.00    -0.409 N  
HETATM    7  C   UNL     1     -10.000  10.566  65.313  1.00  0.00    -0.299 C  
HETATM    8  H   UNL     1      -9.829   8.761  64.295  1.00  0.00     0.000 HD 
HETATM    9  O   UNL     1      -9.916  11.789  65.295  1.00  0.00    -0.242 OA 
BRANCH   7  10
HETATM   10  C   UNL     1     -10.362   9.852  66.573  1.00  0.00    -0.259 A  
HETATM   11  C   UNL     1     -10.685  10.611  67.704  1.00  0.00    -0.315 A  
HETATM   12  C   UNL     1     -10.958   9.981  68.925  1.00  0.00    -0.244 A  
HETATM   13  C   UNL     1     -10.931   8.586  69.045  1.00  0.00     0.111 A  
HETATM   14  C   UNL     1     -10.376   8.455  66.665  1.00  0.00    -0.298 A  
HETATM   15  C   UNL     1     -10.646   7.833  67.894  1.00  0.00    -0.221 A  
BRANCH  13  16
HETATM   16  N   UNL     1     -11.117   8.026  70.330  1.00  0.00    -0.317 NA 
HETATM   17  H   UNL     1     -12.033   7.895  70.761  1.00  0.00     0.000 HD 
BRANCH  16  18
HETATM   18  N   UNL     1     -10.043   7.708  70.882  1.00  0.00    -0.191 NA 
HETATM   19  H   UNL     1      -9.215   8.303  70.890  1.00  0.00     0.000 HD 
BRANCH  18  20
HETATM   20  C   UNL     1     -10.097   6.435  71.493  1.00  0.00    -0.192 A  
HETATM   21  C   UNL     1     -10.185   6.243  72.880  1.00  0.00    -0.207 A  
HETATM   22  C   UNL     1     -10.149   4.960  73.439  1.00  0.00    -0.199 A  
HETATM   23  C   UNL     1     -10.013   3.849  72.608  1.00  0.00    -0.157 A  
HETATM   24  O   UNL     1      -9.953   2.598  73.166  1.00  0.00    -0.103 OA 
HETATM   25  C   UNL     1      -9.926   4.005  71.218  1.00  0.00    -0.202 A  
HETATM   26  C   UNL     1      -9.770   2.874  70.259  1.00  0.00     0.029 C  
HETATM   27  C   UNL     1      -9.969   5.305  70.677  1.00  0.00    -0.287 A  
HETATM   28  H   UNL     1      -9.859   1.840  72.600  1.00  0.00     0.000 HD 
HETATM   29  O   UNL     1      -9.705   3.045  69.050  1.00  0.00    -0.070 OA 
HETATM   30  O   UNL     1      -9.698   1.646  70.814  1.00  0.00    -0.116 OA 
ENDBRANCH  18  20
ENDBRANCH  16  18
ENDBRANCH  13  16
ENDBRANCH   7  10
ENDBRANCH   5   6
ENDBRANCH   4   5
TORSDOF 6
ENDMDL
MODEL      283
REMARK 921   NORMALIZED FREE ENERGY PREDICTED BY IDOCK:   -3.78 KCAL/MOL
REMARK 922        TOTAL FREE ENERGY PREDICTED BY IDOCK:   -6.10 KCAL/MOL
REMARK 923 INTER-LIGAND FREE ENERGY PREDICTED BY IDOCK:   -5.21 KCAL/MOL
REMARK 924 INTRA-LIGAND FREE ENERGY PREDICTED BY IDOCK:   -0.88 KCAL/MOL
REMARK 927      BINDING AFFINITY PREDICTED BY RF-SCORE:    0.00 PKD
ROOT
HETATM    1  O   UNL     1      -7.866   3.127  65.178  1.00  0.00    -0.080 OA 
HETATM    2  C   UNL     1      -8.498   4.134  64.537  1.00  0.00    -0.107 C  
HETATM    3  O   UNL     1      -7.902   4.955  63.854  1.00  0.00    -0.076 OA 
HETATM    4  C   UNL     1      -9.988   4.151  64.738  1.00  0.00    -0.196 C  
ENDROOT
BRANCH   4   5
HETATM    5  C   UNL     1     -10.366   4.933  65.984  1.00  0.00    -0.271 C  
BRANCH   5   6
HETATM    6  N   UNL     1      -9.620   6.167  66.121  1.00  0.00    -0.337 N  
HETATM    7  C   UNL     1     -10.110   7.234  66.849  1.00  0.00    -0.247 C  
HETATM    8  H   UNL     1      -8.709   6.250  65.668  1.00  0.00     0.000 HD 
HETATM    9  O   UNL     1     -11.185   7.205  67.439  1.00  0.00    -0.194 OA 
BRANCH   7  10
HETATM   10  C   UNL     1      -9.285   8.477  66.841  1.00  0.00    -0.197 A  
HETATM   11  C   UNL     1      -9.579   9.482  67.770  1.00  0.00    -0.156 A  
HETATM   12  C   UNL     1      -8.876  10.694  67.748  1.00  0.00    -0.133 A  
HETATM   13  C   UNL     1      -7.859  10.928  66.813  1.00  0.00    -0.141 A  
HETATM   14  C   UNL     1      -8.240   8.677  65.931  1.00  0.00    -0.123 A  
HETATM   15  C   UNL     1      -7.545   9.897  65.913  1.00  0.00    -0.108 A  
BRANCH  13  16
HETATM   16  N   UNL     1      -7.265  12.210  66.786  1.00  0.00    -0.378 NA 
HETATM   17  H   UNL     1      -6.257  12.363  66.739  1.00  0.00     0.000 HD 
BRANCH  16  18
HETATM   18  N   UNL     1      -8.102  13.135  66.823  1.00  0.00    -0.397 NA 
HETATM   19  H   UNL     1      -9.017  13.088  66.373  1.00  0.00     0.000 HD 
BRANCH  18  20
HETATM   20  C   UNL     1      -7.650  14.255  67.556  1.00  0.00    -0.184 A  
HETATM   21  C   UNL     1      -7.420  14.236  68.940  1.00  0.00    -0.123 A  
HETATM   22  C   UNL     1      -7.053  15.397  69.630  1.00  0.00    -0.180 A  
HETATM   23  C   UNL     1      -6.924  16.601  68.938  1.00  0.00    -0.200 A  
HETATM   24  O   UNL     1      -6.590  17.738  69.627  1.00  0.00    -0.199 OA 
HETATM   25  C   UNL     1      -7.143  16.653  67.555  1.00  0.00    -0.169 A  
HETATM   26  C   UNL     1      -7.035  17.897  66.740  1.00  0.00    -0.191 C  
HETATM   27  C   UNL     1      -7.506  15.472  66.879  1.00  0.00    -0.117 A  
HETATM   28  H   UNL     1      -6.502  18.558  69.156  1.00  0.00     0.000 HD 
HETATM   29  O   UNL     1      -7.226  17.907  65.532  1.00  0.00    -0.510 OA 
HETATM   30  O   UNL     1      -6.719  19.017  67.425  1.00  0.00    -0.201 OA 
ENDBRANCH  18  20
ENDBRANCH  16  18
ENDBRANCH  13  16
ENDBRANCH   7  10
ENDBRANCH   5   6
ENDBRANCH   4   5
TORSDOF 6
ENDMDL
MODEL      284
REMARK 921   NORMALIZED FREE ENERGY PREDICTED BY IDOCK:   -3.76 KCAL/MOL
REMARK 922        TOTAL FREE ENERGY PREDICTED BY IDOCK:   -6.07 KCAL/MOL
REMARK 923 INTER-LIGAND FREE ENERGY PREDICTED BY IDOCK:   -5.26 KCAL/MOL
REMARK 924 INTRA-LIGAND FREE ENERGY PREDICTED BY IDOCK:   -0.81 KCAL/MOL
REMARK 927      BINDING AFFINITY PREDICTED BY RF-SCORE:    0.00 PKD
ROOT
HETATM    1  O   UNL     1      -9.478  14.263  65.731  1.00  0.00    -0.203 OA 
HETATM    2  C   UNL     1      -9.172  15.335  66.494  1.00  0.00    -0.290 C  
HETATM    3  O   UNL     1      -8.029  15.754  66.611  1.00  0.00    -0.242 OA 
HETATM    4  C   UNL     1     -10.356  15.959  67.179  1.00  0.00    -0.300 C  
ENDROOT
BRANCH   4   5
HETATM    5  C   UNL     1     -10.629  15.297  68.518  1.00  0.00    -0.237 C  
BRANCH   5   6
HETATM    6  N   UNL     1     -10.176  13.922  68.569  1.00  0.00    -0.239 N  
HETATM    7  C   UNL     1     -11.045  12.883  68.841  1.00  0.00    -0.255 C  
HETATM    8  H   UNL     1      -9.192  13.716  68.398  1.00  0.00     0.000 HD 
HETATM    9  O   UNL     1     -12.244  13.045  69.037  1.00  0.00    -0.227 OA 
BRANCH   7  10
HETATM   10  C   UNL     1     -10.438  11.524  68.950  1.00  0.00    -0.212 A  
HETATM   11  C   UNL     1     -11.286  10.411  68.965  1.00  0.00    -0.279 A  
HETATM   12  C   UNL     1     -10.763   9.123  69.139  1.00  0.00    -0.190 A  
HETATM   13  C   UNL     1      -9.385   8.913  69.289  1.00  0.00    -0.149 A  
HETATM   14  C   UNL     1      -9.056  11.326  69.052  1.00  0.00     0.015 A  
HETATM   15  C   UNL     1      -8.540  10.033  69.232  1.00  0.00    -0.172 A  
BRANCH  13  16
HETATM   16  N   UNL     1      -8.940   7.599  69.562  1.00  0.00    -0.140 NA 
HETATM   17  H   UNL     1      -7.977   7.371  69.811  1.00  0.00     0.000 HD 
BRANCH  16  18
HETATM   18  N   UNL     1      -9.849   6.748  69.468  1.00  0.00    -0.157 NA 
HETATM   19  H   UNL     1     -10.312   6.512  68.590  1.00  0.00     0.000 HD 
BRANCH  18  20
HETATM   20  C   UNL     1     -10.168   6.148  70.707  1.00  0.00    -0.198 A  
HETATM   21  C   UNL     1     -10.737   6.845  71.784  1.00  0.00    -0.247 A  
HETATM   22  C   UNL     1     -10.954   6.221  73.018  1.00  0.00    -0.271 A  
HETATM   23  C   UNL     1     -10.592   4.886  73.190  1.00  0.00    -0.220 A  
HETATM   24  O   UNL     1     -10.785   4.291  74.410  1.00  0.00    -0.238 OA 
HETATM   25  C   UNL     1     -10.025   4.160  72.133  1.00  0.00    -0.243 A  
HETATM   26  C   UNL     1      -9.601   2.734  72.234  1.00  0.00    -0.129 C  
HETATM   27  C   UNL     1      -9.819   4.806  70.899  1.00  0.00    -0.279 A  
HETATM   28  H   UNL     1     -10.538   3.381  74.528  1.00  0.00     0.000 HD 
HETATM   29  O   UNL     1      -9.116   2.127  71.290  1.00  0.00    -0.076 OA 
HETATM   30  O   UNL     1      -9.781   2.156  73.440  1.00  0.00    -0.085 OA 
ENDBRANCH  18  20
ENDBRANCH  16  18
ENDBRANCH  13  16
ENDBRANCH   7  10
ENDBRANCH   5   6
ENDBRANCH   4   5
TORSDOF 6
ENDMDL
MODEL      285
REMARK 921   NORMALIZED FREE ENERGY PREDICTED BY IDOCK:   -3.75 KCAL/MOL
REMARK 922        TOTAL FREE ENERGY PREDICTED BY IDOCK:   -6.05 KCAL/MOL
REMARK 923 INTER-LIGAND FREE ENERGY PREDICTED BY IDOCK:   -5.29 KCAL/MOL
REMARK 924 INTRA-LIGAND FREE ENERGY PREDICTED BY IDOCK:   -0.76 KCAL/MOL
REMARK 927      BINDING AFFINITY PREDICTED BY RF-SCORE:    0.00 PKD
ROOT
HETATM    1  O   UNL     1     -10.684   4.843  67.561  1.00  0.00     0.028 OA 
HETATM    2  C   UNL     1     -11.236   6.012  67.949  1.00  0.00     0.094 C  
HETATM    3  O   UNL     1     -11.533   6.895  67.156  1.00  0.00    -0.166 OA 
HETATM    4  C   UNL     1     -11.450   6.128  69.433  1.00  0.00    -0.256 C  
ENDROOT
BRANCH   4   5
HETATM    5  C   UNL     1     -10.216   6.677  70.127  1.00  0.00    -0.187 C  
BRANCH   5   6
HETATM    6  N   UNL     1      -9.821   7.978  69.626  1.00  0.00    -0.181 N  
HETATM    7  C   UNL     1      -8.746   8.129  68.771  1.00  0.00    -0.138 C  
HETATM    8  H   UNL     1     -10.350   8.802  69.911  1.00  0.00     0.000 HD 
HETATM    9  O   UNL     1      -8.074   7.188  68.366  1.00  0.00    -0.121 OA 
BRANCH   7  10
HETATM   10  C   UNL     1      -8.390   9.530  68.397  1.00  0.00    -0.118 A  
HETATM   11  C   UNL     1      -8.335   9.866  67.039  1.00  0.00    -0.121 A  
HETATM   12  C   UNL     1      -7.934  11.149  66.644  1.00  0.00    -0.159 A  
HETATM   13  C   UNL     1      -7.592  12.127  67.587  1.00  0.00    -0.140 A  
HETATM   14  C   UNL     1      -8.096  10.509  69.353  1.00  0.00    -0.136 A  
HETATM   15  C   UNL     1      -7.690  11.790  68.948  1.00  0.00    -0.041 A  
BRANCH  13  16
HETATM   16  N   UNL     1      -7.099  13.364  67.113  1.00  0.00    -0.383 NA 
HETATM   17  H   UNL     1      -6.421  13.448  66.356  1.00  0.00     0.000 HD 
BRANCH  16  18
HETATM   18  N   UNL     1      -7.582  14.344  67.718  1.00  0.00    -0.147 NA 
HETATM   19  H   UNL     1      -7.347  14.584  68.681  1.00  0.00     0.000 HD 
BRANCH  18  20
HETATM   20  C   UNL     1      -8.490  15.083  66.928  1.00  0.00    -0.236 A  
HETATM   21  C   UNL     1      -8.326  16.444  66.624  1.00  0.00    -0.305 A  
HETATM   22  C   UNL     1      -9.299  17.150  65.907  1.00  0.00    -0.061 A  
HETATM   23  C   UNL     1     -10.460  16.498  65.494  1.00  0.00    -0.301 A  
HETATM   24  O   UNL     1     -11.419  17.205  64.815  1.00  0.00    -0.557 OA 
HETATM   25  C   UNL     1     -10.653  15.140  65.777  1.00  0.00    -0.364 A  
HETATM   26  C   UNL     1     -11.867  14.369  65.381  1.00  0.00    -0.366 C  
HETATM   27  C   UNL     1      -9.660  14.447  66.495  1.00  0.00    -0.310 A  
HETATM   28  H   UNL     1     -12.211  16.761  64.533  1.00  0.00     0.000 HD 
HETATM   29  O   UNL     1     -12.001  13.181  65.637  1.00  0.00    -0.368 OA 
HETATM   30  O   UNL     1     -12.814  15.072  64.724  1.00  0.00    -0.248 OA 
ENDBRANCH  18  20
ENDBRANCH  16  18
ENDBRANCH  13  16
ENDBRANCH   7  10
ENDBRANCH   5   6
ENDBRANCH   4   5
TORSDOF 6
ENDMDL
MODEL      286
REMARK 921   NORMALIZED FREE ENERGY PREDICTED BY IDOCK:   -3.73 KCAL/MOL
REMARK 922        TOTAL FREE ENERGY PREDICTED BY IDOCK:   -6.02 KCAL/MOL
REMARK 923 INTER-LIGAND FREE ENERGY PREDICTED BY IDOCK:   -5.00 KCAL/MOL
REMARK 924 INTRA-LIGAND FREE ENERGY PREDICTED BY IDOCK:   -1.02 KCAL/MOL
REMARK 927      BINDING AFFINITY PREDICTED BY RF-SCORE:    0.00 PKD
ROOT
HETATM    1  O   UNL     1     -10.884  19.163  65.463  1.00  0.00    -0.438 OA 
HETATM    2  C   UNL     1      -9.787  19.579  66.132  1.00  0.00    -0.412 C  
HETATM    3  O   UNL     1      -8.652  19.372  65.728  1.00  0.00    -0.405 OA 
HETATM    4  C   UNL     1     -10.088  20.314  67.409  1.00  0.00    -0.534 C  
ENDROOT
BRANCH   4   5
HETATM    5  C   UNL     1     -10.228  19.354  68.577  1.00  0.00    -0.398 C  
BRANCH   5   6
HETATM    6  N   UNL     1      -9.868  17.993  68.233  1.00  0.00    -0.335 N  
HETATM    7  C   UNL     1      -8.608  17.490  68.494  1.00  0.00    -0.276 C  
HETATM    8  H   UNL     1     -10.561  17.393  67.787  1.00  0.00     0.000 HD 
HETATM    9  O   UNL     1      -7.727  18.140  69.045  1.00  0.00    -0.231 OA 
BRANCH   7  10
HETATM   10  C   UNL     1      -8.336  16.103  68.012  1.00  0.00    -0.163 A  
HETATM   11  C   UNL     1      -9.417  15.309  67.614  1.00  0.00    -0.205 A  
HETATM   12  C   UNL     1      -9.212  13.978  67.224  1.00  0.00    -0.231 A  
HETATM   13  C   UNL     1      -7.929  13.415  67.208  1.00  0.00    -0.119 A  
HETATM   14  C   UNL     1      -7.043  15.570  67.956  1.00  0.00    -0.136 A  
HETATM   15  C   UNL     1      -6.847  14.235  67.570  1.00  0.00    -0.158 A  
BRANCH  13  16
HETATM   16  N   UNL     1      -7.811  12.040  66.902  1.00  0.00    -0.301 NA 
HETATM   17  H   UNL     1      -8.584  11.472  66.554  1.00  0.00     0.000 HD 
BRANCH  16  18
HETATM   18  N   UNL     1      -6.662  11.595  67.101  1.00  0.00    -0.129 NA 
HETATM   19  H   UNL     1      -5.838  11.909  66.588  1.00  0.00     0.000 HD 
BRANCH  18  20
HETATM   20  C   UNL     1      -6.624  10.608  68.111  1.00  0.00    -0.063 A  
HETATM   21  C   UNL     1      -6.825  10.882  69.473  1.00  0.00    -0.125 A  
HETATM   22  C   UNL     1      -6.692   9.881  70.442  1.00  0.00    -0.136 A  
HETATM   23  C   UNL     1      -6.343   8.588  70.055  1.00  0.00    -0.034 A  
HETATM   24  O   UNL     1      -6.190   7.620  71.014  1.00  0.00    -0.035 OA 
HETATM   25  C   UNL     1      -6.139   8.280  68.704  1.00  0.00    -0.045 A  
HETATM   26  C   UNL     1      -5.755   6.928  68.205  1.00  0.00    -0.020 C  
HETATM   27  C   UNL     1      -6.282   9.301  67.745  1.00  0.00    -0.054 A  
HETATM   28  H   UNL     1      -5.951   6.739  70.751  1.00  0.00     0.000 HD 
HETATM   29  O   UNL     1      -5.592   6.690  67.017  1.00  0.00    -0.012 OA 
HETATM   30  O   UNL     1      -5.593   5.981  69.154  1.00  0.00    -0.007 OA 
ENDBRANCH  18  20
ENDBRANCH  16  18
ENDBRANCH  13  16
ENDBRANCH   7  10
ENDBRANCH   5   6
ENDBRANCH   4   5
TORSDOF 6
ENDMDL
MODEL      287
REMARK 921   NORMALIZED FREE ENERGY PREDICTED BY IDOCK:   -3.72 KCAL/MOL
REMARK 922        TOTAL FREE ENERGY PREDICTED BY IDOCK:   -6.01 KCAL/MOL
REMARK 923 INTER-LIGAND FREE ENERGY PREDICTED BY IDOCK:   -5.10 KCAL/MOL
REMARK 924 INTRA-LIGAND FREE ENERGY PREDICTED BY IDOCK:   -0.91 KCAL/MOL
REMARK 927      BINDING AFFINITY PREDICTED BY RF-SCORE:    0.00 PKD
ROOT
HETATM    1  O   UNL     1     -10.505   5.021  67.319  1.00  0.00    -0.173 OA 
HETATM    2  C   UNL     1     -10.663   6.343  67.547  1.00  0.00    -0.319 C  
HETATM    3  O   UNL     1     -10.785   7.157  66.642  1.00  0.00    -0.245 OA 
HETATM    4  C   UNL     1     -10.677   6.718  69.003  1.00  0.00    -0.280 C  
ENDROOT
BRANCH   4   5
HETATM    5  C   UNL     1      -9.271   6.970  69.520  1.00  0.00    -0.149 C  
BRANCH   5   6
HETATM    6  N   UNL     1      -8.877   8.361  69.420  1.00  0.00    -0.141 N  
HETATM    7  C   UNL     1      -8.082   8.815  68.386  1.00  0.00    -0.117 C  
HETATM    8  H   UNL     1      -9.195   9.020  70.130  1.00  0.00     0.000 HD 
HETATM    9  O   UNL     1      -7.676   8.091  67.483  1.00  0.00    -0.102 OA 
BRANCH   7  10
HETATM   10  C   UNL     1      -7.675  10.250  68.444  1.00  0.00    -0.093 A  
HETATM   11  C   UNL     1      -7.895  11.055  67.321  1.00  0.00    -0.122 A  
HETATM   12  C   UNL     1      -7.461  12.388  67.308  1.00  0.00    -0.135 A  
HETATM   13  C   UNL     1      -6.814  12.952  68.415  1.00  0.00    -0.096 A  
HETATM   14  C   UNL     1      -7.071  10.812  69.576  1.00  0.00    -0.132 A  
HETATM   15  C   UNL     1      -6.635  12.146  69.552  1.00  0.00    -0.065 A  
BRANCH  13  16
HETATM   16  N   UNL     1      -6.315  14.269  68.293  1.00  0.00    -0.106 NA 
HETATM   17  H   UNL     1      -5.738  14.583  67.513  1.00  0.00     0.000 HD 
BRANCH  16  18
HETATM   18  N   UNL     1      -6.656  15.007  69.240  1.00  0.00    -0.120 NA 
HETATM   19  H   UNL     1      -6.205  14.997  70.155  1.00  0.00     0.000 HD 
BRANCH  18  20
HETATM   20  C   UNL     1      -7.735  15.859  68.910  1.00  0.00    -0.194 A  
HETATM   21  C   UNL     1      -9.015  15.743  69.472  1.00  0.00    -0.183 A  
HETATM   22  C   UNL     1     -10.070  16.559  69.047  1.00  0.00    -0.279 A  
HETATM   23  C   UNL     1      -9.855  17.498  68.039  1.00  0.00    -0.299 A  
HETATM   24  O   UNL     1     -10.901  18.274  67.612  1.00  0.00    -0.396 OA 
HETATM   25  C   UNL     1      -8.587  17.641  67.459  1.00  0.00    -0.222 A  
HETATM   26  C   UNL     1      -8.272  18.611  66.372  1.00  0.00    -0.277 C  
HETATM   27  C   UNL     1      -7.539  16.813  67.905  1.00  0.00    -0.177 A  
HETATM   28  H   UNL     1     -10.754  18.913  66.924  1.00  0.00     0.000 HD 
HETATM   29  O   UNL     1      -7.152  18.716  65.892  1.00  0.00    -0.257 OA 
HETATM   30  O   UNL     1      -9.308  19.364  65.945  1.00  0.00    -0.415 OA 
ENDBRANCH  18  20
ENDBRANCH  16  18
ENDBRANCH  13  16
ENDBRANCH   7  10
ENDBRANCH   5   6
ENDBRANCH   4   5
TORSDOF 6
ENDMDL
MODEL      288
REMARK 921   NORMALIZED FREE ENERGY PREDICTED BY IDOCK:   -3.71 KCAL/MOL
REMARK 922        TOTAL FREE ENERGY PREDICTED BY IDOCK:   -5.99 KCAL/MOL
REMARK 923 INTER-LIGAND FREE ENERGY PREDICTED BY IDOCK:   -5.61 KCAL/MOL
REMARK 924 INTRA-LIGAND FREE ENERGY PREDICTED BY IDOCK:   -0.39 KCAL/MOL
REMARK 927      BINDING AFFINITY PREDICTED BY RF-SCORE:    0.00 PKD
ROOT
HETATM    1  O   UNL     1     -14.307  15.001  72.650  1.00  0.00    -0.352 OA 
HETATM    2  C   UNL     1     -13.134  14.340  72.545  1.00  0.00    -0.461 C  
HETATM    3  O   UNL     1     -12.058  14.864  72.797  1.00  0.00    -0.318 OA 
HETATM    4  C   UNL     1     -13.272  12.912  72.096  1.00  0.00    -0.552 C  
ENDROOT
BRANCH   4   5
HETATM    5  C   UNL     1     -13.271  12.808  70.581  1.00  0.00     0.496 C  
BRANCH   5   6
HETATM    6  N   UNL     1     -12.001  13.186  69.993  1.00  0.00    -0.398 N  
HETATM    7  C   UNL     1     -11.743  14.486  69.600  1.00  0.00    -0.307 C  
HETATM    8  H   UNL     1     -11.280  12.476  69.867  1.00  0.00     0.000 HD 
HETATM    9  O   UNL     1     -12.549  15.400  69.737  1.00  0.00    -0.247 OA 
BRANCH   7  10
HETATM   10  C   UNL     1     -10.432  14.727  68.930  1.00  0.00    -0.249 A  
HETATM   11  C   UNL     1     -10.427  15.064  67.571  1.00  0.00    -0.256 A  
HETATM   12  C   UNL     1      -9.215  15.227  66.886  1.00  0.00    -0.255 A  
HETATM   13  C   UNL     1      -7.985  15.073  67.540  1.00  0.00    -0.178 A  
HETATM   14  C   UNL     1      -9.212  14.616  69.607  1.00  0.00     0.315 A  
HETATM   15  C   UNL     1      -8.003  14.775  68.913  1.00  0.00    -0.160 A  
BRANCH  13  16
HETATM   16  N   UNL     1      -6.807  15.152  66.763  1.00  0.00    -0.142 NA 
HETATM   17  H   UNL     1      -6.751  14.852  65.790  1.00  0.00     0.000 HD 
BRANCH  16  18
HETATM   18  N   UNL     1      -5.840  15.629  67.394  1.00  0.00    -0.329 NA 
HETATM   19  H   UNL     1      -5.138  15.059  67.867  1.00  0.00     0.000 HD 
BRANCH  18  20
HETATM   20  C   UNL     1      -5.822  17.041  67.386  1.00  0.00    -0.150 A  
HETATM   21  C   UNL     1      -5.657  17.809  66.223  1.00  0.00    -0.235 A  
HETATM   22  C   UNL     1      -5.561  19.204  66.281  1.00  0.00    -0.173 A  
HETATM   23  C   UNL     1      -5.619  19.849  67.516  1.00  0.00    -0.170 A  
HETATM   24  O   UNL     1      -5.499  21.213  67.566  1.00  0.00    -0.235 OA 
HETATM   25  C   UNL     1      -5.788  19.112  68.696  1.00  0.00    -0.230 A  
HETATM   26  C   UNL     1      -5.851  19.719  70.057  1.00  0.00    -0.285 C  
HETATM   27  C   UNL     1      -5.886  17.710  68.614  1.00  0.00    -0.173 A  
HETATM   28  H   UNL     1      -5.538  21.653  68.407  1.00  0.00     0.000 HD 
HETATM   29  O   UNL     1      -6.006  19.048  71.067  1.00  0.00    -0.046 OA 
HETATM   30  O   UNL     1      -5.719  21.062  70.102  1.00  0.00    -0.516 OA 
ENDBRANCH  18  20
ENDBRANCH  16  18
ENDBRANCH  13  16
ENDBRANCH   7  10
ENDBRANCH   5   6
ENDBRANCH   4   5
TORSDOF 6
ENDMDL
MODEL      289
REMARK 921   NORMALIZED FREE ENERGY PREDICTED BY IDOCK:   -3.69 KCAL/MOL
REMARK 922        TOTAL FREE ENERGY PREDICTED BY IDOCK:   -5.97 KCAL/MOL
REMARK 923 INTER-LIGAND FREE ENERGY PREDICTED BY IDOCK:   -5.44 KCAL/MOL
REMARK 924 INTRA-LIGAND FREE ENERGY PREDICTED BY IDOCK:   -0.53 KCAL/MOL
REMARK 927      BINDING AFFINITY PREDICTED BY RF-SCORE:    0.00 PKD
ROOT
HETATM    1  O   UNL     1      -8.858  19.789  67.775  1.00  0.00    -0.314 OA 
HETATM    2  C   UNL     1     -10.031  19.329  67.289  1.00  0.00    -0.363 C  
HETATM    3  O   UNL     1     -11.018  20.041  67.169  1.00  0.00    -0.283 OA 
HETATM    4  C   UNL     1     -10.011  17.874  66.911  1.00  0.00    -0.335 C  
ENDROOT
BRANCH   4   5
HETATM    5  C   UNL     1     -10.353  16.991  68.099  1.00  0.00    -0.347 C  
BRANCH   5   6
HETATM    6  N   UNL     1     -10.143  15.583  67.831  1.00  0.00    -0.223 N  
HETATM    7  C   UNL     1     -11.127  14.644  68.076  1.00  0.00    -0.281 C  
HETATM    8  H   UNL     1      -9.246  15.277  67.452  1.00  0.00     0.000 HD 
HETATM    9  O   UNL     1     -12.236  14.934  68.511  1.00  0.00    -0.194 OA 
BRANCH   7  10
HETATM   10  C   UNL     1     -10.755  13.218  67.841  1.00  0.00    -0.252 A  
HETATM   11  C   UNL     1     -11.746  12.332  67.403  1.00  0.00    -0.405 A  
HETATM   12  C   UNL     1     -11.457  10.970  67.241  1.00  0.00    -0.164 A  
HETATM   13  C   UNL     1     -10.175  10.464  67.495  1.00  0.00    -0.210 A  
HETATM   14  C   UNL     1      -9.458  12.737  68.054  1.00  0.00    -0.213 A  
HETATM   15  C   UNL     1      -9.179  11.370  67.894  1.00  0.00    -0.164 A  
BRANCH  13  16
HETATM   16  N   UNL     1      -9.984   9.067  67.408  1.00  0.00    -0.193 NA 
HETATM   17  H   UNL     1     -10.566   8.386  67.896  1.00  0.00     0.000 HD 
BRANCH  16  18
HETATM   18  N   UNL     1      -9.028   8.752  66.668  1.00  0.00    -0.133 NA 
HETATM   19  H   UNL     1      -8.510   9.422  66.100  1.00  0.00     0.000 HD 
BRANCH  18  20
HETATM   20  C   UNL     1      -8.739   7.370  66.703  1.00  0.00    -0.135 A  
HETATM   21  C   UNL     1      -8.018   6.701  65.702  1.00  0.00    -0.115 A  
HETATM   22  C   UNL     1      -7.834   5.315  65.743  1.00  0.00    -0.099 A  
HETATM   23  C   UNL     1      -8.384   4.576  66.790  1.00  0.00    -0.105 A  
HETATM   24  O   UNL     1      -8.220   3.215  66.808  1.00  0.00    -0.086 OA 
HETATM   25  C   UNL     1      -9.106   5.213  67.808  1.00  0.00    -0.119 A  
HETATM   26  C   UNL     1      -9.735   4.500  68.957  1.00  0.00    -0.165 C  
HETATM   27  C   UNL     1      -9.276   6.609  67.749  1.00  0.00    -0.111 A  
HETATM   28  H   UNL     1      -8.595   2.711  67.522  1.00  0.00     0.000 HD 
HETATM   29  O   UNL     1     -10.352   5.087  69.834  1.00  0.00    -0.279 OA 
HETATM   30  O   UNL     1      -9.582   3.158  68.964  1.00  0.00    -0.153 OA 
ENDBRANCH  18  20
ENDBRANCH  16  18
ENDBRANCH  13  16
ENDBRANCH   7  10
ENDBRANCH   5   6
ENDBRANCH   4   5
TORSDOF 6
ENDMDL
MODEL      290
REMARK 921   NORMALIZED FREE ENERGY PREDICTED BY IDOCK:   -3.68 KCAL/MOL
REMARK 922        TOTAL FREE ENERGY PREDICTED BY IDOCK:   -5.95 KCAL/MOL
REMARK 923 INTER-LIGAND FREE ENERGY PREDICTED BY IDOCK:   -5.44 KCAL/MOL
REMARK 924 INTRA-LIGAND FREE ENERGY PREDICTED BY IDOCK:   -0.51 KCAL/MOL
REMARK 927      BINDING AFFINITY PREDICTED BY RF-SCORE:    0.00 PKD
ROOT
HETATM    1  O   UNL     1     -10.007   2.230  69.826  1.00  0.00     0.187 OA 
HETATM    2  C   UNL     1      -8.675   2.450  69.829  1.00  0.00    -0.071 C  
HETATM    3  O   UNL     1      -7.871   1.616  70.221  1.00  0.00    -0.042 OA 
HETATM    4  C   UNL     1      -8.274   3.804  69.310  1.00  0.00    -0.069 C  
ENDROOT
BRANCH   4   5
HETATM    5  C   UNL     1      -8.277   4.842  70.419  1.00  0.00    -0.083 C  
BRANCH   5   6
HETATM    6  N   UNL     1      -8.320   6.200  69.917  1.00  0.00    -0.126 N  
HETATM    7  C   UNL     1      -8.685   7.260  70.725  1.00  0.00    -0.146 C  
HETATM    8  H   UNL     1      -8.075   6.378  68.943  1.00  0.00     0.000 HD 
HETATM    9  O   UNL     1      -8.974   7.131  71.909  1.00  0.00    -0.128 OA 
BRANCH   7  10
HETATM   10  C   UNL     1      -8.775   8.596  70.065  1.00  0.00    -0.141 A  
HETATM   11  C   UNL     1      -9.624   9.560  70.620  1.00  0.00    -0.292 A  
HETATM   12  C   UNL     1      -9.793  10.801  69.991  1.00  0.00     0.497 A  
HETATM   13  C   UNL     1      -9.112  11.114  68.806  1.00  0.00    -0.139 A  
HETATM   14  C   UNL     1      -8.053   8.910  68.908  1.00  0.00    -0.112 A  
HETATM   15  C   UNL     1      -8.232  10.153  68.281  1.00  0.00    -0.110 A  
BRANCH  13  16
HETATM   16  N   UNL     1      -9.409  12.343  68.175  1.00  0.00    -0.206 NA 
HETATM   17  H   UNL     1      -9.932  13.095  68.623  1.00  0.00     0.000 HD 
BRANCH  16  18
HETATM   18  N   UNL     1      -8.964  12.411  67.010  1.00  0.00    -0.204 NA 
HETATM   19  H   UNL     1      -8.195  11.836  66.665  1.00  0.00     0.000 HD 
BRANCH  18  20
HETATM   20  C   UNL     1      -9.637  13.370  66.221  1.00  0.00    -0.235 A  
HETATM   21  C   UNL     1     -10.258  13.072  64.999  1.00  0.00    -0.287 A  
HETATM   22  C   UNL     1     -10.838  14.077  64.216  1.00  0.00    -0.124 A  
HETATM   23  C   UNL     1     -10.790  15.402  64.646  1.00  0.00    -0.258 A  
HETATM   24  O   UNL     1     -11.338  16.382  63.859  1.00  0.00    -1.510 OA 
HETATM   25  C   UNL     1     -10.180  15.733  65.863  1.00  0.00    -0.377 A  
HETATM   26  C   UNL     1     -10.076  17.123  66.394  1.00  0.00    -0.320 C  
HETATM   27  C   UNL     1      -9.607  14.706  66.638  1.00  0.00    -0.294 A  
HETATM   28  H   UNL     1     -11.304  17.286  64.153  1.00  0.00     0.000 HD 
HETATM   29  O   UNL     1      -9.544  17.378  67.464  1.00  0.00    -0.251 OA 
HETATM   30  O   UNL     1     -10.605  18.087  65.610  1.00  0.00    -0.599 OA 
ENDBRANCH  18  20
ENDBRANCH  16  18
ENDBRANCH  13  16
ENDBRANCH   7  10
ENDBRANCH   5   6
ENDBRANCH   4   5
TORSDOF 6
ENDMDL
MODEL      291
REMARK 921   NORMALIZED FREE ENERGY PREDICTED BY IDOCK:   -3.67 KCAL/MOL
REMARK 922        TOTAL FREE ENERGY PREDICTED BY IDOCK:   -5.95 KCAL/MOL
REMARK 923 INTER-LIGAND FREE ENERGY PREDICTED BY IDOCK:   -4.69 KCAL/MOL
REMARK 924 INTRA-LIGAND FREE ENERGY PREDICTED BY IDOCK:   -1.26 KCAL/MOL
REMARK 927      BINDING AFFINITY PREDICTED BY RF-SCORE:    0.00 PKD
ROOT
HETATM    1  O   UNL     1      -7.796   6.483  64.326  1.00  0.00    -0.107 OA 
HETATM    2  C   UNL     1      -7.382   7.538  65.060  1.00  0.00    -0.078 C  
HETATM    3  O   UNL     1      -6.851   7.410  66.154  1.00  0.00    -0.055 OA 
HETATM    4  C   UNL     1      -7.632   8.872  64.414  1.00  0.00    -0.114 C  
ENDROOT
BRANCH   4   5
HETATM    5  C   UNL     1      -9.016   9.398  64.751  1.00  0.00    -0.194 C  
BRANCH   5   6
HETATM    6  N   UNL     1      -9.612   8.722  65.886  1.00  0.00    -0.411 N  
HETATM    7  C   UNL     1      -9.980   9.410  67.026  1.00  0.00    -0.221 C  
HETATM    8  H   UNL     1      -9.764   7.715  65.841  1.00  0.00     0.000 HD 
HETATM    9  O   UNL     1      -9.850  10.622  67.150  1.00  0.00    -0.168 OA 
BRANCH   7  10
HETATM   10  C   UNL     1     -10.502   8.586  68.157  1.00  0.00    -0.236 A  
HETATM   11  C   UNL     1     -10.760   9.216  69.380  1.00  0.00    -0.210 A  
HETATM   12  C   UNL     1     -11.181   8.467  70.487  1.00  0.00    -0.252 A  
HETATM   13  C   UNL     1     -11.367   7.081  70.398  1.00  0.00    -0.310 A  
HETATM   14  C   UNL     1     -10.728   7.210  68.039  1.00  0.00    -0.232 A  
HETATM   15  C   UNL     1     -11.145   6.467  69.154  1.00  0.00    -0.428 A  
BRANCH  13  16
HETATM   16  N   UNL     1     -11.694   6.378  71.580  1.00  0.00    -0.318 NA 
HETATM   17  H   UNL     1     -12.544   5.823  71.689  1.00  0.00     0.000 HD 
BRANCH  16  18
HETATM   18  N   UNL     1     -10.834   6.506  72.476  1.00  0.00    -0.229 NA 
HETATM   19  H   UNL     1     -10.608   7.398  72.917  1.00  0.00     0.000 HD 
BRANCH  18  20
HETATM   20  C   UNL     1     -10.206   5.286  72.813  1.00  0.00    -0.188 A  
HETATM   21  C   UNL     1     -10.874   4.211  73.419  1.00  0.00    -0.331 A  
HETATM   22  C   UNL     1     -10.185   3.057  73.809  1.00  0.00    -0.201 A  
HETATM   23  C   UNL     1      -8.809   2.972  73.605  1.00  0.00    -0.079 A  
HETATM   24  O   UNL     1      -8.139   1.848  74.014  1.00  0.00    -0.048 OA 
HETATM   25  C   UNL     1      -8.113   4.026  72.999  1.00  0.00    -0.089 A  
HETATM   26  C   UNL     1      -6.642   4.021  72.751  1.00  0.00    -0.040 C  
HETATM   27  C   UNL     1      -8.826   5.176  72.610  1.00  0.00    -0.123 A  
HETATM   28  H   UNL     1      -7.201   1.790  73.876  1.00  0.00     0.000 HD 
HETATM   29  O   UNL     1      -6.066   4.955  72.213  1.00  0.00    -0.023 OA 
HETATM   30  O   UNL     1      -5.984   2.918  73.168  1.00  0.00    -0.007 OA 
ENDBRANCH  18  20
ENDBRANCH  16  18
ENDBRANCH  13  16
ENDBRANCH   7  10
ENDBRANCH   5   6
ENDBRANCH   4   5
TORSDOF 6
ENDMDL
MODEL      292
REMARK 921   NORMALIZED FREE ENERGY PREDICTED BY IDOCK:   -3.65 KCAL/MOL
REMARK 922        TOTAL FREE ENERGY PREDICTED BY IDOCK:   -5.92 KCAL/MOL
REMARK 923 INTER-LIGAND FREE ENERGY PREDICTED BY IDOCK:   -5.30 KCAL/MOL
REMARK 924 INTRA-LIGAND FREE ENERGY PREDICTED BY IDOCK:   -0.62 KCAL/MOL
REMARK 927      BINDING AFFINITY PREDICTED BY RF-SCORE:    0.00 PKD
ROOT
HETATM    1  O   UNL     1      -8.137  18.222  68.694  1.00  0.00    -0.306 OA 
HETATM    2  C   UNL     1      -8.318  18.584  67.406  1.00  0.00    -0.256 C  
HETATM    3  O   UNL     1      -8.769  19.675  67.086  1.00  0.00    -0.292 OA 
HETATM    4  C   UNL     1      -7.916  17.532  66.410  1.00  0.00    -0.320 C  
ENDROOT
BRANCH   4   5
HETATM    5  C   UNL     1      -9.062  16.577  66.125  1.00  0.00    -0.306 C  
BRANCH   5   6
HETATM    6  N   UNL     1      -8.717  15.193  66.378  1.00  0.00    -0.446 N  
HETATM    7  C   UNL     1      -9.675  14.259  66.723  1.00  0.00    -0.275 C  
HETATM    8  H   UNL     1      -7.743  14.901  66.299  1.00  0.00     0.000 HD 
HETATM    9  O   UNL     1     -10.867  14.526  66.818  1.00  0.00    -0.294 OA 
BRANCH   7  10
HETATM   10  C   UNL     1      -9.178  12.888  67.043  1.00  0.00    -0.226 A  
HETATM   11  C   UNL     1      -7.796  12.670  67.086  1.00  0.00    -0.110 A  
HETATM   12  C   UNL     1      -7.289  11.383  67.310  1.00  0.00    -0.130 A  
HETATM   13  C   UNL     1      -8.143  10.290  67.510  1.00  0.00    -0.110 A  
HETATM   14  C   UNL     1     -10.044  11.816  67.287  1.00  0.00    -0.211 A  
HETATM   15  C   UNL     1      -9.528  10.529  67.506  1.00  0.00    -0.166 A  
BRANCH  13  16
HETATM   16  N   UNL     1      -7.563   9.007  67.628  1.00  0.00    -0.092 NA 
HETATM   17  H   UNL     1      -6.687   8.741  67.179  1.00  0.00     0.000 HD 
BRANCH  16  18
HETATM   18  N   UNL     1      -8.235   8.234  68.342  1.00  0.00    -0.130 NA 
HETATM   19  H   UNL     1      -8.385   8.374  69.341  1.00  0.00     0.000 HD 
BRANCH  18  20
HETATM   20  C   UNL     1      -8.766   7.143  67.619  1.00  0.00    -0.121 A  
HETATM   21  C   UNL     1     -10.099   6.716  67.724  1.00  0.00    -0.180 A  
HETATM   22  C   UNL     1     -10.551   5.576  67.049  1.00  0.00    -0.332 A  
HETATM   23  C   UNL     1      -9.664   4.840  66.265  1.00  0.00    -0.196 A  
HETATM   24  O   UNL     1     -10.111   3.711  65.629  1.00  0.00    -0.402 OA 
HETATM   25  C   UNL     1      -8.328   5.241  66.135  1.00  0.00    -0.115 A  
HETATM   26  C   UNL     1      -7.312   4.509  65.326  1.00  0.00    -0.072 C  
HETATM   27  C   UNL     1      -7.895   6.393  66.819  1.00  0.00    -0.104 A  
HETATM   28  H   UNL     1      -9.506   3.209  65.094  1.00  0.00     0.000 HD 
HETATM   29  O   UNL     1      -6.154   4.890  65.227  1.00  0.00    -0.028 OA 
HETATM   30  O   UNL     1      -7.752   3.390  64.711  1.00  0.00    -0.076 OA 
ENDBRANCH  18  20
ENDBRANCH  16  18
ENDBRANCH  13  16
ENDBRANCH   7  10
ENDBRANCH   5   6
ENDBRANCH   4   5
TORSDOF 6
ENDMDL
MODEL      293
REMARK 921   NORMALIZED FREE ENERGY PREDICTED BY IDOCK:   -3.65 KCAL/MOL
REMARK 922        TOTAL FREE ENERGY PREDICTED BY IDOCK:   -5.92 KCAL/MOL
REMARK 923 INTER-LIGAND FREE ENERGY PREDICTED BY IDOCK:   -4.98 KCAL/MOL
REMARK 924 INTRA-LIGAND FREE ENERGY PREDICTED BY IDOCK:   -0.94 KCAL/MOL
REMARK 927      BINDING AFFINITY PREDICTED BY RF-SCORE:    0.00 PKD
ROOT
HETATM    1  O   UNL     1      -7.690   2.909  64.977  1.00  0.00    -0.078 OA 
HETATM    2  C   UNL     1      -8.487   3.826  64.387  1.00  0.00    -0.097 C  
HETATM    3  O   UNL     1      -8.049   4.711  63.665  1.00  0.00    -0.090 OA 
HETATM    4  C   UNL     1      -9.949   3.660  64.697  1.00  0.00    -0.180 C  
ENDROOT
BRANCH   4   5
HETATM    5  C   UNL     1     -10.329   4.398  65.969  1.00  0.00    -0.178 C  
BRANCH   5   6
HETATM    6  N   UNL     1      -9.946   5.795  65.944  1.00  0.00    -0.386 N  
HETATM    7  C   UNL     1     -10.464   6.704  66.847  1.00  0.00    -0.279 C  
HETATM    8  H   UNL     1      -9.277   6.115  65.244  1.00  0.00     0.000 HD 
HETATM    9  O   UNL     1     -11.255   6.395  67.730  1.00  0.00    -0.323 OA 
BRANCH   7  10
HETATM   10  C   UNL     1     -10.056   8.128  66.661  1.00  0.00    -0.344 A  
HETATM   11  C   UNL     1      -8.769   8.398  66.181  1.00  0.00    -0.175 A  
HETATM   12  C   UNL     1      -8.322   9.721  66.061  1.00  0.00    -0.123 A  
HETATM   13  C   UNL     1      -9.147  10.801  66.402  1.00  0.00    -0.171 A  
HETATM   14  C   UNL     1     -10.909   9.196  66.961  1.00  0.00    -0.056 A  
HETATM   15  C   UNL     1     -10.450  10.518  66.844  1.00  0.00    -0.303 A  
BRANCH  13  16
HETATM   16  N   UNL     1      -8.594  12.100  66.352  1.00  0.00    -0.390 NA 
HETATM   17  H   UNL     1      -9.124  12.929  66.084  1.00  0.00     0.000 HD 
BRANCH  16  18
HETATM   18  N   UNL     1      -7.386  12.127  66.671  1.00  0.00    -0.377 NA 
HETATM   19  H   UNL     1      -6.671  11.554  66.223  1.00  0.00     0.000 HD 
BRANCH  18  20
HETATM   20  C   UNL     1      -7.116  13.036  67.719  1.00  0.00    -0.139 A  
HETATM   21  C   UNL     1      -7.260  14.426  67.598  1.00  0.00    -0.201 A  
HETATM   22  C   UNL     1      -6.897  15.287  68.640  1.00  0.00    -0.109 A  
HETATM   23  C   UNL     1      -6.372  14.760  69.820  1.00  0.00    -0.152 A  
HETATM   24  O   UNL     1      -5.996  15.612  70.825  1.00  0.00     0.001 OA 
HETATM   25  C   UNL     1      -6.220  13.375  69.975  1.00  0.00    -0.089 A  
HETATM   26  C   UNL     1      -5.660  12.729  71.197  1.00  0.00    -0.068 C  
HETATM   27  C   UNL     1      -6.595  12.528  68.915  1.00  0.00    -0.095 A  
HETATM   28  H   UNL     1      -5.638  15.253  71.629  1.00  0.00     0.000 HD 
HETATM   29  O   UNL     1      -5.547  11.517  71.303  1.00  0.00    -0.359 OA 
HETATM   30  O   UNL     1      -5.278  13.573  72.179  1.00  0.00    -0.217 OA 
ENDBRANCH  18  20
ENDBRANCH  16  18
ENDBRANCH  13  16
ENDBRANCH   7  10
ENDBRANCH   5   6
ENDBRANCH   4   5
TORSDOF 6
ENDMDL
MODEL      294
REMARK 921   NORMALIZED FREE ENERGY PREDICTED BY IDOCK:   -3.64 KCAL/MOL
REMARK 922        TOTAL FREE ENERGY PREDICTED BY IDOCK:   -5.90 KCAL/MOL
REMARK 923 INTER-LIGAND FREE ENERGY PREDICTED BY IDOCK:   -5.08 KCAL/MOL
REMARK 924 INTRA-LIGAND FREE ENERGY PREDICTED BY IDOCK:   -0.82 KCAL/MOL
REMARK 927      BINDING AFFINITY PREDICTED BY RF-SCORE:    0.00 PKD
ROOT
HETATM    1  O   UNL     1      -7.792  18.501  65.594  1.00  0.00    -0.491 OA 
HETATM    2  C   UNL     1      -7.666  19.575  66.403  1.00  0.00    -0.296 C  
HETATM    3  O   UNL     1      -6.584  20.081  66.661  1.00  0.00    -0.199 OA 
HETATM    4  C   UNL     1      -8.970  20.085  66.953  1.00  0.00    -0.449 C  
ENDROOT
BRANCH   4   5
HETATM    5  C   UNL     1      -9.343  19.371  68.240  1.00  0.00    -0.352 C  
BRANCH   5   6
HETATM    6  N   UNL     1      -9.199  17.932  68.146  1.00  0.00    -0.271 N  
HETATM    7  C   UNL     1     -10.046  17.074  68.820  1.00  0.00    -0.307 C  
HETATM    8  H   UNL     1      -8.454  17.543  67.568  1.00  0.00     0.000 HD 
HETATM    9  O   UNL     1     -10.978  17.461  69.517  1.00  0.00     0.116 OA 
BRANCH   7  10
HETATM   10  C   UNL     1      -9.739  15.617  68.710  1.00  0.00    -0.212 A  
HETATM   11  C   UNL     1      -8.416  15.198  68.889  1.00  0.00    -0.199 A  
HETATM   12  C   UNL     1      -8.072  13.849  68.723  1.00  0.00    -0.043 A  
HETATM   13  C   UNL     1      -9.037  12.889  68.389  1.00  0.00    -0.126 A  
HETATM   14  C   UNL     1     -10.722  14.664  68.423  1.00  0.00    -0.242 A  
HETATM   15  C   UNL     1     -10.368  13.316  68.253  1.00  0.00    -0.252 A  
BRANCH  13  16
HETATM   16  N   UNL     1      -8.600  11.569  68.138  1.00  0.00    -0.149 NA 
HETATM   17  H   UNL     1      -8.595  11.143  67.211  1.00  0.00     0.000 HD 
BRANCH  16  18
HETATM   18  N   UNL     1      -8.221  10.977  69.171  1.00  0.00    -0.336 NA 
HETATM   19  H   UNL     1      -8.096  11.439  70.072  1.00  0.00     0.000 HD 
BRANCH  18  20
HETATM   20  C   UNL     1      -7.984   9.601  68.959  1.00  0.00    -0.088 A  
HETATM   21  C   UNL     1      -6.795   8.952  69.327  1.00  0.00    -0.050 A  
HETATM   22  C   UNL     1      -6.578   7.605  69.017  1.00  0.00    -0.048 A  
HETATM   23  C   UNL     1      -7.552   6.891  68.319  1.00  0.00    -0.107 A  
HETATM   24  O   UNL     1      -7.319   5.579  67.997  1.00  0.00    -0.071 OA 
HETATM   25  C   UNL     1      -8.752   7.508  67.940  1.00  0.00    -0.124 A  
HETATM   26  C   UNL     1      -9.840   6.823  67.185  1.00  0.00    -0.161 C  
HETATM   27  C   UNL     1      -8.951   8.863  68.266  1.00  0.00    -0.137 A  
HETATM   28  H   UNL     1      -7.983   5.093  67.521  1.00  0.00     0.000 HD 
HETATM   29  O   UNL     1     -10.879   7.389  66.876  1.00  0.00    -0.357 OA 
HETATM   30  O   UNL     1      -9.601   5.535  66.859  1.00  0.00    -0.127 OA 
ENDBRANCH  18  20
ENDBRANCH  16  18
ENDBRANCH  13  16
ENDBRANCH   7  10
ENDBRANCH   5   6
ENDBRANCH   4   5
TORSDOF 6
ENDMDL
MODEL      295
REMARK 921   NORMALIZED FREE ENERGY PREDICTED BY IDOCK:   -3.64 KCAL/MOL
REMARK 922        TOTAL FREE ENERGY PREDICTED BY IDOCK:   -5.90 KCAL/MOL
REMARK 923 INTER-LIGAND FREE ENERGY PREDICTED BY IDOCK:   -4.99 KCAL/MOL
REMARK 924 INTRA-LIGAND FREE ENERGY PREDICTED BY IDOCK:   -0.91 KCAL/MOL
REMARK 927      BINDING AFFINITY PREDICTED BY RF-SCORE:    0.00 PKD
ROOT
HETATM    1  O   UNL     1      -8.112  11.470  62.331  1.00  0.00    -0.158 OA 
HETATM    2  C   UNL     1      -9.171  10.842  62.884  1.00  0.00    -0.323 C  
HETATM    3  O   UNL     1     -10.293  11.329  62.895  1.00  0.00    -0.237 OA 
HETATM    4  C   UNL     1      -8.847   9.499  63.479  1.00  0.00    -0.235 C  
ENDROOT
BRANCH   4   5
HETATM    5  C   UNL     1      -8.389   9.632  64.921  1.00  0.00    -0.148 C  
BRANCH   5   6
HETATM    6  N   UNL     1      -8.914  10.816  65.570  1.00  0.00    -0.189 N  
HETATM    7  C   UNL     1     -10.022  10.760  66.393  1.00  0.00    -0.216 C  
HETATM    8  H   UNL     1      -8.453  11.713  65.416  1.00  0.00     0.000 HD 
HETATM    9  O   UNL     1     -10.619   9.719  66.645  1.00  0.00    -0.189 OA 
BRANCH   7  10
HETATM   10  C   UNL     1     -10.514  12.063  66.931  1.00  0.00    -0.251 A  
HETATM   11  C   UNL     1     -10.921  12.123  68.269  1.00  0.00    -0.273 A  
HETATM   12  C   UNL     1     -11.458  13.307  68.793  1.00  0.00    -0.346 A  
HETATM   13  C   UNL     1     -11.588  14.457  68.004  1.00  0.00    -0.327 A  
HETATM   14  C   UNL     1     -10.594  13.216  66.143  1.00  0.00    -0.288 A  
HETATM   15  C   UNL     1     -11.138  14.396  66.674  1.00  0.00    -0.326 A  
BRANCH  13  16
HETATM   16  N   UNL     1     -12.230  15.582  68.570  1.00  0.00    -0.506 NA 
HETATM   17  H   UNL     1     -13.141  15.925  68.263  1.00  0.00     0.000 HD 
BRANCH  16  18
HETATM   18  N   UNL     1     -11.567  16.111  69.486  1.00  0.00    -0.294 NA 
HETATM   19  H   UNL     1     -11.884  16.164  70.454  1.00  0.00     0.000 HD 
BRANCH  18  20
HETATM   20  C   UNL     1     -10.330  16.628  69.039  1.00  0.00    -0.317 A  
HETATM   21  C   UNL     1     -10.198  17.470  67.924  1.00  0.00    -0.350 A  
HETATM   22  C   UNL     1      -8.940  17.885  67.474  1.00  0.00    -0.248 A  
HETATM   23  C   UNL     1      -7.791  17.448  68.133  1.00  0.00    -0.234 A  
HETATM   24  O   UNL     1      -6.562  17.839  67.669  1.00  0.00    -0.176 OA 
HETATM   25  C   UNL     1      -7.889  16.610  69.252  1.00  0.00    -0.084 A  
HETATM   26  C   UNL     1      -6.714  16.089  70.009  1.00  0.00     0.083 C  
HETATM   27  C   UNL     1      -9.165  16.208  69.691  1.00  0.00     0.077 A  
HETATM   28  H   UNL     1      -5.780  17.541  68.118  1.00  0.00     0.000 HD 
HETATM   29  O   UNL     1      -6.834  15.365  70.986  1.00  0.00     0.698 OA 
HETATM   30  O   UNL     1      -5.505  16.466  69.540  1.00  0.00    -0.130 OA 
ENDBRANCH  18  20
ENDBRANCH  16  18
ENDBRANCH  13  16
ENDBRANCH   7  10
ENDBRANCH   5   6
ENDBRANCH   4   5
TORSDOF 6
ENDMDL
MODEL      296
REMARK 921   NORMALIZED FREE ENERGY PREDICTED BY IDOCK:   -3.63 KCAL/MOL
REMARK 922        TOTAL FREE ENERGY PREDICTED BY IDOCK:   -5.89 KCAL/MOL
REMARK 923 INTER-LIGAND FREE ENERGY PREDICTED BY IDOCK:   -5.30 KCAL/MOL
REMARK 924 INTRA-LIGAND FREE ENERGY PREDICTED BY IDOCK:   -0.59 KCAL/MOL
REMARK 927      BINDING AFFINITY PREDICTED BY RF-SCORE:    0.00 PKD
ROOT
HETATM    1  O   UNL     1      -6.015  19.057  68.760  1.00  0.00    -0.211 OA 
HETATM    2  C   UNL     1      -6.245  18.061  67.878  1.00  0.00    -0.169 C  
HETATM    3  O   UNL     1      -6.122  18.210  66.670  1.00  0.00    -0.149 OA 
HETATM    4  C   UNL     1      -6.663  16.763  68.512  1.00  0.00    -0.161 C  
ENDROOT
BRANCH   4   5
HETATM    5  C   UNL     1      -8.168  16.706  68.710  1.00  0.00    -0.249 C  
BRANCH   5   6
HETATM    6  N   UNL     1      -8.674  15.350  68.775  1.00  0.00    -0.181 N  
HETATM    7  C   UNL     1      -9.735  14.935  67.994  1.00  0.00    -0.212 C  
HETATM    8  H   UNL     1      -8.236  14.686  69.414  1.00  0.00     0.000 HD 
HETATM    9  O   UNL     1     -10.301  15.665  67.188  1.00  0.00    -0.272 OA 
BRANCH   7  10
HETATM   10  C   UNL     1     -10.217  13.540  68.218  1.00  0.00    -0.250 A  
HETATM   11  C   UNL     1      -9.273  12.510  68.295  1.00  0.00    -0.186 A  
HETATM   12  C   UNL     1      -9.687  11.178  68.431  1.00  0.00    -0.191 A  
HETATM   13  C   UNL     1     -11.046  10.844  68.508  1.00  0.00    -0.256 A  
HETATM   14  C   UNL     1     -11.576  13.228  68.341  1.00  0.00    -0.372 A  
HETATM   15  C   UNL     1     -11.982  11.890  68.472  1.00  0.00    -0.273 A  
BRANCH  13  16
HETATM   16  N   UNL     1     -11.392   9.474  68.543  1.00  0.00    -0.458 NA 
HETATM   17  H   UNL     1     -12.201   9.085  68.059  1.00  0.00     0.000 HD 
BRANCH  16  18
HETATM   18  N   UNL     1     -10.603   8.790  69.228  1.00  0.00    -0.283 NA 
HETATM   19  H   UNL     1     -10.329   9.030  70.181  1.00  0.00     0.000 HD 
BRANCH  18  20
HETATM   20  C   UNL     1     -10.129   7.650  68.542  1.00  0.00    -0.190 A  
HETATM   21  C   UNL     1     -10.937   6.840  67.730  1.00  0.00    -0.321 A  
HETATM   22  C   UNL     1     -10.437   5.673  67.142  1.00  0.00    -0.334 A  
HETATM   23  C   UNL     1      -9.115   5.295  67.373  1.00  0.00    -0.112 A  
HETATM   24  O   UNL     1      -8.641   4.137  66.814  1.00  0.00    -0.107 OA 
HETATM   25  C   UNL     1      -8.279   6.083  68.176  1.00  0.00    -0.113 A  
HETATM   26  C   UNL     1      -6.858   5.749  68.482  1.00  0.00    -0.063 C  
HETATM   27  C   UNL     1      -8.802   7.256  68.754  1.00  0.00    -0.127 A  
HETATM   28  H   UNL     1      -7.740   3.879  66.971  1.00  0.00     0.000 HD 
HETATM   29  O   UNL     1      -6.154   6.463  69.181  1.00  0.00    -0.026 OA 
HETATM   30  O   UNL     1      -6.400   4.601  67.940  1.00  0.00    -0.035 OA 
ENDBRANCH  18  20
ENDBRANCH  16  18
ENDBRANCH  13  16
ENDBRANCH   7  10
ENDBRANCH   5   6
ENDBRANCH   4   5
TORSDOF 6
ENDMDL
MODEL      297
REMARK 921   NORMALIZED FREE ENERGY PREDICTED BY IDOCK:   -3.60 KCAL/MOL
REMARK 922        TOTAL FREE ENERGY PREDICTED BY IDOCK:   -5.85 KCAL/MOL
REMARK 923 INTER-LIGAND FREE ENERGY PREDICTED BY IDOCK:   -4.94 KCAL/MOL
REMARK 924 INTRA-LIGAND FREE ENERGY PREDICTED BY IDOCK:   -0.91 KCAL/MOL
REMARK 927      BINDING AFFINITY PREDICTED BY RF-SCORE:    0.00 PKD
ROOT
HETATM    1  O   UNL     1      -9.965  15.004  68.984  1.00  0.00    -0.231 OA 
HETATM    2  C   UNL     1     -11.129  15.386  68.418  1.00  0.00    -0.301 C  
HETATM    3  O   UNL     1     -11.872  16.211  68.932  1.00  0.00    -0.338 OA 
HETATM    4  C   UNL     1     -11.426  14.710  67.108  1.00  0.00    -0.380 C  
ENDROOT
BRANCH   4   5
HETATM    5  C   UNL     1     -12.157  13.396  67.319  1.00  0.00    -0.304 C  
BRANCH   5   6
HETATM    6  N   UNL     1     -11.431  12.259  66.790  1.00  0.00    -0.345 N  
HETATM    7  C   UNL     1     -10.572  11.517  67.579  1.00  0.00    -0.206 C  
HETATM    8  H   UNL     1     -11.558  11.999  65.812  1.00  0.00     0.000 HD 
HETATM    9  O   UNL     1     -10.381  11.752  68.767  1.00  0.00    -0.213 OA 
BRANCH   7  10
HETATM   10  C   UNL     1      -9.819  10.426  66.893  1.00  0.00    -0.236 A  
HETATM   11  C   UNL     1     -10.449   9.190  66.712  1.00  0.00    -0.266 A  
HETATM   12  C   UNL     1      -9.753   8.117  66.139  1.00  0.00    -0.154 A  
HETATM   13  C   UNL     1      -8.422   8.254  65.722  1.00  0.00    -0.151 A  
HETATM   14  C   UNL     1      -8.505  10.593  66.439  1.00  0.00    -0.152 A  
HETATM   15  C   UNL     1      -7.814   9.511  65.872  1.00  0.00    -0.100 A  
BRANCH  13  16
HETATM   16  N   UNL     1      -7.753   7.103  65.248  1.00  0.00    -0.106 NA 
HETATM   17  H   UNL     1      -7.810   6.775  64.284  1.00  0.00     0.000 HD 
BRANCH  16  18
HETATM   18  N   UNL     1      -7.084   6.530  66.133  1.00  0.00    -0.065 NA 
HETATM   19  H   UNL     1      -6.210   6.900  66.508  1.00  0.00     0.000 HD 
BRANCH  18  20
HETATM   20  C   UNL     1      -7.665   5.315  66.559  1.00  0.00    -0.096 A  
HETATM   21  C   UNL     1      -8.005   4.269  65.688  1.00  0.00    -0.094 A  
HETATM   22  C   UNL     1      -8.657   3.121  66.152  1.00  0.00    -0.119 A  
HETATM   23  C   UNL     1      -8.987   3.012  67.503  1.00  0.00    -0.161 A  
HETATM   24  O   UNL     1      -9.648   1.895  67.943  1.00  0.00    -0.358 OA 
HETATM   25  C   UNL     1      -8.658   4.037  68.400  1.00  0.00    -0.113 A  
HETATM   26  C   UNL     1      -8.981   4.007  69.856  1.00  0.00    -0.098 C  
HETATM   27  C   UNL     1      -7.998   5.182  67.913  1.00  0.00    -0.095 A  
HETATM   28  H   UNL     1      -9.873   1.821  68.864  1.00  0.00     0.000 HD 
HETATM   29  O   UNL     1      -8.672   4.915  70.614  1.00  0.00    -0.111 OA 
HETATM   30  O   UNL     1      -9.643   2.911  70.283  1.00  0.00    -0.148 OA 
ENDBRANCH  18  20
ENDBRANCH  16  18
ENDBRANCH  13  16
ENDBRANCH   7  10
ENDBRANCH   5   6
ENDBRANCH   4   5
TORSDOF 6
ENDMDL
MODEL      298
REMARK 921   NORMALIZED FREE ENERGY PREDICTED BY IDOCK:   -3.59 KCAL/MOL
REMARK 922        TOTAL FREE ENERGY PREDICTED BY IDOCK:   -5.84 KCAL/MOL
REMARK 923 INTER-LIGAND FREE ENERGY PREDICTED BY IDOCK:   -4.67 KCAL/MOL
REMARK 924 INTRA-LIGAND FREE ENERGY PREDICTED BY IDOCK:   -1.17 KCAL/MOL
REMARK 927      BINDING AFFINITY PREDICTED BY RF-SCORE:    0.00 PKD
ROOT
HETATM    1  O   UNL     1      -9.984  12.480  66.526  1.00  0.00    -0.233 OA 
HETATM    2  C   UNL     1     -11.104  12.039  65.915  1.00  0.00    -0.324 C  
HETATM    3  O   UNL     1     -12.090  11.666  66.536  1.00  0.00    -0.405 OA 
HETATM    4  C   UNL     1     -11.029  12.047  64.413  1.00  0.00    -0.385 C  
ENDROOT
BRANCH   4   5
HETATM    5  C   UNL     1     -10.434  10.754  63.884  1.00  0.00    -0.181 C  
BRANCH   5   6
HETATM    6  N   UNL     1      -9.688  10.026  64.890  1.00  0.00    -0.313 N  
HETATM    7  C   UNL     1      -8.403   9.576  64.654  1.00  0.00    -0.157 C  
HETATM    8  H   UNL     1     -10.121   9.841  65.795  1.00  0.00     0.000 HD 
HETATM    9  O   UNL     1      -7.805   9.775  63.602  1.00  0.00    -0.129 OA 
BRANCH   7  10
HETATM   10  C   UNL     1      -7.776   8.764  65.738  1.00  0.00    -0.094 A  
HETATM   11  C   UNL     1      -8.608   8.033  66.593  1.00  0.00    -0.141 A  
HETATM   12  C   UNL     1      -8.065   7.316  67.668  1.00  0.00    -0.114 A  
HETATM   13  C   UNL     1      -6.684   7.300  67.907  1.00  0.00    -0.061 A  
HETATM   14  C   UNL     1      -6.391   8.719  65.935  1.00  0.00    -0.056 A  
HETATM   15  C   UNL     1      -5.855   8.004  67.017  1.00  0.00    -0.045 A  
BRANCH  13  16
HETATM   16  N   UNL     1      -6.219   6.640  69.067  1.00  0.00    -0.026 NA 
HETATM   17  H   UNL     1      -5.896   5.672  69.074  1.00  0.00     0.000 HD 
BRANCH  16  18
HETATM   18  N   UNL     1      -6.243   7.367  70.082  1.00  0.00    -0.027 NA 
HETATM   19  H   UNL     1      -5.588   8.131  70.246  1.00  0.00     0.000 HD 
BRANCH  18  20
HETATM   20  C   UNL     1      -7.276   7.017  70.981  1.00  0.00    -0.075 A  
HETATM   21  C   UNL     1      -7.334   5.789  71.657  1.00  0.00    -0.092 A  
HETATM   22  C   UNL     1      -8.424   5.460  72.472  1.00  0.00    -0.118 A  
HETATM   23  C   UNL     1      -9.480   6.360  72.609  1.00  0.00    -0.148 A  
HETATM   24  O   UNL     1     -10.554   6.018  73.388  1.00  0.00    -0.231 OA 
HETATM   25  C   UNL     1      -9.451   7.597  71.951  1.00  0.00    -0.183 A  
HETATM   26  C   UNL     1     -10.540   8.612  72.035  1.00  0.00    -0.351 C  
HETATM   27  C   UNL     1      -8.343   7.909  71.140  1.00  0.00    -0.116 A  
HETATM   28  H   UNL     1     -11.274   6.631  73.482  1.00  0.00     0.000 HD 
HETATM   29  O   UNL     1     -10.480   9.686  71.454  1.00  0.00    -0.272 OA 
HETATM   30  O   UNL     1     -11.602   8.266  72.793  1.00  0.00    -0.395 OA 
ENDBRANCH  18  20
ENDBRANCH  16  18
ENDBRANCH  13  16
ENDBRANCH   7  10
ENDBRANCH   5   6
ENDBRANCH   4   5
TORSDOF 6
ENDMDL
MODEL      299
REMARK 921   NORMALIZED FREE ENERGY PREDICTED BY IDOCK:   -3.54 KCAL/MOL
REMARK 922        TOTAL FREE ENERGY PREDICTED BY IDOCK:   -5.77 KCAL/MOL
REMARK 923 INTER-LIGAND FREE ENERGY PREDICTED BY IDOCK:   -4.63 KCAL/MOL
REMARK 924 INTRA-LIGAND FREE ENERGY PREDICTED BY IDOCK:   -1.13 KCAL/MOL
REMARK 927      BINDING AFFINITY PREDICTED BY RF-SCORE:    0.00 PKD
ROOT
HETATM    1  O   UNL     1     -11.667  12.155  70.274  1.00  0.00    -0.279 OA 
HETATM    2  C   UNL     1     -11.957  12.267  68.960  1.00  0.00    -0.248 C  
HETATM    3  O   UNL     1     -12.478  11.363  68.322  1.00  0.00    -0.314 OA 
HETATM    4  C   UNL     1     -11.583  13.594  68.360  1.00  0.00    -0.377 C  
ENDROOT
BRANCH   4   5
HETATM    5  C   UNL     1     -10.146  13.592  67.868  1.00  0.00    -0.248 C  
BRANCH   5   6
HETATM    6  N   UNL     1      -9.558  12.268  67.857  1.00  0.00    -0.197 N  
HETATM    7  C   UNL     1      -9.477  11.521  66.698  1.00  0.00    -0.193 C  
HETATM    8  H   UNL     1      -9.195  11.877  68.727  1.00  0.00     0.000 HD 
HETATM    9  O   UNL     1      -9.871  11.927  65.610  1.00  0.00    -0.235 OA 
BRANCH   7  10
HETATM   10  C   UNL     1      -8.930  10.139  66.837  1.00  0.00    -0.146 A  
HETATM   11  C   UNL     1      -9.639   9.078  66.262  1.00  0.00    -0.327 A  
HETATM   12  C   UNL     1      -9.198   7.758  66.432  1.00  0.00    -0.229 A  
HETATM   13  C   UNL     1      -8.039   7.467  67.163  1.00  0.00    -0.118 A  
HETATM   14  C   UNL     1      -7.744   9.869  67.530  1.00  0.00    -0.091 A  
HETATM   15  C   UNL     1      -7.313   8.544  67.699  1.00  0.00    -0.089 A  
BRANCH  13  16
HETATM   16  N   UNL     1      -7.713   6.109  67.377  1.00  0.00    -0.093 NA 
HETATM   17  H   UNL     1      -6.761   5.775  67.531  1.00  0.00     0.000 HD 
BRANCH  16  18
HETATM   18  N   UNL     1      -8.712   5.360  67.360  1.00  0.00    -0.108 NA 
HETATM   19  H   UNL     1      -9.365   5.308  66.578  1.00  0.00     0.000 HD 
BRANCH  18  20
HETATM   20  C   UNL     1      -8.843   4.593  68.539  1.00  0.00    -0.101 A  
HETATM   21  C   UNL     1      -9.205   3.238  68.548  1.00  0.00    -0.233 A  
HETATM   22  C   UNL     1      -9.404   2.547  69.749  1.00  0.00    -0.176 A  
HETATM   23  C   UNL     1      -9.252   3.216  70.963  1.00  0.00    -0.130 A  
HETATM   24  O   UNL     1      -9.474   2.538  72.133  1.00  0.00    -0.091 OA 
HETATM   25  C   UNL     1      -8.888   4.569  70.990  1.00  0.00    -0.151 A  
HETATM   26  C   UNL     1      -8.713   5.361  72.241  1.00  0.00    -0.129 C  
HETATM   27  C   UNL     1      -8.688   5.243  69.770  1.00  0.00    -0.116 A  
HETATM   28  H   UNL     1      -9.371   2.993  72.961  1.00  0.00     0.000 HD 
HETATM   29  O   UNL     1      -8.387   6.539  72.230  1.00  0.00    -0.107 OA 
HETATM   30  O   UNL     1      -8.945   4.693  73.391  1.00  0.00    -0.109 OA 
ENDBRANCH  18  20
ENDBRANCH  16  18
ENDBRANCH  13  16
ENDBRANCH   7  10
ENDBRANCH   5   6
ENDBRANCH   4   5
TORSDOF 6
ENDMDL
MODEL      300
REMARK 921   NORMALIZED FREE ENERGY PREDICTED BY IDOCK:   -3.53 KCAL/MOL
REMARK 922        TOTAL FREE ENERGY PREDICTED BY IDOCK:   -5.76 KCAL/MOL
REMARK 923 INTER-LIGAND FREE ENERGY PREDICTED BY IDOCK:   -6.16 KCAL/MOL
REMARK 924 INTRA-LIGAND FREE ENERGY PREDICTED BY IDOCK:    0.40 KCAL/MOL
REMARK 927      BINDING AFFINITY PREDICTED BY RF-SCORE:    0.00 PKD
ROOT
HETATM    1  O   UNL     1      -9.963  10.353  62.811  1.00  0.00    -0.205 OA 
HETATM    2  C   UNL     1     -10.191  11.672  62.987  1.00  0.00    -0.250 C  
HETATM    3  O   UNL     1      -9.304  12.460  63.283  1.00  0.00    -0.004 OA 
HETATM    4  C   UNL     1     -11.625  12.080  62.787  1.00  0.00     0.514 C  
ENDROOT
BRANCH   4   5
HETATM    5  C   UNL     1     -12.421  11.944  64.072  1.00  0.00    -0.313 C  
BRANCH   5   6
HETATM    6  N   UNL     1     -11.897  12.762  65.147  1.00  0.00    -0.367 N  
HETATM    7  C   UNL     1     -11.554  12.219  66.370  1.00  0.00    -0.383 C  
HETATM    8  H   UNL     1     -11.778  13.764  64.997  1.00  0.00     0.000 HD 
HETATM    9  O   UNL     1     -11.647  11.022  66.622  1.00  0.00    -0.263 OA 
BRANCH   7  10
HETATM   10  C   UNL     1     -11.108  13.180  67.421  1.00  0.00    -0.301 A  
HETATM   11  C   UNL     1     -12.029  14.116  67.905  1.00  0.00    -0.378 A  
HETATM   12  C   UNL     1     -11.632  15.084  68.838  1.00  0.00    -0.349 A  
HETATM   13  C   UNL     1     -10.317  15.132  69.320  1.00  0.00    -0.257 A  
HETATM   14  C   UNL     1      -9.803  13.185  67.927  1.00  0.00    -0.231 A  
HETATM   15  C   UNL     1      -9.412  14.161  68.858  1.00  0.00    -0.029 A  
BRANCH  13  16
HETATM   16  N   UNL     1      -9.963  16.195  70.181  1.00  0.00     0.129 NA 
HETATM   17  H   UNL     1     -10.385  16.342  71.098  1.00  0.00     0.000 HD 
BRANCH  16  18
HETATM   18  N   UNL     1      -9.080  16.936  69.701  1.00  0.00     0.397 NA 
HETATM   19  H   UNL     1      -8.145  17.031  70.098  1.00  0.00     0.000 HD 
BRANCH  18  20
HETATM   20  C   UNL     1      -9.513  17.630  68.549  1.00  0.00    -0.298 A  
HETATM   21  C   UNL     1      -9.733  19.016  68.514  1.00  0.00    -0.458 A  
HETATM   22  C   UNL     1     -10.243  19.641  67.370  1.00  0.00    -0.561 A  
HETATM   23  C   UNL     1     -10.552  18.877  66.245  1.00  0.00    -0.392 A  
HETATM   24  O   UNL     1     -11.076  19.494  65.139  1.00  0.00    -0.345 OA 
HETATM   25  C   UNL     1     -10.341  17.491  66.246  1.00  0.00    -0.335 A  
HETATM   26  C   UNL     1     -10.652  16.599  65.092  1.00  0.00    -0.161 C  
HETATM   27  C   UNL     1      -9.822  16.884  67.406  1.00  0.00    -0.261 A  
HETATM   28  H   UNL     1     -11.287  18.974  64.373  1.00  0.00     0.000 HD 
HETATM   29  O   UNL     1     -10.449  15.394  65.123  1.00  0.00    -0.392 OA 
HETATM   30  O   UNL     1     -11.180  17.210  64.010  1.00  0.00    -0.667 OA 
ENDBRANCH  18  20
ENDBRANCH  16  18
ENDBRANCH  13  16
ENDBRANCH   7  10
ENDBRANCH   5   6
ENDBRANCH   4   5
TORSDOF 6
ENDMDL
MODEL      301
REMARK 921   NORMALIZED FREE ENERGY PREDICTED BY IDOCK:   -3.52 KCAL/MOL
REMARK 922        TOTAL FREE ENERGY PREDICTED BY IDOCK:   -5.74 KCAL/MOL
REMARK 923 INTER-LIGAND FREE ENERGY PREDICTED BY IDOCK:   -4.86 KCAL/MOL
REMARK 924 INTRA-LIGAND FREE ENERGY PREDICTED BY IDOCK:   -0.88 KCAL/MOL
REMARK 927      BINDING AFFINITY PREDICTED BY RF-SCORE:    0.00 PKD
ROOT
HETATM    1  O   UNL     1      -7.524  17.606  67.414  1.00  0.00    -0.188 OA 
HETATM    2  C   UNL     1      -8.053  18.610  68.147  1.00  0.00    -0.294 C  
HETATM    3  O   UNL     1      -7.703  18.841  69.295  1.00  0.00    -0.164 OA 
HETATM    4  C   UNL     1      -9.103  19.409  67.426  1.00  0.00    -0.359 C  
ENDROOT
BRANCH   4   5
HETATM    5  C   UNL     1     -10.479  18.789  67.593  1.00  0.00    -0.435 C  
BRANCH   5   6
HETATM    6  N   UNL     1     -10.431  17.350  67.752  1.00  0.00    -0.364 N  
HETATM    7  C   UNL     1     -10.688  16.746  68.968  1.00  0.00    -0.331 C  
HETATM    8  H   UNL     1     -10.203  16.768  66.946  1.00  0.00     0.000 HD 
HETATM    9  O   UNL     1     -10.990  17.373  69.977  1.00  0.00     0.328 OA 
BRANCH   7  10
HETATM   10  C   UNL     1     -10.521  15.264  69.020  1.00  0.00    -0.248 A  
HETATM   11  C   UNL     1      -9.234  14.731  68.890  1.00  0.00    -0.177 A  
HETATM   12  C   UNL     1      -9.042  13.343  68.860  1.00  0.00     0.245 A  
HETATM   13  C   UNL     1     -10.122  12.457  68.974  1.00  0.00     0.158 A  
HETATM   14  C   UNL     1     -11.605  14.393  69.182  1.00  0.00    -0.344 A  
HETATM   15  C   UNL     1     -11.404  13.004  69.146  1.00  0.00    -0.328 A  
BRANCH  13  16
HETATM   16  N   UNL     1      -9.864  11.075  68.834  1.00  0.00    -0.252 NA 
HETATM   17  H   UNL     1     -10.560  10.350  69.013  1.00  0.00     0.000 HD 
BRANCH  16  18
HETATM   18  N   UNL     1      -8.695  10.833  68.468  1.00  0.00    -0.142 NA 
HETATM   19  H   UNL     1      -7.874  11.012  69.046  1.00  0.00     0.000 HD 
BRANCH  18  20
HETATM   20  C   UNL     1      -8.630  10.285  67.167  1.00  0.00    -0.126 A  
HETATM   21  C   UNL     1      -7.826   9.187  66.826  1.00  0.00    -0.101 A  
HETATM   22  C   UNL     1      -7.734   8.738  65.504  1.00  0.00    -0.092 A  
HETATM   23  C   UNL     1      -8.443   9.397  64.500  1.00  0.00    -0.177 A  
HETATM   24  O   UNL     1      -8.326   8.966  63.204  1.00  0.00    -0.184 OA 
HETATM   25  C   UNL     1      -9.257  10.495  64.807  1.00  0.00    -0.266 A  
HETATM   26  C   UNL     1     -10.041  11.261  63.796  1.00  0.00    -0.361 C  
HETATM   27  C   UNL     1      -9.339  10.927  66.145  1.00  0.00    -0.211 A  
HETATM   28  H   UNL     1      -8.808   9.415  62.519  1.00  0.00     0.000 HD 
HETATM   29  O   UNL     1     -10.749  12.211  64.099  1.00  0.00    -0.302 OA 
HETATM   30  O   UNL     1      -9.913  10.842  62.519  1.00  0.00    -0.143 OA 
ENDBRANCH  18  20
ENDBRANCH  16  18
ENDBRANCH  13  16
ENDBRANCH   7  10
ENDBRANCH   5   6
ENDBRANCH   4   5
TORSDOF 6
ENDMDL
MODEL      302
REMARK 921   NORMALIZED FREE ENERGY PREDICTED BY IDOCK:   -3.50 KCAL/MOL
REMARK 922        TOTAL FREE ENERGY PREDICTED BY IDOCK:   -5.71 KCAL/MOL
REMARK 923 INTER-LIGAND FREE ENERGY PREDICTED BY IDOCK:   -4.40 KCAL/MOL
REMARK 924 INTRA-LIGAND FREE ENERGY PREDICTED BY IDOCK:   -1.31 KCAL/MOL
REMARK 927      BINDING AFFINITY PREDICTED BY RF-SCORE:    0.00 PKD
ROOT
HETATM    1  O   UNL     1     -11.593  12.500  70.492  1.00  0.00    -0.043 OA 
HETATM    2  C   UNL     1     -12.012  12.635  69.216  1.00  0.00    -0.246 C  
HETATM    3  O   UNL     1     -12.288  11.676  68.509  1.00  0.00    -0.406 OA 
HETATM    4  C   UNL     1     -12.109  14.062  68.750  1.00  0.00    -0.338 C  
ENDROOT
BRANCH   4   5
HETATM    5  C   UNL     1     -10.786  14.549  68.187  1.00  0.00    -0.239 C  
BRANCH   5   6
HETATM    6  N   UNL     1      -9.875  13.465  67.875  1.00  0.00    -0.229 N  
HETATM    7  C   UNL     1      -9.788  12.937  66.601  1.00  0.00    -0.250 C  
HETATM    8  H   UNL     1      -9.284  13.084  68.614  1.00  0.00     0.000 HD 
HETATM    9  O   UNL     1     -10.448  13.353  65.656  1.00  0.00    -0.279 OA 
BRANCH   7  10
HETATM   10  C   UNL     1      -8.876  11.767  66.431  1.00  0.00    -0.170 A  
HETATM   11  C   UNL     1      -9.325  10.673  65.682  1.00  0.00    -0.239 A  
HETATM   12  C   UNL     1      -8.530   9.526  65.559  1.00  0.00    -0.150 A  
HETATM   13  C   UNL     1      -7.268   9.447  66.164  1.00  0.00    -0.092 A  
HETATM   14  C   UNL     1      -7.599  11.723  67.002  1.00  0.00    -0.147 A  
HETATM   15  C   UNL     1      -6.812  10.568  66.877  1.00  0.00    -0.091 A  
BRANCH  13  16
HETATM   16  N   UNL     1      -6.567   8.223  66.081  1.00  0.00    -0.050 NA 
HETATM   17  H   UNL     1      -5.551   8.158  66.026  1.00  0.00     0.000 HD 
BRANCH  16  18
HETATM   18  N   UNL     1      -7.323   7.229  66.084  1.00  0.00    -0.074 NA 
HETATM   19  H   UNL     1      -7.731   6.827  65.239  1.00  0.00     0.000 HD 
BRANCH  18  20
HETATM   20  C   UNL     1      -7.554   6.720  67.381  1.00  0.00    -0.105 A  
HETATM   21  C   UNL     1      -6.531   6.304  68.247  1.00  0.00    -0.053 A  
HETATM   22  C   UNL     1      -6.820   5.728  69.489  1.00  0.00    -0.061 A  
HETATM   23  C   UNL     1      -8.148   5.550  69.875  1.00  0.00    -0.097 A  
HETATM   24  O   UNL     1      -8.421   4.960  71.082  1.00  0.00    -0.113 OA 
HETATM   25  C   UNL     1      -9.194   5.957  69.036  1.00  0.00    -0.132 A  
HETATM   26  C   UNL     1     -10.639   5.796  69.366  1.00  0.00    -0.313 C  
HETATM   27  C   UNL     1      -8.880   6.539  67.793  1.00  0.00    -0.113 A  
HETATM   28  H   UNL     1      -9.326   4.838  71.345  1.00  0.00     0.000 HD 
HETATM   29  O   UNL     1     -11.528   6.169  68.615  1.00  0.00    -0.223 OA 
HETATM   30  O   UNL     1     -10.904   5.203  70.550  1.00  0.00    -0.147 OA 
ENDBRANCH  18  20
ENDBRANCH  16  18
ENDBRANCH  13  16
ENDBRANCH   7  10
ENDBRANCH   5   6
ENDBRANCH   4   5
TORSDOF 6
ENDMDL
MODEL      303
REMARK 921   NORMALIZED FREE ENERGY PREDICTED BY IDOCK:   -3.49 KCAL/MOL
REMARK 922        TOTAL FREE ENERGY PREDICTED BY IDOCK:   -5.71 KCAL/MOL
REMARK 923 INTER-LIGAND FREE ENERGY PREDICTED BY IDOCK:   -4.79 KCAL/MOL
REMARK 924 INTRA-LIGAND FREE ENERGY PREDICTED BY IDOCK:   -0.92 KCAL/MOL
REMARK 927      BINDING AFFINITY PREDICTED BY RF-SCORE:    0.00 PKD
ROOT
HETATM    1  O   UNL     1      -8.698   6.469  72.694  1.00  0.00    -0.125 OA 
HETATM    2  C   UNL     1      -8.786   5.123  72.746  1.00  0.00    -0.119 C  
HETATM    3  O   UNL     1      -7.870   4.419  73.150  1.00  0.00    -0.088 OA 
HETATM    4  C   UNL     1     -10.101   4.574  72.268  1.00  0.00    -0.253 C  
ENDROOT
BRANCH   4   5
HETATM    5  C   UNL     1     -10.089   4.345  70.767  1.00  0.00    -0.129 C  
BRANCH   5   6
HETATM    6  N   UNL     1      -9.550   5.471  70.031  1.00  0.00    -0.157 N  
HETATM    7  C   UNL     1     -10.369   6.341  69.337  1.00  0.00    -0.216 C  
HETATM    8  H   UNL     1      -8.542   5.625  70.026  1.00  0.00     0.000 HD 
HETATM    9  O   UNL     1     -11.590   6.236  69.311  1.00  0.00    -0.363 OA 
BRANCH   7  10
HETATM   10  C   UNL     1      -9.685   7.408  68.549  1.00  0.00    -0.152 A  
HETATM   11  C   UNL     1     -10.360   7.973  67.460  1.00  0.00    -0.330 A  
HETATM   12  C   UNL     1      -9.725   8.925  66.651  1.00  0.00    -0.303 A  
HETATM   13  C   UNL     1      -8.415   9.345  66.914  1.00  0.00    -0.127 A  
HETATM   14  C   UNL     1      -8.393   7.852  68.853  1.00  0.00    -0.127 A  
HETATM   15  C   UNL     1      -7.763   8.802  68.033  1.00  0.00    -0.101 A  
BRANCH  13  16
HETATM   16  N   UNL     1      -7.805  10.231  65.997  1.00  0.00    -0.127 NA 
HETATM   17  H   UNL     1      -6.854  10.113  65.646  1.00  0.00     0.000 HD 
BRANCH  16  18
HETATM   18  N   UNL     1      -8.553  11.173  65.660  1.00  0.00    -0.330 NA 
HETATM   19  H   UNL     1      -8.999  11.240  64.745  1.00  0.00     0.000 HD 
BRANCH  18  20
HETATM   20  C   UNL     1      -8.715  12.136  66.681  1.00  0.00    -0.153 A  
HETATM   21  C   UNL     1      -9.921  12.809  66.930  1.00  0.00    -0.232 A  
HETATM   22  C   UNL     1     -10.003  13.816  67.898  1.00  0.00    -0.240 A  
HETATM   23  C   UNL     1      -8.867  14.170  68.624  1.00  0.00    -0.132 A  
HETATM   24  O   UNL     1      -8.952  15.176  69.553  1.00  0.00    -0.368 OA 
HETATM   25  C   UNL     1      -7.648  13.516  68.403  1.00  0.00    -0.133 A  
HETATM   26  C   UNL     1      -6.384  13.838  69.127  1.00  0.00    -0.105 C  
HETATM   27  C   UNL     1      -7.588  12.503  67.427  1.00  0.00    -0.156 A  
HETATM   28  H   UNL     1      -8.177  15.418  70.047  1.00  0.00     0.000 HD 
HETATM   29  O   UNL     1      -5.338  13.242  68.915  1.00  0.00    -0.071 OA 
HETATM   30  O   UNL     1      -6.469  14.837  70.031  1.00  0.00    -0.153 OA 
ENDBRANCH  18  20
ENDBRANCH  16  18
ENDBRANCH  13  16
ENDBRANCH   7  10
ENDBRANCH   5   6
ENDBRANCH   4   5
TORSDOF 6
ENDMDL
MODEL      304
REMARK 921   NORMALIZED FREE ENERGY PREDICTED BY IDOCK:   -3.45 KCAL/MOL
REMARK 922        TOTAL FREE ENERGY PREDICTED BY IDOCK:   -5.64 KCAL/MOL
REMARK 923 INTER-LIGAND FREE ENERGY PREDICTED BY IDOCK:   -4.80 KCAL/MOL
REMARK 924 INTRA-LIGAND FREE ENERGY PREDICTED BY IDOCK:   -0.85 KCAL/MOL
REMARK 927      BINDING AFFINITY PREDICTED BY RF-SCORE:    0.00 PKD
ROOT
HETATM    1  O   UNL     1      -7.643  17.056  67.436  1.00  0.00    -0.159 OA 
HETATM    2  C   UNL     1      -7.591  15.765  67.045  1.00  0.00    -0.222 C  
HETATM    3  O   UNL     1      -8.473  15.244  66.376  1.00  0.00    -0.238 OA 
HETATM    4  C   UNL     1      -6.358  15.035  67.501  1.00  0.00    -0.089 C  
ENDROOT
BRANCH   4   5
HETATM    5  C   UNL     1      -6.555  14.430  68.880  1.00  0.00    -0.094 C  
BRANCH   5   6
HETATM    6  N   UNL     1      -7.431  13.277  68.868  1.00  0.00    -0.271 N  
HETATM    7  C   UNL     1      -7.057  12.089  68.270  1.00  0.00    -0.086 C  
HETATM    8  H   UNL     1      -8.347  13.343  69.313  1.00  0.00     0.000 HD 
HETATM    9  O   UNL     1      -5.967  11.923  67.734  1.00  0.00    -0.049 OA 
BRANCH   7  10
HETATM   10  C   UNL     1      -8.083  11.005  68.250  1.00  0.00    -0.128 A  
HETATM   11  C   UNL     1      -9.281  11.205  68.945  1.00  0.00    -0.106 A  
HETATM   12  C   UNL     1     -10.239  10.184  69.012  1.00  0.00    -0.221 A  
HETATM   13  C   UNL     1     -10.034   8.952  68.379  1.00  0.00    -0.178 A  
HETATM   14  C   UNL     1      -7.883   9.796  67.573  1.00  0.00    -0.095 A  
HETATM   15  C   UNL     1      -8.845   8.778  67.650  1.00  0.00    -0.138 A  
BRANCH  13  16
HETATM   16  N   UNL     1     -10.997   7.936  68.574  1.00  0.00    -0.412 NA 
HETATM   17  H   UNL     1     -11.276   7.276  67.848  1.00  0.00     0.000 HD 
BRANCH  16  18
HETATM   18  N   UNL     1     -11.470   7.931  69.730  1.00  0.00    -0.438 NA 
HETATM   19  H   UNL     1     -12.163   8.604  70.059  1.00  0.00     0.000 HD 
BRANCH  18  20
HETATM   20  C   UNL     1     -10.945   6.894  70.533  1.00  0.00    -0.273 A  
HETATM   21  C   UNL     1     -10.701   7.025  71.908  1.00  0.00    -0.244 A  
HETATM   22  C   UNL     1     -10.099   5.994  72.640  1.00  0.00    -0.198 A  
HETATM   23  C   UNL     1      -9.723   4.817  71.993  1.00  0.00    -0.162 A  
HETATM   24  O   UNL     1      -9.111   3.824  72.713  1.00  0.00    -0.099 OA 
HETATM   25  C   UNL     1      -9.956   4.653  70.621  1.00  0.00    -0.293 A  
HETATM   26  C   UNL     1      -9.577   3.433  69.851  1.00  0.00    -0.127 C  
HETATM   27  C   UNL     1     -10.566   5.701  69.906  1.00  0.00    -0.399 A  
HETATM   28  H   UNL     1      -8.854   3.022  72.273  1.00  0.00     0.000 HD 
HETATM   29  O   UNL     1      -9.802   3.319  68.655  1.00  0.00    -0.004 OA 
HETATM   30  O   UNL     1      -8.963   2.463  70.561  1.00  0.00    -0.074 OA 
ENDBRANCH  18  20
ENDBRANCH  16  18
ENDBRANCH  13  16
ENDBRANCH   7  10
ENDBRANCH   5   6
ENDBRANCH   4   5
TORSDOF 6
ENDMDL
MODEL      305
REMARK 921   NORMALIZED FREE ENERGY PREDICTED BY IDOCK:   -3.44 KCAL/MOL
REMARK 922        TOTAL FREE ENERGY PREDICTED BY IDOCK:   -5.64 KCAL/MOL
REMARK 923 INTER-LIGAND FREE ENERGY PREDICTED BY IDOCK:   -4.73 KCAL/MOL
REMARK 924 INTRA-LIGAND FREE ENERGY PREDICTED BY IDOCK:   -0.91 KCAL/MOL
REMARK 927      BINDING AFFINITY PREDICTED BY RF-SCORE:    0.00 PKD
ROOT
HETATM    1  O   UNL     1     -10.807   5.330  67.513  1.00  0.00    -0.088 OA 
HETATM    2  C   UNL     1     -10.785   6.643  67.827  1.00  0.00    -0.283 C  
HETATM    3  O   UNL     1     -10.898   7.523  66.986  1.00  0.00    -0.348 OA 
HETATM    4  C   UNL     1     -10.610   6.920  69.295  1.00  0.00    -0.250 C  
ENDROOT
BRANCH   4   5
HETATM    5  C   UNL     1      -9.140   6.978  69.673  1.00  0.00    -0.144 C  
BRANCH   5   6
HETATM    6  N   UNL     1      -8.592   8.317  69.592  1.00  0.00    -0.128 N  
HETATM    7  C   UNL     1      -7.847   8.730  68.504  1.00  0.00    -0.104 C  
HETATM    8  H   UNL     1      -8.760   8.971  70.357  1.00  0.00     0.000 HD 
HETATM    9  O   UNL     1      -7.618   8.012  67.537  1.00  0.00    -0.098 OA 
BRANCH   7  10
HETATM   10  C   UNL     1      -7.266  10.102  68.581  1.00  0.00    -0.080 A  
HETATM   11  C   UNL     1      -7.068  10.813  67.391  1.00  0.00    -0.091 A  
HETATM   12  C   UNL     1      -6.458  12.075  67.414  1.00  0.00    -0.137 A  
HETATM   13  C   UNL     1      -6.045  12.661  68.617  1.00  0.00    -0.067 A  
HETATM   14  C   UNL     1      -6.902  10.694  69.796  1.00  0.00    -0.143 A  
HETATM   15  C   UNL     1      -6.286  11.956  69.808  1.00  0.00    -0.118 A  
BRANCH  13  16
HETATM   16  N   UNL     1      -5.346  13.888  68.553  1.00  0.00    -0.089 NA 
HETATM   17  H   UNL     1      -4.465  14.009  68.053  1.00  0.00     0.000 HD 
BRANCH  16  18
HETATM   18  N   UNL     1      -5.922  14.808  69.171  1.00  0.00    -0.098 NA 
HETATM   19  H   UNL     1      -5.604  15.167  70.072  1.00  0.00     0.000 HD 
BRANCH  18  20
HETATM   20  C   UNL     1      -7.059  15.298  68.491  1.00  0.00    -0.110 A  
HETATM   21  C   UNL     1      -7.013  15.863  67.207  1.00  0.00    -0.241 A  
HETATM   22  C   UNL     1      -8.156  16.411  66.614  1.00  0.00    -0.321 A  
HETATM   23  C   UNL     1      -9.363  16.410  67.311  1.00  0.00    -0.221 A  
HETATM   24  O   UNL     1     -10.471  16.972  66.732  1.00  0.00    -0.308 OA 
HETATM   25  C   UNL     1      -9.444  15.851  68.594  1.00  0.00    -0.214 A  
HETATM   26  C   UNL     1     -10.691  15.816  69.411  1.00  0.00    -0.266 C  
HETATM   27  C   UNL     1      -8.283  15.300  69.169  1.00  0.00    -0.234 A  
HETATM   28  H   UNL     1     -11.295  16.972  67.207  1.00  0.00     0.000 HD 
HETATM   29  O   UNL     1     -10.730  15.313  70.525  1.00  0.00    -0.287 OA 
HETATM   30  O   UNL     1     -11.777  16.382  68.843  1.00  0.00    -0.261 OA 
ENDBRANCH  18  20
ENDBRANCH  16  18
ENDBRANCH  13  16
ENDBRANCH   7  10
ENDBRANCH   5   6
ENDBRANCH   4   5
TORSDOF 6
ENDMDL
MODEL      306
REMARK 921   NORMALIZED FREE ENERGY PREDICTED BY IDOCK:   -3.44 KCAL/MOL
REMARK 922        TOTAL FREE ENERGY PREDICTED BY IDOCK:   -5.63 KCAL/MOL
REMARK 923 INTER-LIGAND FREE ENERGY PREDICTED BY IDOCK:   -4.92 KCAL/MOL
REMARK 924 INTRA-LIGAND FREE ENERGY PREDICTED BY IDOCK:   -0.71 KCAL/MOL
REMARK 927      BINDING AFFINITY PREDICTED BY RF-SCORE:    0.00 PKD
ROOT
HETATM    1  O   UNL     1      -8.030  19.301  66.651  1.00  0.00    -0.253 OA 
HETATM    2  C   UNL     1      -9.261  19.842  66.762  1.00  0.00    -0.378 C  
HETATM    3  O   UNL     1      -9.440  21.015  67.062  1.00  0.00    -0.266 OA 
HETATM    4  C   UNL     1     -10.383  18.880  66.486  1.00  0.00    -0.493 C  
ENDROOT
BRANCH   4   5
HETATM    5  C   UNL     1     -10.786  18.128  67.742  1.00  0.00    -0.335 C  
BRANCH   5   6
HETATM    6  N   UNL     1     -10.658  16.691  67.602  1.00  0.00    -0.324 N  
HETATM    7  C   UNL     1      -9.558  16.011  68.088  1.00  0.00    -0.209 C  
HETATM    8  H   UNL     1     -11.399  16.169  67.133  1.00  0.00     0.000 HD 
HETATM    9  O   UNL     1      -8.637  16.562  68.680  1.00  0.00    -0.221 OA 
BRANCH   7  10
HETATM   10  C   UNL     1      -9.506  14.547  67.803  1.00  0.00    -0.210 A  
HETATM   11  C   UNL     1      -8.258  13.912  67.790  1.00  0.00    -0.173 A  
HETATM   12  C   UNL     1      -8.158  12.555  67.455  1.00  0.00    -0.180 A  
HETATM   13  C   UNL     1      -9.294  11.798  67.140  1.00  0.00    -0.177 A  
HETATM   14  C   UNL     1     -10.655  13.793  67.537  1.00  0.00    -0.246 A  
HETATM   15  C   UNL     1     -10.545  12.436  67.197  1.00  0.00    -0.247 A  
BRANCH  13  16
HETATM   16  N   UNL     1      -9.106  10.464  66.714  1.00  0.00    -0.143 NA 
HETATM   17  H   UNL     1      -9.871   9.801  66.582  1.00  0.00     0.000 HD 
BRANCH  16  18
HETATM   18  N   UNL     1      -7.906  10.181  66.515  1.00  0.00    -0.109 NA 
HETATM   19  H   UNL     1      -7.129  10.685  66.944  1.00  0.00     0.000 HD 
BRANCH  18  20
HETATM   20  C   UNL     1      -7.738   9.091  65.633  1.00  0.00    -0.091 A  
HETATM   21  C   UNL     1      -7.650   9.226  64.239  1.00  0.00    -0.112 A  
HETATM   22  C   UNL     1      -7.570   8.105  63.405  1.00  0.00    -0.132 A  
HETATM   23  C   UNL     1      -7.589   6.827  63.962  1.00  0.00    -0.108 A  
HETATM   24  O   UNL     1      -7.535   5.735  63.135  1.00  0.00    -0.059 OA 
HETATM   25  C   UNL     1      -7.672   6.657  65.350  1.00  0.00    -0.100 A  
HETATM   26  C   UNL     1      -7.707   5.329  66.027  1.00  0.00    -0.091 C  
HETATM   27  C   UNL     1      -7.748   7.798  66.171  1.00  0.00    -0.089 A  
HETATM   28  H   UNL     1      -7.549   4.864  63.514  1.00  0.00     0.000 HD 
HETATM   29  O   UNL     1      -7.773   5.215  67.243  1.00  0.00    -0.091 OA 
HETATM   30  O   UNL     1      -7.668   4.256  65.208  1.00  0.00    -0.084 OA 
ENDBRANCH  18  20
ENDBRANCH  16  18
ENDBRANCH  13  16
ENDBRANCH   7  10
ENDBRANCH   5   6
ENDBRANCH   4   5
TORSDOF 6
ENDMDL
MODEL      307
REMARK 921   NORMALIZED FREE ENERGY PREDICTED BY IDOCK:   -3.43 KCAL/MOL
REMARK 922        TOTAL FREE ENERGY PREDICTED BY IDOCK:   -5.63 KCAL/MOL
REMARK 923 INTER-LIGAND FREE ENERGY PREDICTED BY IDOCK:   -4.77 KCAL/MOL
REMARK 924 INTRA-LIGAND FREE ENERGY PREDICTED BY IDOCK:   -0.85 KCAL/MOL
REMARK 927      BINDING AFFINITY PREDICTED BY RF-SCORE:    0.00 PKD
ROOT
HETATM    1  O   UNL     1      -9.828   5.536  71.975  1.00  0.00    -0.161 OA 
HETATM    2  C   UNL     1      -9.096   4.475  71.575  1.00  0.00    -0.131 C  
HETATM    3  O   UNL     1      -8.050   4.152  72.122  1.00  0.00    -0.086 OA 
HETATM    4  C   UNL     1      -9.680   3.732  70.405  1.00  0.00    -0.225 C  
ENDROOT
BRANCH   4   5
HETATM    5  C   UNL     1      -9.220   4.330  69.087  1.00  0.00    -0.145 C  
BRANCH   5   6
HETATM    6  N   UNL     1      -9.087   5.772  69.141  1.00  0.00    -0.117 N  
HETATM    7  C   UNL     1      -8.107   6.436  68.429  1.00  0.00    -0.113 C  
HETATM    8  H   UNL     1      -9.734   6.310  69.718  1.00  0.00     0.000 HD 
HETATM    9  O   UNL     1      -7.306   5.864  67.698  1.00  0.00    -0.075 OA 
BRANCH   7  10
HETATM   10  C   UNL     1      -8.021   7.912  68.637  1.00  0.00    -0.124 A  
HETATM   11  C   UNL     1      -8.777   8.749  67.809  1.00  0.00    -0.136 A  
HETATM   12  C   UNL     1      -8.669  10.142  67.923  1.00  0.00    -0.122 A  
HETATM   13  C   UNL     1      -7.821  10.730  68.871  1.00  0.00    -0.136 A  
HETATM   14  C   UNL     1      -7.205   8.483  69.620  1.00  0.00    -0.052 A  
HETATM   15  C   UNL     1      -7.099   9.879  69.724  1.00  0.00    -0.106 A  
BRANCH  13  16
HETATM   16  N   UNL     1      -7.687  12.137  68.860  1.00  0.00    -0.313 NA 
HETATM   17  H   UNL     1      -7.818  12.722  69.685  1.00  0.00     0.000 HD 
BRANCH  16  18
HETATM   18  N   UNL     1      -7.392  12.589  67.734  1.00  0.00    -0.110 NA 
HETATM   19  H   UNL     1      -7.016  12.017  66.977  1.00  0.00     0.000 HD 
BRANCH  18  20
HETATM   20  C   UNL     1      -7.633  13.976  67.619  1.00  0.00    -0.179 A  
HETATM   21  C   UNL     1      -6.992  14.943  68.408  1.00  0.00    -0.110 A  
HETATM   22  C   UNL     1      -7.330  16.298  68.312  1.00  0.00    -0.146 A  
HETATM   23  C   UNL     1      -8.329  16.700  67.427  1.00  0.00    -0.173 A  
HETATM   24  O   UNL     1      -8.671  18.025  67.359  1.00  0.00    -0.243 OA 
HETATM   25  C   UNL     1      -8.986  15.759  66.622  1.00  0.00    -0.313 A  
HETATM   26  C   UNL     1     -10.071  16.100  65.656  1.00  0.00    -0.337 C  
HETATM   27  C   UNL     1      -8.627  14.402  66.731  1.00  0.00    -0.139 A  
HETATM   28  H   UNL     1      -9.353  18.299  66.755  1.00  0.00     0.000 HD 
HETATM   29  O   UNL     1     -10.619  15.256  64.963  1.00  0.00    -0.405 OA 
HETATM   30  O   UNL     1     -10.413  17.405  65.602  1.00  0.00    -0.577 OA 
ENDBRANCH  18  20
ENDBRANCH  16  18
ENDBRANCH  13  16
ENDBRANCH   7  10
ENDBRANCH   5   6
ENDBRANCH   4   5
TORSDOF 6
ENDMDL
MODEL      308
REMARK 921   NORMALIZED FREE ENERGY PREDICTED BY IDOCK:   -3.42 KCAL/MOL
REMARK 922        TOTAL FREE ENERGY PREDICTED BY IDOCK:   -5.60 KCAL/MOL
REMARK 923 INTER-LIGAND FREE ENERGY PREDICTED BY IDOCK:   -4.42 KCAL/MOL
REMARK 924 INTRA-LIGAND FREE ENERGY PREDICTED BY IDOCK:   -1.19 KCAL/MOL
REMARK 927      BINDING AFFINITY PREDICTED BY RF-SCORE:    0.00 PKD
ROOT
HETATM    1  O   UNL     1      -6.712  10.053  66.687  1.00  0.00    -0.077 OA 
HETATM    2  C   UNL     1      -7.911  10.668  66.762  1.00  0.00    -0.132 C  
HETATM    3  O   UNL     1      -8.210  11.417  67.682  1.00  0.00    -0.121 OA 
HETATM    4  C   UNL     1      -8.837  10.351  65.621  1.00  0.00    -0.190 C  
ENDROOT
BRANCH   4   5
HETATM    5  C   UNL     1      -9.652   9.101  65.903  1.00  0.00    -0.273 C  
BRANCH   5   6
HETATM    6  N   UNL     1      -9.072   8.276  66.944  1.00  0.00    -0.143 N  
HETATM    7  C   UNL     1      -8.539   7.031  66.668  1.00  0.00    -0.124 C  
HETATM    8  H   UNL     1      -9.057   8.622  67.903  1.00  0.00     0.000 HD 
HETATM    9  O   UNL     1      -8.500   6.554  65.540  1.00  0.00    -0.150 OA 
BRANCH   7  10
HETATM   10  C   UNL     1      -8.052   6.245  67.840  1.00  0.00    -0.114 A  
HETATM   11  C   UNL     1      -8.705   5.049  68.161  1.00  0.00    -0.106 A  
HETATM   12  C   UNL     1      -8.326   4.319  69.296  1.00  0.00    -0.085 A  
HETATM   13  C   UNL     1      -7.284   4.753  70.125  1.00  0.00    -0.050 A  
HETATM   14  C   UNL     1      -6.978   6.668  68.631  1.00  0.00    -0.080 A  
HETATM   15  C   UNL     1      -6.609   5.932  69.769  1.00  0.00    -0.047 A  
BRANCH  13  16
HETATM   16  N   UNL     1      -7.025   4.020  71.305  1.00  0.00    -0.031 NA 
HETATM   17  H   UNL     1      -6.673   3.062  71.309  1.00  0.00     0.000 HD 
BRANCH  16  18
HETATM   18  N   UNL     1      -7.273   4.668  72.344  1.00  0.00    -0.077 NA 
HETATM   19  H   UNL     1      -6.557   4.969  73.005  1.00  0.00     0.000 HD 
BRANCH  18  20
HETATM   20  C   UNL     1      -8.650   4.938  72.506  1.00  0.00    -0.120 A  
HETATM   21  C   UNL     1      -9.625   3.940  72.652  1.00  0.00    -0.188 A  
HETATM   22  C   UNL     1     -10.986   4.260  72.725  1.00  0.00    -0.138 A  
HETATM   23  C   UNL     1     -11.387   5.593  72.639  1.00  0.00    -0.305 A  
HETATM   24  O   UNL     1     -12.724   5.894  72.685  1.00  0.00    -0.514 OA 
HETATM   25  C   UNL     1     -10.438   6.614  72.497  1.00  0.00    -0.231 A  
HETATM   26  C   UNL     1     -10.780   8.062  72.389  1.00  0.00    -0.320 C  
HETATM   27  C   UNL     1      -9.074   6.270  72.431  1.00  0.00    -0.138 A  
HETATM   28  H   UNL     1     -12.997   6.803  72.626  1.00  0.00     0.000 HD 
HETATM   29  O   UNL     1      -9.926   8.929  72.273  1.00  0.00    -0.292 OA 
HETATM   30  O   UNL     1     -12.098   8.353  72.421  1.00  0.00    -0.371 OA 
ENDBRANCH  18  20
ENDBRANCH  16  18
ENDBRANCH  13  16
ENDBRANCH   7  10
ENDBRANCH   5   6
ENDBRANCH   4   5
TORSDOF 6
ENDMDL
MODEL      309
REMARK 921   NORMALIZED FREE ENERGY PREDICTED BY IDOCK:   -3.38 KCAL/MOL
REMARK 922        TOTAL FREE ENERGY PREDICTED BY IDOCK:   -5.55 KCAL/MOL
REMARK 923 INTER-LIGAND FREE ENERGY PREDICTED BY IDOCK:   -5.81 KCAL/MOL
REMARK 924 INTRA-LIGAND FREE ENERGY PREDICTED BY IDOCK:    0.27 KCAL/MOL
REMARK 927      BINDING AFFINITY PREDICTED BY RF-SCORE:    0.00 PKD
ROOT
HETATM    1  O   UNL     1     -13.896  16.415  73.627  1.00  0.00    -0.438 OA 
HETATM    2  C   UNL     1     -12.861  15.669  73.183  1.00  0.00    -0.509 C  
HETATM    3  O   UNL     1     -11.835  16.166  72.740  1.00  0.00    -0.486 OA 
HETATM    4  C   UNL     1     -13.086  14.186  73.282  1.00  0.00    -0.093 C  
ENDROOT
BRANCH   4   5
HETATM    5  C   UNL     1     -13.783  13.650  72.044  1.00  0.00    -0.493 C  
BRANCH   5   6
HETATM    6  N   UNL     1     -13.262  12.367  71.617  1.00  0.00    -0.358 N  
HETATM    7  C   UNL     1     -12.267  12.270  70.663  1.00  0.00    -0.287 C  
HETATM    8  H   UNL     1     -13.638  11.514  72.032  1.00  0.00     0.000 HD 
HETATM    9  O   UNL     1     -11.749  13.246  70.133  1.00  0.00    -0.272 OA 
BRANCH   7  10
HETATM   10  C   UNL     1     -11.880  10.889  70.248  1.00  0.00    -0.450 A  
HETATM   11  C   UNL     1     -11.991   9.854  71.183  1.00  0.00    -0.473 A  
HETATM   12  C   UNL     1     -11.569   8.557  70.857  1.00  0.00    -0.295 A  
HETATM   13  C   UNL     1     -11.042   8.261  69.593  1.00  0.00    -0.001 A  
HETATM   14  C   UNL     1     -11.400  10.600  68.965  1.00  0.00    -0.340 A  
HETATM   15  C   UNL     1     -10.974   9.300  68.649  1.00  0.00    -0.039 A  
BRANCH  13  16
HETATM   16  N   UNL     1     -10.544   6.957  69.370  1.00  0.00    -0.219 NA 
HETATM   17  H   UNL     1     -10.805   6.383  68.568  1.00  0.00     0.000 HD 
BRANCH  16  18
HETATM   18  N   UNL     1      -9.750   6.582  70.258  1.00  0.00    -0.168 NA 
HETATM   19  H   UNL     1      -9.839   5.697  70.757  1.00  0.00     0.000 HD 
BRANCH  18  20
HETATM   20  C   UNL     1      -8.716   7.514  70.498  1.00  0.00    -0.146 A  
HETATM   21  C   UNL     1      -8.335   7.938  71.780  1.00  0.00    -0.144 A  
HETATM   22  C   UNL     1      -7.361   8.927  71.958  1.00  0.00     0.058 A  
HETATM   23  C   UNL     1      -6.763   9.516  70.844  1.00  0.00    -0.083 A  
HETATM   24  O   UNL     1      -5.829  10.502  71.028  1.00  0.00    -0.224 OA 
HETATM   25  C   UNL     1      -7.118   9.113  69.550  1.00  0.00    -0.059 A  
HETATM   26  C   UNL     1      -6.536   9.694  68.306  1.00  0.00    -0.057 C  
HETATM   27  C   UNL     1      -8.097   8.112  69.394  1.00  0.00    -0.116 A  
HETATM   28  H   UNL     1      -5.422  10.904  70.269  1.00  0.00     0.000 HD 
HETATM   29  O   UNL     1      -6.863   9.315  67.191  1.00  0.00    -0.081 OA 
HETATM   30  O   UNL     1      -5.627  10.675  68.491  1.00  0.00    -0.041 OA 
ENDBRANCH  18  20
ENDBRANCH  16  18
ENDBRANCH  13  16
ENDBRANCH   7  10
ENDBRANCH   5   6
ENDBRANCH   4   5
TORSDOF 6
ENDMDL
MODEL      310
REMARK 921   NORMALIZED FREE ENERGY PREDICTED BY IDOCK:   -3.35 KCAL/MOL
REMARK 922        TOTAL FREE ENERGY PREDICTED BY IDOCK:   -5.51 KCAL/MOL
REMARK 923 INTER-LIGAND FREE ENERGY PREDICTED BY IDOCK:   -5.62 KCAL/MOL
REMARK 924 INTRA-LIGAND FREE ENERGY PREDICTED BY IDOCK:    0.11 KCAL/MOL
REMARK 927      BINDING AFFINITY PREDICTED BY RF-SCORE:    0.00 PKD
ROOT
HETATM    1  O   UNL     1     -12.864  17.000  73.960  1.00  0.00    -0.249 OA 
HETATM    2  C   UNL     1     -12.488  15.808  73.451  1.00  0.00    -0.528 C  
HETATM    3  O   UNL     1     -11.323  15.543  73.188  1.00  0.00    -0.196 OA 
HETATM    4  C   UNL     1     -13.622  14.844  73.240  1.00  0.00    -0.051 C  
ENDROOT
BRANCH   4   5
HETATM    5  C   UNL     1     -14.259  15.033  71.875  1.00  0.00    -0.555 C  
BRANCH   5   6
HETATM    6  N   UNL     1     -13.647  14.212  70.851  1.00  0.00    -0.253 N  
HETATM    7  C   UNL     1     -12.752  14.738  69.939  1.00  0.00    -0.087 C  
HETATM    8  H   UNL     1     -13.881  13.220  70.802  1.00  0.00     0.000 HD 
HETATM    9  O   UNL     1     -12.403  15.914  69.944  1.00  0.00    -0.290 OA 
BRANCH   7  10
HETATM   10  C   UNL     1     -12.259  13.808  68.881  1.00  0.00    -0.235 A  
HETATM   11  C   UNL     1     -11.629  12.622  69.274  1.00  0.00    -0.376 A  
HETATM   12  C   UNL     1     -11.087  11.756  68.314  1.00  0.00    -0.291 A  
HETATM   13  C   UNL     1     -11.172  12.044  66.945  1.00  0.00    -0.320 A  
HETATM   14  C   UNL     1     -12.394  14.087  67.516  1.00  0.00    -0.112 A  
HETATM   15  C   UNL     1     -11.843  13.217  66.561  1.00  0.00    -0.450 A  
BRANCH  13  16
HETATM   16  N   UNL     1     -10.515  11.178  66.042  1.00  0.00    -0.257 NA 
HETATM   17  H   UNL     1     -10.788  10.207  65.893  1.00  0.00     0.000 HD 
BRANCH  16  18
HETATM   18  N   UNL     1      -9.566  11.728  65.445  1.00  0.00    -0.320 NA 
HETATM   19  H   UNL     1      -9.412  11.653  64.439  1.00  0.00     0.000 HD 
BRANCH  18  20
HETATM   20  C   UNL     1      -8.726  12.464  66.311  1.00  0.00     0.106 A  
HETATM   21  C   UNL     1      -7.951  11.880  67.323  1.00  0.00    -0.171 A  
HETATM   22  C   UNL     1      -7.202  12.665  68.208  1.00  0.00    -0.113 A  
HETATM   23  C   UNL     1      -7.232  14.054  68.093  1.00  0.00    -0.129 A  
HETATM   24  O   UNL     1      -6.515  14.815  68.981  1.00  0.00    -0.089 OA 
HETATM   25  C   UNL     1      -7.993  14.669  67.091  1.00  0.00    -0.184 A  
HETATM   26  C   UNL     1      -8.089  16.146  66.903  1.00  0.00    -0.240 C  
HETATM   27  C   UNL     1      -8.735  13.861  66.209  1.00  0.00     0.352 A  
HETATM   28  H   UNL     1      -6.536  15.762  68.903  1.00  0.00     0.000 HD 
HETATM   29  O   UNL     1      -8.757  16.650  66.013  1.00  0.00    -0.433 OA 
HETATM   30  O   UNL     1      -7.393  16.891  67.787  1.00  0.00    -0.150 OA 
ENDBRANCH  18  20
ENDBRANCH  16  18
ENDBRANCH  13  16
ENDBRANCH   7  10
ENDBRANCH   5   6
ENDBRANCH   4   5
TORSDOF 6
ENDMDL
MODEL      311
REMARK 921   NORMALIZED FREE ENERGY PREDICTED BY IDOCK:   -3.34 KCAL/MOL
REMARK 922        TOTAL FREE ENERGY PREDICTED BY IDOCK:   -5.49 KCAL/MOL
REMARK 923 INTER-LIGAND FREE ENERGY PREDICTED BY IDOCK:   -5.39 KCAL/MOL
REMARK 924 INTRA-LIGAND FREE ENERGY PREDICTED BY IDOCK:   -0.11 KCAL/MOL
REMARK 927      BINDING AFFINITY PREDICTED BY RF-SCORE:    0.00 PKD
ROOT
HETATM    1  O   UNL     1     -14.408  14.640  72.442  1.00  0.00    -0.447 OA 
HETATM    2  C   UNL     1     -13.137  14.193  72.531  1.00  0.00    -0.463 C  
HETATM    3  O   UNL     1     -12.209  14.911  72.877  1.00  0.00    -0.329 OA 
HETATM    4  C   UNL     1     -12.969  12.743  72.170  1.00  0.00    -0.344 C  
ENDROOT
BRANCH   4   5
HETATM    5  C   UNL     1     -12.745  12.569  70.678  1.00  0.00    -0.052 C  
BRANCH   5   6
HETATM    6  N   UNL     1     -11.626  11.701  70.375  1.00  0.00    -0.503 N  
HETATM    7  C   UNL     1     -11.425  11.194  69.105  1.00  0.00    -0.298 C  
HETATM    8  H   UNL     1     -10.970  11.457  71.117  1.00  0.00     0.000 HD 
HETATM    9  O   UNL     1     -12.155  11.456  68.156  1.00  0.00    -0.623 OA 
BRANCH   7  10
HETATM   10  C   UNL     1     -10.287  10.242  68.944  1.00  0.00    -0.221 A  
HETATM   11  C   UNL     1     -10.434   8.936  69.424  1.00  0.00    -0.228 A  
HETATM   12  C   UNL     1      -9.364   8.033  69.359  1.00  0.00    -0.155 A  
HETATM   13  C   UNL     1      -8.133   8.404  68.803  1.00  0.00    -0.121 A  
HETATM   14  C   UNL     1      -9.078  10.614  68.343  1.00  0.00    -0.156 A  
HETATM   15  C   UNL     1      -8.011   9.705  68.287  1.00  0.00    -0.096 A  
BRANCH  13  16
HETATM   16  N   UNL     1      -7.070   7.474  68.863  1.00  0.00    -0.077 NA 
HETATM   17  H   UNL     1      -6.445   7.383  69.664  1.00  0.00     0.000 HD 
BRANCH  16  18
HETATM   18  N   UNL     1      -6.976   6.776  67.832  1.00  0.00    -0.080 NA 
HETATM   19  H   UNL     1      -6.518   7.091  66.976  1.00  0.00     0.000 HD 
BRANCH  18  20
HETATM   20  C   UNL     1      -7.572   5.503  67.975  1.00  0.00    -0.081 A  
HETATM   21  C   UNL     1      -7.802   4.628  66.903  1.00  0.00    -0.099 A  
HETATM   22  C   UNL     1      -8.473   3.414  67.088  1.00  0.00    -0.107 A  
HETATM   23  C   UNL     1      -8.936   3.067  68.357  1.00  0.00    -0.141 A  
HETATM   24  O   UNL     1      -9.615   1.888  68.524  1.00  0.00    -0.182 OA 
HETATM   25  C   UNL     1      -8.720   3.918  69.450  1.00  0.00    -0.124 A  
HETATM   26  C   UNL     1      -9.188   3.629  70.837  1.00  0.00    -0.129 C  
HETATM   27  C   UNL     1      -8.038   5.132  69.242  1.00  0.00    -0.084 A  
HETATM   28  H   UNL     1      -9.931   1.652  69.388  1.00  0.00     0.000 HD 
HETATM   29  O   UNL     1      -8.976   4.389  71.770  1.00  0.00    -0.119 OA 
HETATM   30  O   UNL     1      -9.868   2.474  70.993  1.00  0.00    -0.127 OA 
ENDBRANCH  18  20
ENDBRANCH  16  18
ENDBRANCH  13  16
ENDBRANCH   7  10
ENDBRANCH   5   6
ENDBRANCH   4   5
TORSDOF 6
ENDMDL
MODEL      312
REMARK 921   NORMALIZED FREE ENERGY PREDICTED BY IDOCK:   -3.31 KCAL/MOL
REMARK 922        TOTAL FREE ENERGY PREDICTED BY IDOCK:   -5.46 KCAL/MOL
REMARK 923 INTER-LIGAND FREE ENERGY PREDICTED BY IDOCK:   -4.41 KCAL/MOL
REMARK 924 INTRA-LIGAND FREE ENERGY PREDICTED BY IDOCK:   -1.05 KCAL/MOL
REMARK 927      BINDING AFFINITY PREDICTED BY RF-SCORE:    0.00 PKD
ROOT
HETATM    1  O   UNL     1      -9.536  16.313  68.505  1.00  0.00    -0.209 OA 
HETATM    2  C   UNL     1     -10.115  16.822  67.396  1.00  0.00    -0.276 C  
HETATM    3  O   UNL     1     -11.144  17.482  67.435  1.00  0.00    -0.142 OA 
HETATM    4  C   UNL     1      -9.385  16.504  66.121  1.00  0.00    -0.339 C  
ENDROOT
BRANCH   4   5
HETATM    5  C   UNL     1      -9.839  15.175  65.542  1.00  0.00    -0.321 C  
BRANCH   5   6
HETATM    6  N   UNL     1      -9.092  14.050  66.065  1.00  0.00    -0.476 N  
HETATM    7  C   UNL     1      -9.696  13.075  66.835  1.00  0.00    -0.238 C  
HETATM    8  H   UNL     1      -8.096  13.975  65.860  1.00  0.00     0.000 HD 
HETATM    9  O   UNL     1     -10.891  13.081  67.109  1.00  0.00    -0.255 OA 
BRANCH   7  10
HETATM   10  C   UNL     1      -8.800  12.016  67.386  1.00  0.00    -0.178 A  
HETATM   11  C   UNL     1      -7.745  11.552  66.591  1.00  0.00    -0.101 A  
HETATM   12  C   UNL     1      -6.926  10.508  67.041  1.00  0.00    -0.089 A  
HETATM   13  C   UNL     1      -7.128   9.913  68.294  1.00  0.00    -0.076 A  
HETATM   14  C   UNL     1      -8.986  11.464  68.659  1.00  0.00    -0.133 A  
HETATM   15  C   UNL     1      -8.164  10.416  69.100  1.00  0.00    -0.157 A  
BRANCH  13  16
HETATM   16  N   UNL     1      -6.328   8.800  68.637  1.00  0.00    -0.053 NA 
HETATM   17  H   UNL     1      -5.337   8.726  68.408  1.00  0.00     0.000 HD 
BRANCH  16  18
HETATM   18  N   UNL     1      -6.962   7.917  69.252  1.00  0.00    -0.055 NA 
HETATM   19  H   UNL     1      -7.247   8.002  70.228  1.00  0.00     0.000 HD 
BRANCH  18  20
HETATM   20  C   UNL     1      -7.243   6.787  68.451  1.00  0.00    -0.085 A  
HETATM   21  C   UNL     1      -6.296   5.798  68.145  1.00  0.00    -0.041 A  
HETATM   22  C   UNL     1      -6.604   4.743  67.278  1.00  0.00    -0.050 A  
HETATM   23  C   UNL     1      -7.869   4.674  66.695  1.00  0.00    -0.099 A  
HETATM   24  O   UNL     1      -8.152   3.652  65.826  1.00  0.00    -0.092 OA 
HETATM   25  C   UNL     1      -8.838   5.644  66.982  1.00  0.00    -0.111 A  
HETATM   26  C   UNL     1     -10.210   5.652  66.397  1.00  0.00    -0.171 C  
HETATM   27  C   UNL     1      -8.510   6.694  67.861  1.00  0.00    -0.119 A  
HETATM   28  H   UNL     1      -9.013   3.606  65.429  1.00  0.00     0.000 HD 
HETATM   29  O   UNL     1     -11.036   6.509  66.675  1.00  0.00    -0.293 OA 
HETATM   30  O   UNL     1     -10.480   4.651  65.532  1.00  0.00    -0.248 OA 
ENDBRANCH  18  20
ENDBRANCH  16  18
ENDBRANCH  13  16
ENDBRANCH   7  10
ENDBRANCH   5   6
ENDBRANCH   4   5
TORSDOF 6
ENDMDL
MODEL      313
REMARK 921   NORMALIZED FREE ENERGY PREDICTED BY IDOCK:   -3.30 KCAL/MOL
REMARK 922        TOTAL FREE ENERGY PREDICTED BY IDOCK:   -5.44 KCAL/MOL
REMARK 923 INTER-LIGAND FREE ENERGY PREDICTED BY IDOCK:   -4.88 KCAL/MOL
REMARK 924 INTRA-LIGAND FREE ENERGY PREDICTED BY IDOCK:   -0.56 KCAL/MOL
REMARK 927      BINDING AFFINITY PREDICTED BY RF-SCORE:    0.00 PKD
ROOT
HETATM    1  O   UNL     1     -14.411  14.641  72.442  1.00  0.00    -0.447 OA 
HETATM    2  C   UNL     1     -13.136  14.200  72.500  1.00  0.00    -0.463 C  
HETATM    3  O   UNL     1     -12.206  14.919  72.837  1.00  0.00    -0.329 OA 
HETATM    4  C   UNL     1     -12.967  12.756  72.115  1.00  0.00    -0.344 C  
ENDROOT
BRANCH   4   5
HETATM    5  C   UNL     1     -12.772  12.605  70.616  1.00  0.00    -0.062 C  
BRANCH   5   6
HETATM    6  N   UNL     1     -11.652  11.750  70.279  1.00  0.00    -0.517 N  
HETATM    7  C   UNL     1     -11.289  11.517  68.966  1.00  0.00    -0.276 C  
HETATM    8  H   UNL     1     -11.118  11.311  71.029  1.00  0.00     0.000 HD 
HETATM    9  O   UNL     1     -11.866  12.023  68.011  1.00  0.00    -0.428 OA 
BRANCH   7  10
HETATM   10  C   UNL     1     -10.173  10.549  68.750  1.00  0.00    -0.205 A  
HETATM   11  C   UNL     1     -10.447   9.350  68.083  1.00  0.00    -0.267 A  
HETATM   12  C   UNL     1      -9.445   8.383  67.924  1.00  0.00    -0.164 A  
HETATM   13  C   UNL     1      -8.148   8.594  68.411  1.00  0.00    -0.118 A  
HETATM   14  C   UNL     1      -8.871  10.794  69.201  1.00  0.00    -0.098 A  
HETATM   15  C   UNL     1      -7.874   9.818  69.043  1.00  0.00    -0.087 A  
BRANCH  13  16
HETATM   16  N   UNL     1      -7.218   7.534  68.304  1.00  0.00    -0.091 NA 
HETATM   17  H   UNL     1      -7.007   6.890  69.066  1.00  0.00     0.000 HD 
BRANCH  16  18
HETATM   18  N   UNL     1      -6.683   7.470  67.178  1.00  0.00    -0.065 NA 
HETATM   19  H   UNL     1      -5.901   8.059  66.890  1.00  0.00     0.000 HD 
BRANCH  18  20
HETATM   20  C   UNL     1      -7.274   6.494  66.345  1.00  0.00    -0.073 A  
HETATM   21  C   UNL     1      -7.655   6.735  65.016  1.00  0.00    -0.100 A  
HETATM   22  C   UNL     1      -8.314   5.758  64.262  1.00  0.00    -0.059 A  
HETATM   23  C   UNL     1      -8.611   4.524  64.839  1.00  0.00    -0.135 A  
HETATM   24  O   UNL     1      -9.280   3.582  64.100  1.00  0.00    -0.118 OA 
HETATM   25  C   UNL     1      -8.241   4.249  66.162  1.00  0.00    -0.105 A  
HETATM   26  C   UNL     1      -8.526   2.962  66.859  1.00  0.00    -0.099 C  
HETATM   27  C   UNL     1      -7.574   5.245  66.901  1.00  0.00    -0.088 A  
HETATM   28  H   UNL     1      -9.483   2.741  64.493  1.00  0.00     0.000 HD 
HETATM   29  O   UNL     1      -8.182   2.751  68.013  1.00  0.00    -0.071 OA 
HETATM   30  O   UNL     1      -9.197   2.042  66.132  1.00  0.00    -0.078 OA 
ENDBRANCH  18  20
ENDBRANCH  16  18
ENDBRANCH  13  16
ENDBRANCH   7  10
ENDBRANCH   5   6
ENDBRANCH   4   5
TORSDOF 6
ENDMDL
MODEL      314
REMARK 921   NORMALIZED FREE ENERGY PREDICTED BY IDOCK:   -3.29 KCAL/MOL
REMARK 922        TOTAL FREE ENERGY PREDICTED BY IDOCK:   -5.44 KCAL/MOL
REMARK 923 INTER-LIGAND FREE ENERGY PREDICTED BY IDOCK:   -4.62 KCAL/MOL
REMARK 924 INTRA-LIGAND FREE ENERGY PREDICTED BY IDOCK:   -0.81 KCAL/MOL
REMARK 927      BINDING AFFINITY PREDICTED BY RF-SCORE:    0.00 PKD
ROOT
HETATM    1  O   UNL     1     -11.260  15.965  68.160  1.00  0.00    -0.338 OA 
HETATM    2  C   UNL     1     -11.647  14.720  67.806  1.00  0.00    -0.357 C  
HETATM    3  O   UNL     1     -11.661  13.786  68.596  1.00  0.00    -0.287 OA 
HETATM    4  C   UNL     1     -12.056  14.590  66.365  1.00  0.00    -0.320 C  
ENDROOT
BRANCH   4   5
HETATM    5  C   UNL     1     -10.860  14.287  65.478  1.00  0.00    -0.322 C  
BRANCH   5   6
HETATM    6  N   UNL     1     -10.068  13.176  65.965  1.00  0.00    -0.282 N  
HETATM    7  C   UNL     1     -10.575  11.892  66.015  1.00  0.00    -0.265 C  
HETATM    8  H   UNL     1      -9.112  13.346  66.278  1.00  0.00     0.000 HD 
HETATM    9  O   UNL     1     -11.705  11.602  65.638  1.00  0.00    -0.269 OA 
BRANCH   7  10
HETATM   10  C   UNL     1      -9.689  10.852  66.618  1.00  0.00    -0.222 A  
HETATM   11  C   UNL     1      -8.464  10.577  66.000  1.00  0.00    -0.157 A  
HETATM   12  C   UNL     1      -7.636   9.559  66.491  1.00  0.00    -0.094 A  
HETATM   13  C   UNL     1      -8.000   8.803  67.613  1.00  0.00    -0.106 A  
HETATM   14  C   UNL     1     -10.046  10.139  67.768  1.00  0.00    -0.216 A  
HETATM   15  C   UNL     1      -9.213   9.117  68.250  1.00  0.00    -0.135 A  
BRANCH  13  16
HETATM   16  N   UNL     1      -7.165   7.728  67.990  1.00  0.00    -0.085 NA 
HETATM   17  H   UNL     1      -6.147   7.755  67.926  1.00  0.00     0.000 HD 
BRANCH  16  18
HETATM   18  N   UNL     1      -7.804   6.740  68.409  1.00  0.00    -0.112 NA 
HETATM   19  H   UNL     1      -8.400   6.763  69.236  1.00  0.00     0.000 HD 
BRANCH  18  20
HETATM   20  C   UNL     1      -7.611   5.586  67.617  1.00  0.00    -0.088 A  
HETATM   21  C   UNL     1      -6.394   4.894  67.535  1.00  0.00    -0.040 A  
HETATM   22  C   UNL     1      -6.234   3.806  66.669  1.00  0.00    -0.032 A  
HETATM   23  C   UNL     1      -7.296   3.406  65.860  1.00  0.00    -0.072 A  
HETATM   24  O   UNL     1      -7.122   2.356  64.996  1.00  0.00    -0.053 OA 
HETATM   25  C   UNL     1      -8.527   4.073  65.919  1.00  0.00    -0.109 A  
HETATM   26  C   UNL     1      -9.711   3.717  65.085  1.00  0.00    -0.176 C  
HETATM   27  C   UNL     1      -8.668   5.162  66.801  1.00  0.00    -0.108 A  
HETATM   28  H   UNL     1      -7.846   2.083  64.444  1.00  0.00     0.000 HD 
HETATM   29  O   UNL     1     -10.773   4.316  65.166  1.00  0.00    -0.251 OA 
HETATM   30  O   UNL     1      -9.530   2.691  64.226  1.00  0.00    -0.128 OA 
ENDBRANCH  18  20
ENDBRANCH  16  18
ENDBRANCH  13  16
ENDBRANCH   7  10
ENDBRANCH   5   6
ENDBRANCH   4   5
TORSDOF 6
ENDMDL
MODEL      315
REMARK 921   NORMALIZED FREE ENERGY PREDICTED BY IDOCK:   -3.29 KCAL/MOL
REMARK 922        TOTAL FREE ENERGY PREDICTED BY IDOCK:   -5.43 KCAL/MOL
REMARK 923 INTER-LIGAND FREE ENERGY PREDICTED BY IDOCK:   -4.28 KCAL/MOL
REMARK 924 INTRA-LIGAND FREE ENERGY PREDICTED BY IDOCK:   -1.15 KCAL/MOL
REMARK 927      BINDING AFFINITY PREDICTED BY RF-SCORE:    0.00 PKD
ROOT
HETATM    1  O   UNL     1     -11.841  11.792  70.422  1.00  0.00    -0.343 OA 
HETATM    2  C   UNL     1     -11.902  12.282  69.165  1.00  0.00    -0.301 C  
HETATM    3  O   UNL     1     -12.112  11.572  68.192  1.00  0.00    -0.604 OA 
HETATM    4  C   UNL     1     -11.691  13.768  69.074  1.00  0.00    -0.372 C  
ENDROOT
BRANCH   4   5
HETATM    5  C   UNL     1     -10.216  14.109  68.953  1.00  0.00    -0.175 C  
BRANCH   5   6
HETATM    6  N   UNL     1      -9.377  12.934  68.830  1.00  0.00    -0.410 N  
HETATM    7  C   UNL     1      -8.398  12.842  67.859  1.00  0.00    -0.172 C  
HETATM    8  H   UNL     1      -9.511  12.157  69.477  1.00  0.00     0.000 HD 
HETATM    9  O   UNL     1      -8.161  13.739  67.058  1.00  0.00    -0.144 OA 
BRANCH   7  10
HETATM   10  C   UNL     1      -7.662  11.546  67.782  1.00  0.00    -0.124 A  
HETATM   11  C   UNL     1      -7.499  10.941  66.530  1.00  0.00    -0.142 A  
HETATM   12  C   UNL     1      -6.878   9.689  66.424  1.00  0.00    -0.084 A  
HETATM   13  C   UNL     1      -6.394   9.020  67.555  1.00  0.00    -0.063 A  
HETATM   14  C   UNL     1      -7.142  10.911  68.917  1.00  0.00    -0.090 A  
HETATM   15  C   UNL     1      -6.526   9.655  68.801  1.00  0.00    -0.047 A  
BRANCH  13  16
HETATM   16  N   UNL     1      -5.871   7.718  67.383  1.00  0.00    -0.036 NA 
HETATM   17  H   UNL     1      -5.363   7.214  68.110  1.00  0.00     0.000 HD 
BRANCH  16  18
HETATM   18  N   UNL     1      -6.098   7.249  66.248  1.00  0.00    -0.036 NA 
HETATM   19  H   UNL     1      -5.621   7.563  65.402  1.00  0.00     0.000 HD 
BRANCH  18  20
HETATM   20  C   UNL     1      -7.085   6.238  66.260  1.00  0.00    -0.068 A  
HETATM   21  C   UNL     1      -8.392   6.424  65.786  1.00  0.00    -0.146 A  
HETATM   22  C   UNL     1      -9.355   5.414  65.898  1.00  0.00    -0.155 A  
HETATM   23  C   UNL     1      -9.019   4.204  66.502  1.00  0.00    -0.125 A  
HETATM   24  O   UNL     1      -9.976   3.230  66.632  1.00  0.00    -0.367 OA 
HETATM   25  C   UNL     1      -7.721   3.984  66.983  1.00  0.00    -0.085 A  
HETATM   26  C   UNL     1      -7.279   2.725  67.649  1.00  0.00    -0.053 C  
HETATM   27  C   UNL     1      -6.766   5.012  66.855  1.00  0.00    -0.055 A  
HETATM   28  H   UNL     1      -9.747   2.405  67.044  1.00  0.00     0.000 HD 
HETATM   29  O   UNL     1      -6.136   2.563  68.050  1.00  0.00    -0.023 OA 
HETATM   30  O   UNL     1      -8.228   1.775  67.786  1.00  0.00    -0.062 OA 
ENDBRANCH  18  20
ENDBRANCH  16  18
ENDBRANCH  13  16
ENDBRANCH   7  10
ENDBRANCH   5   6
ENDBRANCH   4   5
TORSDOF 6
ENDMDL
MODEL      316
REMARK 921   NORMALIZED FREE ENERGY PREDICTED BY IDOCK:   -3.28 KCAL/MOL
REMARK 922        TOTAL FREE ENERGY PREDICTED BY IDOCK:   -5.42 KCAL/MOL
REMARK 923 INTER-LIGAND FREE ENERGY PREDICTED BY IDOCK:   -5.00 KCAL/MOL
REMARK 924 INTRA-LIGAND FREE ENERGY PREDICTED BY IDOCK:   -0.41 KCAL/MOL
REMARK 927      BINDING AFFINITY PREDICTED BY RF-SCORE:    0.00 PKD
ROOT
HETATM    1  O   UNL     1     -14.411  14.641  72.442  1.00  0.00    -0.447 OA 
HETATM    2  C   UNL     1     -13.136  14.200  72.500  1.00  0.00    -0.463 C  
HETATM    3  O   UNL     1     -12.206  14.919  72.837  1.00  0.00    -0.329 OA 
HETATM    4  C   UNL     1     -12.967  12.756  72.115  1.00  0.00    -0.344 C  
ENDROOT
BRANCH   4   5
HETATM    5  C   UNL     1     -12.772  12.605  70.616  1.00  0.00    -0.062 C  
BRANCH   5   6
HETATM    6  N   UNL     1     -11.652  11.750  70.279  1.00  0.00    -0.517 N  
HETATM    7  C   UNL     1     -11.481  11.251  69.002  1.00  0.00    -0.302 C  
HETATM    8  H   UNL     1     -10.973  11.512  71.002  1.00  0.00     0.000 HD 
HETATM    9  O   UNL     1     -12.240  11.507  68.075  1.00  0.00    -0.582 OA 
BRANCH   7  10
HETATM   10  C   UNL     1     -10.336  10.313  68.806  1.00  0.00    -0.211 A  
HETATM   11  C   UNL     1     -10.612   8.984  68.461  1.00  0.00    -0.196 A  
HETATM   12  C   UNL     1      -9.571   8.054  68.339  1.00  0.00    -0.157 A  
HETATM   13  C   UNL     1      -8.235   8.427  68.543  1.00  0.00    -0.124 A  
HETATM   14  C   UNL     1      -9.005  10.712  68.966  1.00  0.00    -0.165 A  
HETATM   15  C   UNL     1      -7.968   9.772  68.848  1.00  0.00    -0.092 A  
BRANCH  13  16
HETATM   16  N   UNL     1      -7.250   7.415  68.503  1.00  0.00    -0.084 NA 
HETATM   17  H   UNL     1      -6.271   7.571  68.743  1.00  0.00     0.000 HD 
BRANCH  16  18
HETATM   18  N   UNL     1      -7.703   6.309  68.142  1.00  0.00    -0.102 NA 
HETATM   19  H   UNL     1      -7.867   6.057  67.167  1.00  0.00     0.000 HD 
BRANCH  18  20
HETATM   20  C   UNL     1      -7.966   5.443  69.227  1.00  0.00    -0.093 A  
HETATM   21  C   UNL     1      -9.156   4.712  69.367  1.00  0.00    -0.159 A  
HETATM   22  C   UNL     1      -9.400   3.935  70.504  1.00  0.00    -0.224 A  
HETATM   23  C   UNL     1      -8.453   3.891  71.527  1.00  0.00    -0.085 A  
HETATM   24  O   UNL     1      -8.713   3.147  72.649  1.00  0.00    -0.082 OA 
HETATM   25  C   UNL     1      -7.253   4.607  71.417  1.00  0.00    -0.056 A  
HETATM   26  C   UNL     1      -6.193   4.623  72.466  1.00  0.00    -0.021 C  
HETATM   27  C   UNL     1      -7.026   5.378  70.262  1.00  0.00    -0.060 A  
HETATM   28  H   UNL     1      -8.068   3.118  73.347  1.00  0.00     0.000 HD 
HETATM   29  O   UNL     1      -5.153   5.252  72.335  1.00  0.00    -0.008 OA 
HETATM   30  O   UNL     1      -6.458   3.900  73.575  1.00  0.00    -0.036 OA 
ENDBRANCH  18  20
ENDBRANCH  16  18
ENDBRANCH  13  16
ENDBRANCH   7  10
ENDBRANCH   5   6
ENDBRANCH   4   5
TORSDOF 6
ENDMDL
MODEL      317
REMARK 921   NORMALIZED FREE ENERGY PREDICTED BY IDOCK:   -3.27 KCAL/MOL
REMARK 922        TOTAL FREE ENERGY PREDICTED BY IDOCK:   -5.41 KCAL/MOL
REMARK 923 INTER-LIGAND FREE ENERGY PREDICTED BY IDOCK:   -4.78 KCAL/MOL
REMARK 924 INTRA-LIGAND FREE ENERGY PREDICTED BY IDOCK:   -0.63 KCAL/MOL
REMARK 927      BINDING AFFINITY PREDICTED BY RF-SCORE:    0.00 PKD
ROOT
HETATM    1  O   UNL     1      -9.886   3.156  70.712  1.00  0.00    -0.139 OA 
HETATM    2  C   UNL     1      -8.649   2.620  70.785  1.00  0.00    -0.060 C  
HETATM    3  O   UNL     1      -8.171   2.208  71.832  1.00  0.00    -0.051 OA 
HETATM    4  C   UNL     1      -7.920   2.578  69.470  1.00  0.00    -0.053 C  
ENDROOT
BRANCH   4   5
HETATM    5  C   UNL     1      -7.162   3.869  69.219  1.00  0.00    -0.053 C  
BRANCH   5   6
HETATM    6  N   UNL     1      -8.037   5.007  69.023  1.00  0.00    -0.083 N  
HETATM    7  C   UNL     1      -7.940   5.811  67.904  1.00  0.00    -0.098 C  
HETATM    8  H   UNL     1      -8.743   5.218  69.728  1.00  0.00     0.000 HD 
HETATM    9  O   UNL     1      -7.134   5.612  67.003  1.00  0.00    -0.067 OA 
BRANCH   7  10
HETATM   10  C   UNL     1      -8.841   7.001  67.864  1.00  0.00    -0.124 A  
HETATM   11  C   UNL     1      -9.400   7.458  69.063  1.00  0.00    -0.145 A  
HETATM   12  C   UNL     1     -10.308   8.526  69.059  1.00  0.00    -0.229 A  
HETATM   13  C   UNL     1     -10.668   9.170  67.867  1.00  0.00    -0.162 A  
HETATM   14  C   UNL     1      -9.154   7.663  66.671  1.00  0.00    -0.198 A  
HETATM   15  C   UNL     1     -10.069   8.728  66.675  1.00  0.00    -0.358 A  
BRANCH  13  16
HETATM   16  N   UNL     1     -11.664  10.170  67.928  1.00  0.00    -0.537 NA 
HETATM   17  H   UNL     1     -12.490  10.181  67.328  1.00  0.00     0.000 HD 
BRANCH  16  18
HETATM   18  N   UNL     1     -11.428  11.039  68.793  1.00  0.00    -0.279 NA 
HETATM   19  H   UNL     1     -11.805  11.010  69.740  1.00  0.00     0.000 HD 
BRANCH  18  20
HETATM   20  C   UNL     1     -10.585  12.069  68.319  1.00  0.00    -0.212 A  
HETATM   21  C   UNL     1     -11.057  13.299  67.836  1.00  0.00    -0.287 A  
HETATM   22  C   UNL     1     -10.183  14.252  67.300  1.00  0.00    -0.252 A  
HETATM   23  C   UNL     1      -8.818  13.975  67.230  1.00  0.00    -0.218 A  
HETATM   24  O   UNL     1      -7.974  14.904  66.679  1.00  0.00    -0.332 OA 
HETATM   25  C   UNL     1      -8.314  12.758  67.707  1.00  0.00    -0.177 A  
HETATM   26  C   UNL     1      -6.872  12.377  67.663  1.00  0.00    -0.132 C  
HETATM   27  C   UNL     1      -9.210  11.816  68.247  1.00  0.00    -0.188 A  
HETATM   28  H   UNL     1      -7.043  14.715  66.631  1.00  0.00     0.000 HD 
HETATM   29  O   UNL     1      -6.464  11.309  68.095  1.00  0.00    -0.056 OA 
HETATM   30  O   UNL     1      -6.046  13.289  67.108  1.00  0.00    -0.288 OA 
ENDBRANCH  18  20
ENDBRANCH  16  18
ENDBRANCH  13  16
ENDBRANCH   7  10
ENDBRANCH   5   6
ENDBRANCH   4   5
TORSDOF 6
ENDMDL
MODEL      318
REMARK 921   NORMALIZED FREE ENERGY PREDICTED BY IDOCK:   -3.26 KCAL/MOL
REMARK 922        TOTAL FREE ENERGY PREDICTED BY IDOCK:   -5.39 KCAL/MOL
REMARK 923 INTER-LIGAND FREE ENERGY PREDICTED BY IDOCK:   -4.56 KCAL/MOL
REMARK 924 INTRA-LIGAND FREE ENERGY PREDICTED BY IDOCK:   -0.82 KCAL/MOL
REMARK 927      BINDING AFFINITY PREDICTED BY RF-SCORE:    0.00 PKD
ROOT
HETATM    1  O   UNL     1     -11.739  16.046  68.489  1.00  0.00    -0.375 OA 
HETATM    2  C   UNL     1     -11.787  14.700  68.404  1.00  0.00    -0.295 C  
HETATM    3  O   UNL     1     -11.551  13.971  69.358  1.00  0.00    -0.261 OA 
HETATM    4  C   UNL     1     -12.155  14.183  67.041  1.00  0.00    -0.449 C  
ENDROOT
BRANCH   4   5
HETATM    5  C   UNL     1     -10.927  14.024  66.162  1.00  0.00    -0.295 C  
BRANCH   5   6
HETATM    6  N   UNL     1     -10.250  12.759  66.364  1.00  0.00    -0.249 N  
HETATM    7  C   UNL     1      -9.023  12.687  66.994  1.00  0.00    -0.216 C  
HETATM    8  H   UNL     1     -10.692  11.901  66.034  1.00  0.00     0.000 HD 
HETATM    9  O   UNL     1      -8.437  13.669  67.437  1.00  0.00    -0.180 OA 
BRANCH   7  10
HETATM   10  C   UNL     1      -8.392  11.336  67.063  1.00  0.00    -0.153 A  
HETATM   11  C   UNL     1      -7.463  10.980  66.078  1.00  0.00    -0.032 A  
HETATM   12  C   UNL     1      -6.902   9.696  66.064  1.00  0.00    -0.088 A  
HETATM   13  C   UNL     1      -7.242   8.744  67.034  1.00  0.00    -0.079 A  
HETATM   14  C   UNL     1      -8.707  10.412  68.066  1.00  0.00    -0.123 A  
HETATM   15  C   UNL     1      -8.145   9.126  68.041  1.00  0.00    -0.105 A  
BRANCH  13  16
HETATM   16  N   UNL     1      -6.716   7.439  66.898  1.00  0.00    -0.063 NA 
HETATM   17  H   UNL     1      -5.935   7.208  66.283  1.00  0.00     0.000 HD 
BRANCH  16  18
HETATM   18  N   UNL     1      -7.306   6.600  67.610  1.00  0.00    -0.093 NA 
HETATM   19  H   UNL     1      -7.148   6.499  68.612  1.00  0.00     0.000 HD 
BRANCH  18  20
HETATM   20  C   UNL     1      -8.216   5.804  66.878  1.00  0.00    -0.101 A  
HETATM   21  C   UNL     1      -9.275   5.095  67.466  1.00  0.00    -0.124 A  
HETATM   22  C   UNL     1     -10.095   4.254  66.706  1.00  0.00    -0.116 A  
HETATM   23  C   UNL     1      -9.854   4.104  65.341  1.00  0.00    -0.208 A  
HETATM   24  O   UNL     1     -10.647   3.257  64.610  1.00  0.00    -0.426 OA 
HETATM   25  C   UNL     1      -8.808   4.800  64.722  1.00  0.00    -0.153 A  
HETATM   26  C   UNL     1      -8.476   4.691  63.272  1.00  0.00    -0.113 C  
HETATM   27  C   UNL     1      -7.998   5.645  65.504  1.00  0.00    -0.113 A  
HETATM   28  H   UNL     1     -10.483   3.154  63.680  1.00  0.00     0.000 HD 
HETATM   29  O   UNL     1      -7.559   5.319  62.761  1.00  0.00    -0.056 OA 
HETATM   30  O   UNL     1      -9.250   3.846  62.559  1.00  0.00    -0.095 OA 
ENDBRANCH  18  20
ENDBRANCH  16  18
ENDBRANCH  13  16
ENDBRANCH   7  10
ENDBRANCH   5   6
ENDBRANCH   4   5
TORSDOF 6
ENDMDL
MODEL      319
REMARK 921   NORMALIZED FREE ENERGY PREDICTED BY IDOCK:   -3.10 KCAL/MOL
REMARK 922        TOTAL FREE ENERGY PREDICTED BY IDOCK:   -5.18 KCAL/MOL
REMARK 923 INTER-LIGAND FREE ENERGY PREDICTED BY IDOCK:   -4.26 KCAL/MOL
REMARK 924 INTRA-LIGAND FREE ENERGY PREDICTED BY IDOCK:   -0.92 KCAL/MOL
REMARK 927      BINDING AFFINITY PREDICTED BY RF-SCORE:    0.00 PKD
ROOT
HETATM    1  O   UNL     1      -6.983   7.476  64.617  1.00  0.00    -0.049 OA 
HETATM    2  C   UNL     1      -7.307   6.380  63.899  1.00  0.00    -0.070 C  
HETATM    3  O   UNL     1      -8.258   6.355  63.130  1.00  0.00    -0.082 OA 
HETATM    4  C   UNL     1      -6.399   5.204  64.130  1.00  0.00    -0.022 C  
ENDROOT
BRANCH   4   5
HETATM    5  C   UNL     1      -6.872   4.365  65.305  1.00  0.00    -0.057 C  
BRANCH   5   6
HETATM    6  N   UNL     1      -7.254   5.167  66.449  1.00  0.00    -0.076 N  
HETATM    7  C   UNL     1      -6.368   5.436  67.474  1.00  0.00    -0.039 C  
HETATM    8  H   UNL     1      -8.201   5.543  66.499  1.00  0.00     0.000 HD 
HETATM    9  O   UNL     1      -5.208   5.038  67.479  1.00  0.00    -0.007 OA 
BRANCH   7  10
HETATM   10  C   UNL     1      -6.911   6.199  68.637  1.00  0.00    -0.070 A  
HETATM   11  C   UNL     1      -7.169   7.565  68.478  1.00  0.00    -0.090 A  
HETATM   12  C   UNL     1      -7.610   8.334  69.564  1.00  0.00    -0.095 A  
HETATM   13  C   UNL     1      -7.816   7.758  70.825  1.00  0.00    -0.099 A  
HETATM   14  C   UNL     1      -7.156   5.600  69.878  1.00  0.00    -0.067 A  
HETATM   15  C   UNL     1      -7.592   6.378  70.961  1.00  0.00    -0.090 A  
BRANCH  13  16
HETATM   16  N   UNL     1      -8.162   8.613  71.896  1.00  0.00    -0.281 NA 
HETATM   17  H   UNL     1      -7.952   9.611  71.912  1.00  0.00     0.000 HD 
BRANCH  16  18
HETATM   18  N   UNL     1      -8.753   8.018  72.821  1.00  0.00    -0.181 NA 
HETATM   19  H   UNL     1      -8.299   7.731  73.689  1.00  0.00     0.000 HD 
BRANCH  18  20
HETATM   20  C   UNL     1     -10.117   7.782  72.539  1.00  0.00    -0.242 A  
HETATM   21  C   UNL     1     -10.728   6.525  72.656  1.00  0.00    -0.260 A  
HETATM   22  C   UNL     1     -12.063   6.329  72.282  1.00  0.00    -0.255 A  
HETATM   23  C   UNL     1     -12.800   7.397  71.772  1.00  0.00    -0.329 A  
HETATM   24  O   UNL     1     -14.099   7.189  71.384  1.00  0.00    -0.390 OA 
HETATM   25  C   UNL     1     -12.221   8.666  71.645  1.00  0.00    -0.388 A  
HETATM   26  C   UNL     1     -12.934   9.858  71.102  1.00  0.00    -0.369 C  
HETATM   27  C   UNL     1     -10.878   8.842  72.032  1.00  0.00    -0.428 A  
HETATM   28  H   UNL     1     -14.602   7.917  71.036  1.00  0.00     0.000 HD 
HETATM   29  O   UNL     1     -12.401  10.955  71.012  1.00  0.00    -0.347 OA 
HETATM   30  O   UNL     1     -14.208   9.646  70.709  1.00  0.00     0.125 OA 
ENDBRANCH  18  20
ENDBRANCH  16  18
ENDBRANCH  13  16
ENDBRANCH   7  10
ENDBRANCH   5   6
ENDBRANCH   4   5
TORSDOF 6
ENDMDL
MODEL      320
REMARK 921   NORMALIZED FREE ENERGY PREDICTED BY IDOCK:   -3.06 KCAL/MOL
REMARK 922        TOTAL FREE ENERGY PREDICTED BY IDOCK:   -5.12 KCAL/MOL
REMARK 923 INTER-LIGAND FREE ENERGY PREDICTED BY IDOCK:   -4.45 KCAL/MOL
REMARK 924 INTRA-LIGAND FREE ENERGY PREDICTED BY IDOCK:   -0.67 KCAL/MOL
REMARK 927      BINDING AFFINITY PREDICTED BY RF-SCORE:    0.00 PKD
ROOT
HETATM    1  O   UNL     1     -11.823  15.558  69.321  1.00  0.00    -0.334 OA 
HETATM    2  C   UNL     1     -12.025  14.430  68.606  1.00  0.00    -0.297 C  
HETATM    3  O   UNL     1     -12.288  13.357  69.130  1.00  0.00    -0.224 OA 
HETATM    4  C   UNL     1     -11.900  14.615  67.119  1.00  0.00    -0.367 C  
ENDROOT
BRANCH   4   5
HETATM    5  C   UNL     1     -10.462  14.443  66.662  1.00  0.00    -0.274 C  
BRANCH   5   6
HETATM    6  N   UNL     1      -9.952  13.109  66.901  1.00  0.00    -0.240 N  
HETATM    7  C   UNL     1      -9.035  12.853  67.903  1.00  0.00    -0.193 C  
HETATM    8  H   UNL     1     -10.278  12.339  66.317  1.00  0.00     0.000 HD 
HETATM    9  O   UNL     1      -8.610  13.718  68.661  1.00  0.00    -0.148 OA 
BRANCH   7  10
HETATM   10  C   UNL     1      -8.522  11.453  67.990  1.00  0.00    -0.145 A  
HETATM   11  C   UNL     1      -9.255  10.433  67.373  1.00  0.00    -0.154 A  
HETATM   12  C   UNL     1      -8.848   9.097  67.493  1.00  0.00    -0.124 A  
HETATM   13  C   UNL     1      -7.699   8.749  68.216  1.00  0.00    -0.100 A  
HETATM   14  C   UNL     1      -7.346  11.127  68.676  1.00  0.00    -0.110 A  
HETATM   15  C   UNL     1      -6.949   9.786  68.796  1.00  0.00    -0.066 A  
BRANCH  13  16
HETATM   16  N   UNL     1      -7.407   7.376  68.379  1.00  0.00    -0.100 NA 
HETATM   17  H   UNL     1      -7.635   6.665  67.684  1.00  0.00     0.000 HD 
BRANCH  16  18
HETATM   18  N   UNL     1      -6.841   7.125  69.463  1.00  0.00    -0.049 NA 
HETATM   19  H   UNL     1      -5.830   7.162  69.594  1.00  0.00     0.000 HD 
BRANCH  18  20
HETATM   20  C   UNL     1      -7.749   6.783  70.490  1.00  0.00    -0.104 A  
HETATM   21  C   UNL     1      -7.354   6.316  71.753  1.00  0.00    -0.093 A  
HETATM   22  C   UNL     1      -8.297   5.911  72.704  1.00  0.00    -0.119 A  
HETATM   23  C   UNL     1      -9.656   5.959  72.394  1.00  0.00    -0.155 A  
HETATM   24  O   UNL     1     -10.570   5.535  73.323  1.00  0.00    -0.212 OA 
HETATM   25  C   UNL     1     -10.084   6.423  71.143  1.00  0.00    -0.213 A  
HETATM   26  C   UNL     1     -11.514   6.498  70.726  1.00  0.00    -0.360 C  
HETATM   27  C   UNL     1      -9.119   6.830  70.202  1.00  0.00    -0.155 A  
HETATM   28  H   UNL     1     -11.496   5.567  73.111  1.00  0.00     0.000 HD 
HETATM   29  O   UNL     1     -11.855   6.916  69.629  1.00  0.00    -0.099 OA 
HETATM   30  O   UNL     1     -12.410   6.068  71.639  1.00  0.00    -0.013 OA 
ENDBRANCH  18  20
ENDBRANCH  16  18
ENDBRANCH  13  16
ENDBRANCH   7  10
ENDBRANCH   5   6
ENDBRANCH   4   5
TORSDOF 6
ENDMDL
MODEL      321
REMARK 921   NORMALIZED FREE ENERGY PREDICTED BY IDOCK:   -2.95 KCAL/MOL
REMARK 922        TOTAL FREE ENERGY PREDICTED BY IDOCK:   -4.98 KCAL/MOL
REMARK 923 INTER-LIGAND FREE ENERGY PREDICTED BY IDOCK:   -3.88 KCAL/MOL
REMARK 924 INTRA-LIGAND FREE ENERGY PREDICTED BY IDOCK:   -1.09 KCAL/MOL
REMARK 927      BINDING AFFINITY PREDICTED BY RF-SCORE:    0.00 PKD
ROOT
HETATM    1  O   UNL     1     -11.253  15.709  68.105  1.00  0.00    -0.321 OA 
HETATM    2  C   UNL     1     -11.471  14.481  67.587  1.00  0.00    -0.353 C  
HETATM    3  O   UNL     1     -11.777  13.520  68.279  1.00  0.00    -0.318 OA 
HETATM    4  C   UNL     1     -11.305  14.405  66.095  1.00  0.00    -0.350 C  
ENDROOT
BRANCH   4   5
HETATM    5  C   UNL     1      -9.863  14.123  65.714  1.00  0.00    -0.271 C  
BRANCH   5   6
HETATM    6  N   UNL     1      -9.470  12.754  65.979  1.00  0.00    -0.427 N  
HETATM    7  C   UNL     1      -8.545  12.443  66.958  1.00  0.00    -0.191 C  
HETATM    8  H   UNL     1      -9.886  12.001  65.431  1.00  0.00     0.000 HD 
HETATM    9  O   UNL     1      -8.016  13.286  67.673  1.00  0.00    -0.148 OA 
BRANCH   7  10
HETATM   10  C   UNL     1      -8.161  11.005  67.073  1.00  0.00    -0.136 A  
HETATM   11  C   UNL     1      -9.142  10.077  67.441  1.00  0.00    -0.146 A  
HETATM   12  C   UNL     1      -8.808   8.730  67.631  1.00  0.00    -0.138 A  
HETATM   13  C   UNL     1      -7.495   8.274  67.447  1.00  0.00    -0.094 A  
HETATM   14  C   UNL     1      -6.855  10.557  66.839  1.00  0.00    -0.091 A  
HETATM   15  C   UNL     1      -6.528   9.207  67.038  1.00  0.00    -0.064 A  
BRANCH  13  16
HETATM   16  N   UNL     1      -7.212   6.924  67.755  1.00  0.00    -0.088 NA 
HETATM   17  H   UNL     1      -7.796   6.143  67.456  1.00  0.00     0.000 HD 
BRANCH  16  18
HETATM   18  N   UNL     1      -6.171   6.788  68.432  1.00  0.00    -0.029 NA 
HETATM   19  H   UNL     1      -5.231   6.866  68.044  1.00  0.00     0.000 HD 
BRANCH  18  20
HETATM   20  C   UNL     1      -6.435   6.515  69.793  1.00  0.00    -0.043 A  
HETATM   21  C   UNL     1      -7.102   5.364  70.239  1.00  0.00    -0.062 A  
HETATM   22  C   UNL     1      -7.412   5.183  71.592  1.00  0.00    -0.096 A  
HETATM   23  C   UNL     1      -7.065   6.167  72.517  1.00  0.00    -0.084 A  
HETATM   24  O   UNL     1      -7.396   5.993  73.836  1.00  0.00    -0.091 OA 
HETATM   25  C   UNL     1      -6.395   7.327  72.105  1.00  0.00    -0.043 A  
HETATM   26  C   UNL     1      -5.995   8.431  73.025  1.00  0.00    -0.077 C  
HETATM   27  C   UNL     1      -6.088   7.486  70.740  1.00  0.00    -0.035 A  
HETATM   28  H   UNL     1      -7.160   6.664  74.467  1.00  0.00     0.000 HD 
HETATM   29  O   UNL     1      -5.404   9.427  72.634  1.00  0.00    -0.077 OA 
HETATM   30  O   UNL     1      -6.335   8.261  74.321  1.00  0.00    -0.112 OA 
ENDBRANCH  18  20
ENDBRANCH  16  18
ENDBRANCH  13  16
ENDBRANCH   7  10
ENDBRANCH   5   6
ENDBRANCH   4   5
TORSDOF 6
ENDMDL
MODEL      322
REMARK 921   NORMALIZED FREE ENERGY PREDICTED BY IDOCK:   -2.94 KCAL/MOL
REMARK 922        TOTAL FREE ENERGY PREDICTED BY IDOCK:   -4.95 KCAL/MOL
REMARK 923 INTER-LIGAND FREE ENERGY PREDICTED BY IDOCK:   -3.89 KCAL/MOL
REMARK 924 INTRA-LIGAND FREE ENERGY PREDICTED BY IDOCK:   -1.07 KCAL/MOL
REMARK 927      BINDING AFFINITY PREDICTED BY RF-SCORE:    0.00 PKD
ROOT
HETATM    1  O   UNL     1      -9.021  11.242  62.519  1.00  0.00    -0.327 OA 
HETATM    2  C   UNL     1      -9.592  10.418  63.422  1.00  0.00    -0.312 C  
HETATM    3  O   UNL     1     -10.453  10.794  64.205  1.00  0.00    -0.367 OA 
HETATM    4  C   UNL     1      -9.077   9.005  63.377  1.00  0.00     0.285 C  
ENDROOT
BRANCH   4   5
HETATM    5  C   UNL     1      -7.849   8.838  64.254  1.00  0.00    -0.133 C  
BRANCH   5   6
HETATM    6  N   UNL     1      -7.687   9.919  65.205  1.00  0.00    -0.123 N  
HETATM    7  C   UNL     1      -8.266   9.874  66.459  1.00  0.00    -0.121 C  
HETATM    8  H   UNL     1      -7.131  10.733  64.943  1.00  0.00     0.000 HD 
HETATM    9  O   UNL     1      -8.931   8.923  66.856  1.00  0.00    -0.124 OA 
BRANCH   7  10
HETATM   10  C   UNL     1      -8.097  11.087  67.311  1.00  0.00    -0.126 A  
HETATM   11  C   UNL     1      -7.030  11.126  68.216  1.00  0.00    -0.070 A  
HETATM   12  C   UNL     1      -6.878  12.214  69.086  1.00  0.00    -0.078 A  
HETATM   13  C   UNL     1      -7.773  13.292  69.065  1.00  0.00     0.166 A  
HETATM   14  C   UNL     1      -8.972  12.177  67.245  1.00  0.00    -0.184 A  
HETATM   15  C   UNL     1      -8.816  13.261  68.124  1.00  0.00    -0.187 A  
BRANCH  13  16
HETATM   16  N   UNL     1      -7.616  14.304  70.038  1.00  0.00    -0.174 NA 
HETATM   17  H   UNL     1      -8.336  14.548  70.720  1.00  0.00     0.000 HD 
BRANCH  16  18
HETATM   18  N   UNL     1      -6.504  14.869  69.977  1.00  0.00    -0.165 NA 
HETATM   19  H   UNL     1      -5.755  14.716  70.652  1.00  0.00     0.000 HD 
BRANCH  18  20
HETATM   20  C   UNL     1      -6.394  15.745  68.874  1.00  0.00    -0.116 A  
HETATM   21  C   UNL     1      -5.478  15.564  67.827  1.00  0.00    -0.130 A  
HETATM   22  C   UNL     1      -5.352  16.508  66.801  1.00  0.00     0.093 A  
HETATM   23  C   UNL     1      -6.141  17.658  66.820  1.00  0.00    -0.171 A  
HETATM   24  O   UNL     1      -5.992  18.589  65.825  1.00  0.00    -0.173 OA 
HETATM   25  C   UNL     1      -7.069  17.867  67.850  1.00  0.00    -0.210 A  
HETATM   26  C   UNL     1      -7.944  19.071  67.952  1.00  0.00    -0.277 C  
HETATM   27  C   UNL     1      -7.182  16.903  68.869  1.00  0.00    -0.231 A  
HETATM   28  H   UNL     1      -6.530  19.373  65.838  1.00  0.00     0.000 HD 
HETATM   29  O   UNL     1      -8.749  19.219  68.860  1.00  0.00    -0.362 OA 
HETATM   30  O   UNL     1      -7.785  19.991  66.977  1.00  0.00    -0.270 OA 
ENDBRANCH  18  20
ENDBRANCH  16  18
ENDBRANCH  13  16
ENDBRANCH   7  10
ENDBRANCH   5   6
ENDBRANCH   4   5
TORSDOF 6
ENDMDL
MODEL      323
REMARK 921   NORMALIZED FREE ENERGY PREDICTED BY IDOCK:   -2.87 KCAL/MOL
REMARK 922        TOTAL FREE ENERGY PREDICTED BY IDOCK:   -4.86 KCAL/MOL
REMARK 923 INTER-LIGAND FREE ENERGY PREDICTED BY IDOCK:   -3.97 KCAL/MOL
REMARK 924 INTRA-LIGAND FREE ENERGY PREDICTED BY IDOCK:   -0.89 KCAL/MOL
REMARK 927      BINDING AFFINITY PREDICTED BY RF-SCORE:    0.00 PKD
ROOT
HETATM    1  O   UNL     1      -8.073   1.652  66.052  1.00  0.00    -0.075 OA 
HETATM    2  C   UNL     1      -8.371   1.757  67.365  1.00  0.00    -0.076 C  
HETATM    3  O   UNL     1      -9.519   1.860  67.773  1.00  0.00    -0.166 OA 
HETATM    4  C   UNL     1      -7.171   1.736  68.270  1.00  0.00    -0.043 C  
ENDROOT
BRANCH   4   5
HETATM    5  C   UNL     1      -6.601   3.130  68.462  1.00  0.00    -0.040 C  
BRANCH   5   6
HETATM    6  N   UNL     1      -7.615   4.163  68.415  1.00  0.00    -0.066 N  
HETATM    7  C   UNL     1      -7.306   5.493  68.631  1.00  0.00    -0.075 C  
HETATM    8  H   UNL     1      -8.582   3.903  68.218  1.00  0.00     0.000 HD 
HETATM    9  O   UNL     1      -6.168   5.889  68.853  1.00  0.00    -0.032 OA 
BRANCH   7  10
HETATM   10  C   UNL     1      -8.454   6.447  68.642  1.00  0.00    -0.123 A  
HETATM   11  C   UNL     1      -9.319   6.466  67.542  1.00  0.00    -0.119 A  
HETATM   12  C   UNL     1     -10.365   7.397  67.480  1.00  0.00    -0.320 A  
HETATM   13  C   UNL     1     -10.583   8.316  68.515  1.00  0.00    -0.100 A  
HETATM   14  C   UNL     1      -8.687   7.327  69.706  1.00  0.00    -0.142 A  
HETATM   15  C   UNL     1      -9.734   8.259  69.633  1.00  0.00    -0.173 A  
BRANCH  13  16
HETATM   16  N   UNL     1     -11.592   9.289  68.337  1.00  0.00     0.102 NA 
HETATM   17  H   UNL     1     -12.380   9.174  67.699  1.00  0.00     0.000 HD 
BRANCH  16  18
HETATM   18  N   UNL     1     -11.419  10.304  69.044  1.00  0.00    -0.449 NA 
HETATM   19  H   UNL     1     -11.087  10.270  70.008  1.00  0.00     0.000 HD 
BRANCH  18  20
HETATM   20  C   UNL     1     -11.731  11.503  68.367  1.00  0.00    -0.303 A  
HETATM   21  C   UNL     1     -12.016  11.569  66.994  1.00  0.00     0.291 A  
HETATM   22  C   UNL     1     -12.236  12.795  66.357  1.00  0.00    -0.242 A  
HETATM   23  C   UNL     1     -12.161  13.978  67.091  1.00  0.00    -0.401 A  
HETATM   24  O   UNL     1     -12.352  15.176  66.452  1.00  0.00     0.127 OA 
HETATM   25  C   UNL     1     -11.882  13.948  68.464  1.00  0.00    -0.401 A  
HETATM   26  C   UNL     1     -11.774  15.164  69.320  1.00  0.00    -0.329 C  
HETATM   27  C   UNL     1     -11.669  12.703  69.086  1.00  0.00    -0.375 A  
HETATM   28  H   UNL     1     -12.300  15.983  66.952  1.00  0.00     0.000 HD 
HETATM   29  O   UNL     1     -11.536  15.102  70.518  1.00  0.00    -0.260 OA 
HETATM   30  O   UNL     1     -11.950  16.342  68.685  1.00  0.00    -0.182 OA 
ENDBRANCH  18  20
ENDBRANCH  16  18
ENDBRANCH  13  16
ENDBRANCH   7  10
ENDBRANCH   5   6
ENDBRANCH   4   5
TORSDOF 6
ENDMDL
MODEL      324
REMARK 921   NORMALIZED FREE ENERGY PREDICTED BY IDOCK:   -2.83 KCAL/MOL
REMARK 922        TOTAL FREE ENERGY PREDICTED BY IDOCK:   -4.81 KCAL/MOL
REMARK 923 INTER-LIGAND FREE ENERGY PREDICTED BY IDOCK:   -3.94 KCAL/MOL
REMARK 924 INTRA-LIGAND FREE ENERGY PREDICTED BY IDOCK:   -0.88 KCAL/MOL
REMARK 927      BINDING AFFINITY PREDICTED BY RF-SCORE:    0.00 PKD
ROOT
HETATM    1  O   UNL     1      -6.713   7.159  65.511  1.00  0.00    -0.050 OA 
HETATM    2  C   UNL     1      -7.817   6.687  66.128  1.00  0.00    -0.102 C  
HETATM    3  O   UNL     1      -8.948   7.004  65.788  1.00  0.00    -0.115 OA 
HETATM    4  C   UNL     1      -7.529   5.742  67.262  1.00  0.00    -0.081 C  
ENDROOT
BRANCH   4   5
HETATM    5  C   UNL     1      -7.328   6.492  68.567  1.00  0.00    -0.087 C  
BRANCH   5   6
HETATM    6  N   UNL     1      -7.343   7.931  68.396  1.00  0.00    -0.099 N  
HETATM    7  C   UNL     1      -6.223   8.701  68.645  1.00  0.00    -0.046 C  
HETATM    8  H   UNL     1      -8.200   8.386  68.083  1.00  0.00     0.000 HD 
HETATM    9  O   UNL     1      -5.150   8.229  69.004  1.00  0.00    -0.026 OA 
BRANCH   7  10
HETATM   10  C   UNL     1      -6.393  10.179  68.515  1.00  0.00    -0.048 A  
HETATM   11  C   UNL     1      -5.635  10.858  67.555  1.00  0.00    -0.044 A  
HETATM   12  C   UNL     1      -5.710  12.253  67.450  1.00  0.00    -0.139 A  
HETATM   13  C   UNL     1      -6.550  13.001  68.286  1.00  0.00    -0.094 A  
HETATM   14  C   UNL     1      -7.272  10.906  69.327  1.00  0.00    -0.128 A  
HETATM   15  C   UNL     1      -7.337  12.304  69.219  1.00  0.00     0.183 A  
BRANCH  13  16
HETATM   16  N   UNL     1      -6.498  14.410  68.192  1.00  0.00    -0.121 NA 
HETATM   17  H   UNL     1      -6.067  15.007  68.897  1.00  0.00     0.000 HD 
BRANCH  16  18
HETATM   18  N   UNL     1      -7.036  14.847  67.153  1.00  0.00    -0.342 NA 
HETATM   19  H   UNL     1      -6.516  15.269  66.383  1.00  0.00     0.000 HD 
BRANCH  18  20
HETATM   20  C   UNL     1      -8.440  14.696  67.157  1.00  0.00    -0.221 A  
HETATM   21  C   UNL     1      -9.185  14.325  66.027  1.00  0.00    -0.039 A  
HETATM   22  C   UNL     1     -10.583  14.273  66.064  1.00  0.00    -0.302 A  
HETATM   23  C   UNL     1     -11.255  14.606  67.240  1.00  0.00    -0.337 A  
HETATM   24  O   UNL     1     -12.626  14.577  67.259  1.00  0.00    -0.508 OA 
HETATM   25  C   UNL     1     -10.542  14.977  68.387  1.00  0.00    -0.239 A  
HETATM   26  C   UNL     1     -11.180  15.357  69.680  1.00  0.00    -0.283 C  
HETATM   27  C   UNL     1      -9.135  15.019  68.329  1.00  0.00    -0.182 A  
HETATM   28  H   UNL     1     -13.084  14.805  68.060  1.00  0.00     0.000 HD 
HETATM   29  O   UNL     1     -10.527  15.669  70.666  1.00  0.00    -0.244 OA 
HETATM   30  O   UNL     1     -12.530  15.340  69.691  1.00  0.00    -0.244 OA 
ENDBRANCH  18  20
ENDBRANCH  16  18
ENDBRANCH  13  16
ENDBRANCH   7  10
ENDBRANCH   5   6
ENDBRANCH   4   5
TORSDOF 6
ENDMDL
MODEL      325
REMARK 921   NORMALIZED FREE ENERGY PREDICTED BY IDOCK:   -2.78 KCAL/MOL
REMARK 922        TOTAL FREE ENERGY PREDICTED BY IDOCK:   -4.74 KCAL/MOL
REMARK 923 INTER-LIGAND FREE ENERGY PREDICTED BY IDOCK:   -3.82 KCAL/MOL
REMARK 924 INTRA-LIGAND FREE ENERGY PREDICTED BY IDOCK:   -0.92 KCAL/MOL
REMARK 927      BINDING AFFINITY PREDICTED BY RF-SCORE:    0.00 PKD
ROOT
HETATM    1  O   UNL     1     -11.814  15.561  69.325  1.00  0.00    -0.334 OA 
HETATM    2  C   UNL     1     -11.909  14.419  68.610  1.00  0.00    -0.331 C  
HETATM    3  O   UNL     1     -12.060  13.325  69.135  1.00  0.00    -0.306 OA 
HETATM    4  C   UNL     1     -11.812  14.615  67.123  1.00  0.00    -0.367 C  
ENDROOT
BRANCH   4   5
HETATM    5  C   UNL     1     -10.367  14.587  66.656  1.00  0.00    -0.274 C  
BRANCH   5   6
HETATM    6  N   UNL     1      -9.776  13.267  66.738  1.00  0.00    -0.251 N  
HETATM    7  C   UNL     1      -8.832  12.954  67.698  1.00  0.00    -0.187 C  
HETATM    8  H   UNL     1     -10.064  12.550  66.072  1.00  0.00     0.000 HD 
HETATM    9  O   UNL     1      -8.449  13.752  68.547  1.00  0.00    -0.160 OA 
BRANCH   7  10
HETATM   10  C   UNL     1      -8.237  11.587  67.621  1.00  0.00    -0.131 A  
HETATM   11  C   UNL     1      -8.932  10.593  66.925  1.00  0.00    -0.147 A  
HETATM   12  C   UNL     1      -8.445   9.279  66.891  1.00  0.00    -0.128 A  
HETATM   13  C   UNL     1      -7.251   8.930  67.536  1.00  0.00    -0.080 A  
HETATM   14  C   UNL     1      -7.019  11.265  68.231  1.00  0.00    -0.071 A  
HETATM   15  C   UNL     1      -6.540   9.946  68.197  1.00  0.00    -0.056 A  
BRANCH  13  16
HETATM   16  N   UNL     1      -6.874   7.568  67.544  1.00  0.00    -0.069 NA 
HETATM   17  H   UNL     1      -7.104   6.915  66.795  1.00  0.00     0.000 HD 
BRANCH  16  18
HETATM   18  N   UNL     1      -6.230   7.248  68.565  1.00  0.00    -0.034 NA 
HETATM   19  H   UNL     1      -5.495   7.826  68.973  1.00  0.00     0.000 HD 
BRANCH  18  20
HETATM   20  C   UNL     1      -6.628   6.000  69.095  1.00  0.00    -0.051 A  
HETATM   21  C   UNL     1      -5.955   5.352  70.143  1.00  0.00    -0.021 A  
HETATM   22  C   UNL     1      -6.341   4.077  70.573  1.00  0.00    -0.026 A  
HETATM   23  C   UNL     1      -7.403   3.429  69.946  1.00  0.00    -0.041 A  
HETATM   24  O   UNL     1      -7.757   2.169  70.357  1.00  0.00    -0.042 OA 
HETATM   25  C   UNL     1      -8.098   4.049  68.899  1.00  0.00    -0.075 A  
HETATM   26  C   UNL     1      -9.239   3.425  68.168  1.00  0.00    -0.182 C  
HETATM   27  C   UNL     1      -7.697   5.334  68.485  1.00  0.00    -0.080 A  
HETATM   28  H   UNL     1      -8.481   1.727  69.929  1.00  0.00     0.000 HD 
HETATM   29  O   UNL     1      -9.829   3.997  67.264  1.00  0.00    -0.189 OA 
HETATM   30  O   UNL     1      -9.574   2.180  68.568  1.00  0.00    -0.187 OA 
ENDBRANCH  18  20
ENDBRANCH  16  18
ENDBRANCH  13  16
ENDBRANCH   7  10
ENDBRANCH   5   6
ENDBRANCH   4   5
TORSDOF 6
ENDMDL
MODEL      326
REMARK 921   NORMALIZED FREE ENERGY PREDICTED BY IDOCK:   -2.72 KCAL/MOL
REMARK 922        TOTAL FREE ENERGY PREDICTED BY IDOCK:   -4.67 KCAL/MOL
REMARK 923 INTER-LIGAND FREE ENERGY PREDICTED BY IDOCK:   -3.72 KCAL/MOL
REMARK 924 INTRA-LIGAND FREE ENERGY PREDICTED BY IDOCK:   -0.95 KCAL/MOL
REMARK 927      BINDING AFFINITY PREDICTED BY RF-SCORE:    0.00 PKD
ROOT
HETATM    1  O   UNL     1     -11.692  10.741  63.229  1.00  0.00     0.935 OA 
HETATM    2  C   UNL     1     -11.472  12.034  63.547  1.00  0.00    -0.446 C  
HETATM    3  O   UNL     1     -10.480  12.644  63.172  1.00  0.00    -0.195 OA 
HETATM    4  C   UNL     1     -12.548  12.649  64.398  1.00  0.00    -0.470 C  
ENDROOT
BRANCH   4   5
HETATM    5  C   UNL     1     -12.283  12.417  65.875  1.00  0.00    -0.144 C  
BRANCH   5   6
HETATM    6  N   UNL     1     -11.704  13.572  66.531  1.00  0.00    -0.352 N  
HETATM    7  C   UNL     1     -10.340  13.692  66.715  1.00  0.00    -0.268 C  
HETATM    8  H   UNL     1     -12.319  14.315  66.863  1.00  0.00     0.000 HD 
HETATM    9  O   UNL     1      -9.535  12.854  66.327  1.00  0.00    -0.254 OA 
BRANCH   7  10
HETATM   10  C   UNL     1      -9.878  14.887  67.481  1.00  0.00    -0.217 A  
HETATM   11  C   UNL     1     -10.564  16.095  67.314  1.00  0.00    -0.305 A  
HETATM   12  C   UNL     1     -10.119  17.258  67.958  1.00  0.00    -0.324 A  
HETATM   13  C   UNL     1      -8.992  17.241  68.790  1.00  0.00    -0.231 A  
HETATM   14  C   UNL     1      -8.778  14.843  68.346  1.00  0.00    -0.172 A  
HETATM   15  C   UNL     1      -8.336  16.013  68.982  1.00  0.00    -0.243 A  
BRANCH  13  16
HETATM   16  N   UNL     1      -8.542  18.470  69.324  1.00  0.00     0.117 NA 
HETATM   17  H   UNL     1      -9.167  19.190  69.686  1.00  0.00     0.000 HD 
BRANCH  16  18
HETATM   18  N   UNL     1      -7.298  18.581  69.306  1.00  0.00    -0.141 NA 
HETATM   19  H   UNL     1      -6.687  18.197  70.027  1.00  0.00     0.000 HD 
BRANCH  18  20
HETATM   20  C   UNL     1      -6.827  19.296  68.182  1.00  0.00    -0.257 A  
HETATM   21  C   UNL     1      -6.864  20.695  68.080  1.00  0.00    -0.257 A  
HETATM   22  C   UNL     1      -6.463  21.348  66.909  1.00  0.00    -0.318 A  
HETATM   23  C   UNL     1      -6.029  20.600  65.816  1.00  0.00    -0.220 A  
HETATM   24  O   UNL     1      -5.662  21.247  64.664  1.00  0.00    -0.220 OA 
HETATM   25  C   UNL     1      -5.976  19.201  65.886  1.00  0.00    -0.209 A  
HETATM   26  C   UNL     1      -5.534  18.325  64.763  1.00  0.00    -0.025 C  
HETATM   27  C   UNL     1      -6.380  18.565  67.075  1.00  0.00    -0.193 A  
HETATM   28  H   UNL     1      -5.367  20.737  63.918  1.00  0.00     0.000 HD 
HETATM   29  O   UNL     1      -5.493  17.107  64.859  1.00  0.00     0.920 OA 
HETATM   30  O   UNL     1      -5.187  18.966  63.626  1.00  0.00    -0.226 OA 
ENDBRANCH  18  20
ENDBRANCH  16  18
ENDBRANCH  13  16
ENDBRANCH   7  10
ENDBRANCH   5   6
ENDBRANCH   4   5
TORSDOF 6
ENDMDL
MODEL      327
REMARK 921   NORMALIZED FREE ENERGY PREDICTED BY IDOCK:   -2.64 KCAL/MOL
REMARK 922        TOTAL FREE ENERGY PREDICTED BY IDOCK:   -4.55 KCAL/MOL
REMARK 923 INTER-LIGAND FREE ENERGY PREDICTED BY IDOCK:   -4.00 KCAL/MOL
REMARK 924 INTRA-LIGAND FREE ENERGY PREDICTED BY IDOCK:   -0.54 KCAL/MOL
REMARK 927      BINDING AFFINITY PREDICTED BY RF-SCORE:    0.00 PKD
ROOT
HETATM    1  O   UNL     1      -9.707  11.500  63.274  1.00  0.00    -0.344 OA 
HETATM    2  C   UNL     1      -9.692  10.245  63.772  1.00  0.00    -0.235 C  
HETATM    3  O   UNL     1     -10.325   9.924  64.768  1.00  0.00    -0.002 OA 
HETATM    4  C   UNL     1      -8.833   9.286  62.994  1.00  0.00    -0.173 C  
ENDROOT
BRANCH   4   5
HETATM    5  C   UNL     1      -7.395   9.315  63.482  1.00  0.00    -0.097 C  
BRANCH   5   6
HETATM    6  N   UNL     1      -7.185  10.265  64.556  1.00  0.00    -0.262 N  
HETATM    7  C   UNL     1      -7.052   9.857  65.869  1.00  0.00    -0.107 C  
HETATM    8  H   UNL     1      -7.134  11.260  64.337  1.00  0.00     0.000 HD 
HETATM    9  O   UNL     1      -7.081   8.680  66.211  1.00  0.00    -0.076 OA 
BRANCH   7  10
HETATM   10  C   UNL     1      -6.928  10.938  66.890  1.00  0.00    -0.119 A  
HETATM   11  C   UNL     1      -6.128  12.048  66.595  1.00  0.00     0.169 A  
HETATM   12  C   UNL     1      -5.926  13.050  67.554  1.00  0.00    -0.113 A  
HETATM   13  C   UNL     1      -6.525  12.977  68.818  1.00  0.00    -0.085 A  
HETATM   14  C   UNL     1      -7.571  10.874  68.132  1.00  0.00    -0.094 A  
HETATM   15  C   UNL     1      -7.359  11.879  69.088  1.00  0.00     0.022 A  
BRANCH  13  16
HETATM   16  N   UNL     1      -6.195  13.971  69.768  1.00  0.00    -0.130 NA 
HETATM   17  H   UNL     1      -6.204  13.813  70.776  1.00  0.00     0.000 HD 
BRANCH  16  18
HETATM   18  N   UNL     1      -5.891  15.063  69.243  1.00  0.00    -0.101 NA 
HETATM   19  H   UNL     1      -4.934  15.410  69.177  1.00  0.00     0.000 HD 
BRANCH  18  20
HETATM   20  C   UNL     1      -7.013  15.766  68.750  1.00  0.00    -0.124 A  
HETATM   21  C   UNL     1      -6.920  16.907  67.940  1.00  0.00    -0.158 A  
HETATM   22  C   UNL     1      -8.062  17.615  67.549  1.00  0.00    -0.217 A  
HETATM   23  C   UNL     1      -9.319  17.190  67.979  1.00  0.00    -0.254 A  
HETATM   24  O   UNL     1     -10.430  17.905  67.613  1.00  0.00    -0.370 OA 
HETATM   25  C   UNL     1      -9.447  16.052  68.787  1.00  0.00    -0.227 A  
HETATM   26  C   UNL     1     -10.749  15.534  69.298  1.00  0.00    -0.245 C  
HETATM   27  C   UNL     1      -8.285  15.352  69.164  1.00  0.00    -0.243 A  
HETATM   28  H   UNL     1     -11.286  17.616  67.907  1.00  0.00     0.000 HD 
HETATM   29  O   UNL     1     -10.827  14.533  69.994  1.00  0.00    -0.135 OA 
HETATM   30  O   UNL     1     -11.839  16.249  68.945  1.00  0.00    -0.284 OA 
ENDBRANCH  18  20
ENDBRANCH  16  18
ENDBRANCH  13  16
ENDBRANCH   7  10
ENDBRANCH   5   6
ENDBRANCH   4   5
TORSDOF 6
ENDMDL
MODEL      328
REMARK 921   NORMALIZED FREE ENERGY PREDICTED BY IDOCK:   -2.28 KCAL/MOL
REMARK 922        TOTAL FREE ENERGY PREDICTED BY IDOCK:   -4.07 KCAL/MOL
REMARK 923 INTER-LIGAND FREE ENERGY PREDICTED BY IDOCK:   -4.30 KCAL/MOL
REMARK 924 INTRA-LIGAND FREE ENERGY PREDICTED BY IDOCK:    0.23 KCAL/MOL
REMARK 927      BINDING AFFINITY PREDICTED BY RF-SCORE:    0.00 PKD
ROOT
HETATM    1  O   UNL     1      -9.888  11.271  63.546  1.00  0.00    -0.287 OA 
HETATM    2  C   UNL     1      -9.633  10.093  64.155  1.00  0.00    -0.272 C  
HETATM    3  O   UNL     1     -10.168   9.766  65.205  1.00  0.00    -0.216 OA 
HETATM    4  C   UNL     1      -8.640   9.228  63.429  1.00  0.00    -0.206 C  
ENDROOT
BRANCH   4   5
HETATM    5  C   UNL     1      -7.216   9.557  63.844  1.00  0.00    -0.111 C  
BRANCH   5   6
HETATM    6  N   UNL     1      -7.153  10.550  64.897  1.00  0.00    -0.337 N  
HETATM    7  C   UNL     1      -6.860  10.204  66.202  1.00  0.00    -0.108 C  
HETATM    8  H   UNL     1      -7.329  11.529  64.669  1.00  0.00     0.000 HD 
HETATM    9  O   UNL     1      -6.616   9.055  66.553  1.00  0.00    -0.066 OA 
BRANCH   7  10
HETATM   10  C   UNL     1      -6.912  11.306  67.208  1.00  0.00    -0.109 A  
HETATM   11  C   UNL     1      -7.058  12.622  66.752  1.00  0.00     0.437 A  
HETATM   12  C   UNL     1      -7.038  13.691  67.657  1.00  0.00    -0.179 A  
HETATM   13  C   UNL     1      -6.886  13.476  69.033  1.00  0.00    -0.107 A  
HETATM   14  C   UNL     1      -6.806  11.071  68.583  1.00  0.00    -0.064 A  
HETATM   15  C   UNL     1      -6.782  12.149  69.482  1.00  0.00    -0.017 A  
BRANCH  13  16
HETATM   16  N   UNL     1      -6.773  14.606  69.873  1.00  0.00    -0.207 NA 
HETATM   17  H   UNL     1      -6.285  14.596  70.770  1.00  0.00     0.000 HD 
BRANCH  16  18
HETATM   18  N   UNL     1      -7.332  15.619  69.403  1.00  0.00    -0.208 NA 
HETATM   19  H   UNL     1      -6.836  16.480  69.169  1.00  0.00     0.000 HD 
BRANCH  18  20
HETATM   20  C   UNL     1      -8.724  15.448  69.232  1.00  0.00    -0.252 A  
HETATM   21  C   UNL     1      -9.629  15.336  70.298  1.00  0.00     0.361 A  
HETATM   22  C   UNL     1     -10.987  15.082  70.073  1.00  0.00    -0.268 A  
HETATM   23  C   UNL     1     -11.453  14.924  68.768  1.00  0.00    -0.307 A  
HETATM   24  O   UNL     1     -12.780  14.650  68.559  1.00  0.00    -0.322 OA 
HETATM   25  C   UNL     1     -10.576  15.034  67.681  1.00  0.00    -0.267 A  
HETATM   26  C   UNL     1     -10.987  14.871  66.257  1.00  0.00    -0.338 C  
HETATM   27  C   UNL     1      -9.215  15.295  67.930  1.00  0.00    -0.184 A  
HETATM   28  H   UNL     1     -13.098  14.542  67.670  1.00  0.00     0.000 HD 
HETATM   29  O   UNL     1     -10.197  14.981  65.331  1.00  0.00    -0.339 OA 
HETATM   30  O   UNL     1     -12.292  14.588  66.057  1.00  0.00    -0.332 OA 
ENDBRANCH  18  20
ENDBRANCH  16  18
ENDBRANCH  13  16
ENDBRANCH   7  10
ENDBRANCH   5   6
ENDBRANCH   4   5
TORSDOF 6
ENDMDL
MODEL      329
REMARK 921   NORMALIZED FREE ENERGY PREDICTED BY IDOCK:   -2.04 KCAL/MOL
REMARK 922        TOTAL FREE ENERGY PREDICTED BY IDOCK:   -3.74 KCAL/MOL
REMARK 923 INTER-LIGAND FREE ENERGY PREDICTED BY IDOCK:   -3.43 KCAL/MOL
REMARK 924 INTRA-LIGAND FREE ENERGY PREDICTED BY IDOCK:   -0.31 KCAL/MOL
REMARK 927      BINDING AFFINITY PREDICTED BY RF-SCORE:    0.00 PKD
ROOT
HETATM    1  O   UNL     1      -8.083  13.679  66.606  1.00  0.00     0.170 OA 
HETATM    2  C   UNL     1      -9.340  13.875  66.154  1.00  0.00    -0.098 C  
HETATM    3  O   UNL     1     -10.160  14.548  66.761  1.00  0.00    -0.255 OA 
HETATM    4  C   UNL     1      -9.634  13.195  64.845  1.00  0.00     0.254 C  
ENDROOT
BRANCH   4   5
HETATM    5  C   UNL     1     -10.116  11.771  65.060  1.00  0.00    -0.263 C  
BRANCH   5   6
HETATM    6  N   UNL     1      -9.508  11.141  66.214  1.00  0.00    -0.190 N  
HETATM    7  C   UNL     1     -10.204  10.969  67.396  1.00  0.00    -0.195 C  
HETATM    8  H   UNL     1      -8.543  10.816  66.154  1.00  0.00     0.000 HD 
HETATM    9  O   UNL     1     -11.372  11.313  67.542  1.00  0.00    -0.327 OA 
BRANCH   7  10
HETATM   10  C   UNL     1      -9.439  10.386  68.537  1.00  0.00    -0.159 A  
HETATM   11  C   UNL     1     -10.150   9.890  69.636  1.00  0.00    -0.254 A  
HETATM   12  C   UNL     1      -9.468   9.402  70.759  1.00  0.00    -0.307 A  
HETATM   13  C   UNL     1      -8.068   9.383  70.807  1.00  0.00    -0.116 A  
HETATM   14  C   UNL     1      -8.040  10.331  68.551  1.00  0.00    -0.109 A  
HETATM   15  C   UNL     1      -7.366   9.845  69.681  1.00  0.00    -0.115 A  
BRANCH  13  16
HETATM   16  N   UNL     1      -7.451   8.972  72.010  1.00  0.00    -0.340 NA 
HETATM   17  H   UNL     1      -6.471   9.149  72.230  1.00  0.00     0.000 HD 
BRANCH  16  18
HETATM   18  N   UNL     1      -8.232   8.368  72.775  1.00  0.00    -0.323 NA 
HETATM   19  H   UNL     1      -8.857   8.839  73.430  1.00  0.00     0.000 HD 
BRANCH  18  20
HETATM   20  C   UNL     1      -8.157   6.964  72.639  1.00  0.00    -0.105 A  
HETATM   21  C   UNL     1      -8.286   6.071  73.714  1.00  0.00    -0.114 A  
HETATM   22  C   UNL     1      -8.119   4.693  73.536  1.00  0.00    -0.102 A  
HETATM   23  C   UNL     1      -7.808   4.192  72.273  1.00  0.00    -0.082 A  
HETATM   24  O   UNL     1      -7.621   2.843  72.114  1.00  0.00    -0.050 OA 
HETATM   25  C   UNL     1      -7.676   5.056  71.177  1.00  0.00    -0.091 A  
HETATM   26  C   UNL     1      -7.336   4.607  69.797  1.00  0.00    -0.054 C  
HETATM   27  C   UNL     1      -7.852   6.439  71.377  1.00  0.00    -0.104 A  
HETATM   28  H   UNL     1      -7.408   2.502  71.253  1.00  0.00     0.000 HD 
HETATM   29  O   UNL     1      -7.236   5.387  68.860  1.00  0.00    -0.063 OA 
HETATM   30  O   UNL     1      -7.140   3.280  69.648  1.00  0.00    -0.041 OA 
ENDBRANCH  18  20
ENDBRANCH  16  18
ENDBRANCH  13  16
ENDBRANCH   7  10
ENDBRANCH   5   6
ENDBRANCH   4   5
TORSDOF 6
ENDMDL
MODEL      330
REMARK 921   NORMALIZED FREE ENERGY PREDICTED BY IDOCK:   -1.35 KCAL/MOL
REMARK 922        TOTAL FREE ENERGY PREDICTED BY IDOCK:   -2.81 KCAL/MOL
REMARK 923 INTER-LIGAND FREE ENERGY PREDICTED BY IDOCK:   -2.93 KCAL/MOL
REMARK 924 INTRA-LIGAND FREE ENERGY PREDICTED BY IDOCK:    0.13 KCAL/MOL
REMARK 927      BINDING AFFINITY PREDICTED BY RF-SCORE:    0.00 PKD
ROOT
HETATM    1  O   UNL     1     -11.193  14.593  73.436  1.00  0.00     0.494 OA 
HETATM    2  C   UNL     1     -12.418  14.164  73.066  1.00  0.00    -0.013 C  
HETATM    3  O   UNL     1     -12.590  13.137  72.425  1.00  0.00     0.017 OA 
HETATM    4  C   UNL     1     -13.542  15.058  73.512  1.00  0.00     0.406 C  
ENDROOT
BRANCH   4   5
HETATM    5  C   UNL     1     -13.808  16.157  72.499  1.00  0.00     0.063 C  
BRANCH   5   6
HETATM    6  N   UNL     1     -12.919  16.094  71.356  1.00  0.00    -0.415 N  
HETATM    7  C   UNL     1     -13.113  15.181  70.338  1.00  0.00    -0.194 C  
HETATM    8  H   UNL     1     -12.132  16.740  71.302  1.00  0.00     0.000 HD 
HETATM    9  O   UNL     1     -14.046  14.386  70.318  1.00  0.00     0.904 OA 
BRANCH   7  10
HETATM   10  C   UNL     1     -12.079  15.159  69.262  1.00  0.00    -0.278 A  
HETATM   11  C   UNL     1     -11.641  13.921  68.779  1.00  0.00    -0.370 A  
HETATM   12  C   UNL     1     -10.619  13.855  67.822  1.00  0.00    -0.248 A  
HETATM   13  C   UNL     1     -10.023  15.016  67.314  1.00  0.00    -0.233 A  
HETATM   14  C   UNL     1     -11.526  16.330  68.730  1.00  0.00    -0.289 A  
HETATM   15  C   UNL     1     -10.500  16.255  67.776  1.00  0.00    -0.295 A  
BRANCH  13  16
HETATM   16  N   UNL     1      -8.931  14.870  66.428  1.00  0.00    -0.431 NA 
HETATM   17  H   UNL     1      -8.800  14.058  65.825  1.00  0.00     0.000 HD 
BRANCH  16  18
HETATM   18  N   UNL     1      -8.145  15.839  66.462  1.00  0.00    -0.290 NA 
HETATM   19  H   UNL     1      -8.098  16.554  65.736  1.00  0.00     0.000 HD 
BRANCH  18  20
HETATM   20  C   UNL     1      -7.324  15.840  67.612  1.00  0.00    -0.164 A  
HETATM   21  C   UNL     1      -6.789  14.676  68.185  1.00  0.00    -0.128 A  
HETATM   22  C   UNL     1      -6.052  14.725  69.374  1.00  0.00    -0.109 A  
HETATM   23  C   UNL     1      -5.853  15.948  70.013  1.00  0.00    -0.168 A  
HETATM   24  O   UNL     1      -5.153  15.983  71.191  1.00  0.00    -0.187 OA 
HETATM   25  C   UNL     1      -6.372  17.130  69.466  1.00  0.00    -0.230 A  
HETATM   26  C   UNL     1      -6.214  18.476  70.087  1.00  0.00    -0.011 C  
HETATM   27  C   UNL     1      -7.105  17.058  68.266  1.00  0.00    -0.190 A  
HETATM   28  H   UNL     1      -5.017  16.816  71.627  1.00  0.00     0.000 HD 
HETATM   29  O   UNL     1      -6.672  19.489  69.579  1.00  0.00    -0.328 OA 
HETATM   30  O   UNL     1      -5.534  18.504  71.253  1.00  0.00    -0.244 OA 
ENDBRANCH  18  20
ENDBRANCH  16  18
ENDBRANCH  13  16
ENDBRANCH   7  10
ENDBRANCH   5   6
ENDBRANCH   4   5
TORSDOF 6
ENDMDL
MODEL      331
REMARK 921   NORMALIZED FREE ENERGY PREDICTED BY IDOCK:   -1.10 KCAL/MOL
REMARK 922        TOTAL FREE ENERGY PREDICTED BY IDOCK:   -2.47 KCAL/MOL
REMARK 923 INTER-LIGAND FREE ENERGY PREDICTED BY IDOCK:   -2.76 KCAL/MOL
REMARK 924 INTRA-LIGAND FREE ENERGY PREDICTED BY IDOCK:    0.28 KCAL/MOL
REMARK 927      BINDING AFFINITY PREDICTED BY RF-SCORE:    0.00 PKD
ROOT
HETATM    1  O   UNL     1      -7.578   8.103  72.634  1.00  0.00    -0.111 OA 
HETATM    2  C   UNL     1      -8.621   7.481  72.044  1.00  0.00    -0.107 C  
HETATM    3  O   UNL     1      -8.479   6.680  71.131  1.00  0.00    -0.124 OA 
HETATM    4  C   UNL     1      -9.962   7.861  72.608  1.00  0.00    -0.330 C  
ENDROOT
BRANCH   4   5
HETATM    5  C   UNL     1     -10.523   9.091  71.915  1.00  0.00    -0.303 C  
BRANCH   5   6
HETATM    6  N   UNL     1     -10.391   9.032  70.474  1.00  0.00    -0.203 N  
HETATM    7  C   UNL     1      -9.291   9.559  69.825  1.00  0.00    -0.211 C  
HETATM    8  H   UNL     1     -11.129   8.592  69.924  1.00  0.00     0.000 HD 
HETATM    9  O   UNL     1      -8.354  10.085  70.414  1.00  0.00    -0.131 OA 
BRANCH   7  10
HETATM   10  C   UNL     1      -9.316   9.513  68.333  1.00  0.00    -0.137 A  
HETATM   11  C   UNL     1      -8.178   9.926  67.631  1.00  0.00    -0.114 A  
HETATM   12  C   UNL     1      -8.186   9.968  66.231  1.00  0.00    -0.124 A  
HETATM   13  C   UNL     1      -9.319   9.587  65.499  1.00  0.00    -0.255 A  
HETATM   14  C   UNL     1     -10.440   9.085  67.616  1.00  0.00    -0.324 A  
HETATM   15  C   UNL     1     -10.441   9.135  66.213  1.00  0.00    -0.035 A  
BRANCH  13  16
HETATM   16  N   UNL     1      -9.289   9.752  64.095  1.00  0.00    -0.396 NA 
HETATM   17  H   UNL     1      -9.653   9.061  63.439  1.00  0.00     0.000 HD 
BRANCH  16  18
HETATM   18  N   UNL     1      -8.770  10.832  63.744  1.00  0.00    -0.321 NA 
HETATM   19  H   UNL     1      -7.935  10.893  63.161  1.00  0.00     0.000 HD 
BRANCH  18  20
HETATM   20  C   UNL     1      -9.463  11.959  64.238  1.00  0.00     0.087 A  
HETATM   21  C   UNL     1      -8.830  13.058  64.839  1.00  0.00     2.015 A  
HETATM   22  C   UNL     1      -9.570  14.111  65.389  1.00  0.00     0.020 A  
HETATM   23  C   UNL     1     -10.963  14.068  65.351  1.00  0.00    -0.321 A  
HETATM   24  O   UNL     1     -11.680  15.092  65.915  1.00  0.00    -0.185 OA 
HETATM   25  C   UNL     1     -11.627  12.988  64.755  1.00  0.00    -0.368 A  
HETATM   26  C   UNL     1     -13.110  12.858  64.680  1.00  0.00     0.054 C  
HETATM   27  C   UNL     1     -10.862  11.941  64.204  1.00  0.00    -0.412 A  
HETATM   28  H   UNL     1     -12.629  15.063  65.890  1.00  0.00     0.000 HD 
HETATM   29  O   UNL     1     -13.658  11.905  64.145  1.00  0.00    -0.481 OA 
HETATM   30  O   UNL     1     -13.812  13.862  65.248  1.00  0.00     0.060 OA 
ENDBRANCH  18  20
ENDBRANCH  16  18
ENDBRANCH  13  16
ENDBRANCH   7  10
ENDBRANCH   5   6
ENDBRANCH   4   5
TORSDOF 6
ENDMDL
MODEL      332
REMARK 921   NORMALIZED FREE ENERGY PREDICTED BY IDOCK:   -0.95 KCAL/MOL
REMARK 922        TOTAL FREE ENERGY PREDICTED BY IDOCK:   -2.26 KCAL/MOL
REMARK 923 INTER-LIGAND FREE ENERGY PREDICTED BY IDOCK:   -3.26 KCAL/MOL
REMARK 924 INTRA-LIGAND FREE ENERGY PREDICTED BY IDOCK:    0.99 KCAL/MOL
REMARK 927      BINDING AFFINITY PREDICTED BY RF-SCORE:    0.00 PKD
ROOT
HETATM    1  O   UNL     1      -7.707  12.490  68.040  1.00  0.00    -0.117 OA 
HETATM    2  C   UNL     1      -8.775  12.753  67.258  1.00  0.00    -0.200 C  
HETATM    3  O   UNL     1      -9.711  13.446  67.633  1.00  0.00    -0.212 OA 
HETATM    4  C   UNL     1      -8.708  12.123  65.894  1.00  0.00     0.266 C  
ENDROOT
BRANCH   4   5
HETATM    5  C   UNL     1      -9.280  10.716  65.908  1.00  0.00    -0.182 C  
BRANCH   5   6
HETATM    6  N   UNL     1      -8.960   9.992  67.121  1.00  0.00    -0.135 N  
HETATM    7  C   UNL     1      -9.821   9.973  68.202  1.00  0.00    -0.142 C  
HETATM    8  H   UNL     1      -8.077   9.484  67.179  1.00  0.00     0.000 HD 
HETATM    9  O   UNL     1     -10.908  10.540  68.203  1.00  0.00    -0.214 OA 
BRANCH   7  10
HETATM   10  C   UNL     1      -9.336   9.264  69.423  1.00  0.00    -0.164 A  
HETATM   11  C   UNL     1     -10.247   9.010  70.455  1.00  0.00    -0.250 A  
HETATM   12  C   UNL     1      -9.817   8.413  71.648  1.00  0.00    -0.290 A  
HETATM   13  C   UNL     1      -8.478   8.043  71.834  1.00  0.00    -0.136 A  
HETATM   14  C   UNL     1      -8.005   8.858  69.575  1.00  0.00    -0.092 A  
HETATM   15  C   UNL     1      -7.582   8.265  70.774  1.00  0.00    -0.073 A  
BRANCH  13  16
HETATM   16  N   UNL     1      -8.098   7.540  73.098  1.00  0.00    -0.109 NA 
HETATM   17  H   UNL     1      -7.127   7.432  73.394  1.00  0.00     0.000 HD 
BRANCH  16  18
HETATM   18  N   UNL     1      -9.075   7.242  73.817  1.00  0.00    -0.203 NA 
HETATM   19  H   UNL     1      -9.462   7.861  74.529  1.00  0.00     0.000 HD 
BRANCH  18  20
HETATM   20  C   UNL     1      -9.587   5.955  73.539  1.00  0.00    -0.141 A  
HETATM   21  C   UNL     1     -10.044   5.070  74.527  1.00  0.00    -0.278 A  
HETATM   22  C   UNL     1     -10.462   3.774  74.205  1.00  0.00    -0.268 A  
HETATM   23  C   UNL     1     -10.416   3.344  72.879  1.00  0.00    -0.153 A  
HETATM   24  O   UNL     1     -10.804   2.064  72.576  1.00  0.00    -0.105 OA 
HETATM   25  C   UNL     1      -9.969   4.203  71.867  1.00  0.00    -0.253 A  
HETATM   26  C   UNL     1      -9.879   3.822  70.428  1.00  0.00    -0.065 C  
HETATM   27  C   UNL     1      -9.557   5.504  72.213  1.00  0.00    -0.173 A  
HETATM   28  H   UNL     1     -10.772   1.770  71.673  1.00  0.00     0.000 HD 
HETATM   29  O   UNL     1      -9.491   4.599  69.568  1.00  0.00    -0.133 OA 
HETATM   30  O   UNL     1     -10.249   2.557  70.136  1.00  0.00     0.562 OA 
ENDBRANCH  18  20
ENDBRANCH  16  18
ENDBRANCH  13  16
ENDBRANCH   7  10
ENDBRANCH   5   6
ENDBRANCH   4   5
TORSDOF 6
ENDMDL
MODEL      333
REMARK 921   NORMALIZED FREE ENERGY PREDICTED BY IDOCK:   -0.61 KCAL/MOL
REMARK 922        TOTAL FREE ENERGY PREDICTED BY IDOCK:   -1.80 KCAL/MOL
REMARK 923 INTER-LIGAND FREE ENERGY PREDICTED BY IDOCK:   -3.15 KCAL/MOL
REMARK 924 INTRA-LIGAND FREE ENERGY PREDICTED BY IDOCK:    1.35 KCAL/MOL
REMARK 927      BINDING AFFINITY PREDICTED BY RF-SCORE:    0.00 PKD
ROOT
HETATM    1  O   UNL     1     -11.237  14.611  73.391  1.00  0.00     0.494 OA 
HETATM    2  C   UNL     1     -12.448  14.163  72.996  1.00  0.00    -0.013 C  
HETATM    3  O   UNL     1     -12.613  13.051  72.514  1.00  0.00     0.106 OA 
HETATM    4  C   UNL     1     -13.565  15.148  73.204  1.00  0.00    -0.363 C  
ENDROOT
BRANCH   4   5
HETATM    5  C   UNL     1     -13.709  16.077  72.012  1.00  0.00     0.126 C  
BRANCH   5   6
HETATM    6  N   UNL     1     -12.736  15.812  70.972  1.00  0.00    -0.498 N  
HETATM    7  C   UNL     1     -12.878  14.749  70.101  1.00  0.00    -0.148 C  
HETATM    8  H   UNL     1     -11.926  16.425  70.881  1.00  0.00     0.000 HD 
HETATM    9  O   UNL     1     -13.831  13.979  70.132  1.00  0.00     1.006 OA 
BRANCH   7  10
HETATM   10  C   UNL     1     -11.763  14.533  69.132  1.00  0.00    -0.349 A  
HETATM   11  C   UNL     1     -12.074  14.093  67.841  1.00  0.00    -0.309 A  
HETATM   12  C   UNL     1     -11.053  13.808  66.924  1.00  0.00    -0.311 A  
HETATM   13  C   UNL     1      -9.704  13.967  67.267  1.00  0.00    -0.237 A  
HETATM   14  C   UNL     1     -10.422  14.742  69.475  1.00  0.00    -0.166 A  
HETATM   15  C   UNL     1      -9.405  14.449  68.552  1.00  0.00    -0.204 A  
BRANCH  13  16
HETATM   16  N   UNL     1      -8.728  13.565  66.327  1.00  0.00    -0.343 NA 
HETATM   17  H   UNL     1      -8.878  13.577  65.318  1.00  0.00     0.000 HD 
BRANCH  16  18
HETATM   18  N   UNL     1      -7.663  13.192  66.862  1.00  0.00    -0.373 NA 
HETATM   19  H   UNL     1      -6.809  13.751  66.870  1.00  0.00     0.000 HD 
BRANCH  18  20
HETATM   20  C   UNL     1      -7.765  11.913  67.453  1.00  0.00    -0.158 A  
HETATM   21  C   UNL     1      -6.658  11.098  67.737  1.00  0.00    -0.064 A  
HETATM   22  C   UNL     1      -6.821   9.804  68.245  1.00  0.00    -0.068 A  
HETATM   23  C   UNL     1      -8.105   9.306  68.466  1.00  0.00    -0.106 A  
HETATM   24  O   UNL     1      -8.255   8.028  68.940  1.00  0.00    -0.122 OA 
HETATM   25  C   UNL     1      -9.231  10.095  68.197  1.00  0.00    -0.137 A  
HETATM   26  C   UNL     1     -10.637   9.638  68.395  1.00  0.00    -0.225 C  
HETATM   27  C   UNL     1      -9.044  11.395  67.690  1.00  0.00    -0.155 A  
HETATM   28  H   UNL     1      -9.129   7.688  69.090  1.00  0.00     0.000 HD 
HETATM   29  O   UNL     1     -11.598  10.355  68.158  1.00  0.00    -0.355 OA 
HETATM   30  O   UNL     1     -10.780   8.375  68.849  1.00  0.00    -0.179 OA 
ENDBRANCH  18  20
ENDBRANCH  16  18
ENDBRANCH  13  16
ENDBRANCH   7  10
ENDBRANCH   5   6
ENDBRANCH   4   5
TORSDOF 6
ENDMDL
