MODEL        1
REMARK 921   NORMALIZED FREE ENERGY PREDICTED BY IDOCK:   -7.52 KCAL/MOL
REMARK 922        TOTAL FREE ENERGY PREDICTED BY IDOCK:  -10.66 KCAL/MOL
REMARK 923 INTER-LIGAND FREE ENERGY PREDICTED BY IDOCK:  -10.15 KCAL/MOL
REMARK 924 INTRA-LIGAND FREE ENERGY PREDICTED BY IDOCK:   -0.51 KCAL/MOL
REMARK 927      BINDING AFFINITY PREDICTED BY RF-SCORE:    0.00 PKD
ROOT
HETATM    1  C   UNL     1     -10.782  19.187  67.182  1.00  0.00    -0.567 C  
HETATM    2  C   UNL     1     -10.577  17.709  67.440  1.00  0.00    -0.318 C  
ENDROOT
BRANCH   2   3
HETATM    3  S   UNL     1     -10.161  16.830  65.943  1.00  0.00    -0.284 S  
HETATM    4  O   UNL     1     -11.035  17.274  64.883  1.00  0.00    -0.815 OA 
HETATM    5  O   UNL     1      -8.722  16.813  65.799  1.00  0.00    -0.496 OA 
BRANCH   3   6
HETATM    6  N   UNL     1     -10.652  15.279  66.390  1.00  0.00    -0.301 N  
HETATM    7  C   UNL     1     -12.018  14.707  66.210  1.00  0.00    -0.251 C  
HETATM    8  C   UNL     1     -11.412  13.265  66.250  1.00  0.00    -0.325 C  
HETATM    9  C   UNL     1     -10.070  13.992  65.913  1.00  0.00    -0.321 C  
BRANCH   8  10
HETATM   10  C   UNL     1     -11.980  12.242  65.276  1.00  0.00    -0.391 C  
BRANCH  10  11
HETATM   11  C   UNL     1     -12.226  12.847  63.903  1.00  0.00    -0.449 C  
HETATM   12  H1  UNL     1     -12.595  13.754  61.843  1.00  0.00     0.000 HD 
HETATM   13  N   UNL     1     -12.430  13.348  62.764  1.00  0.00    -0.714 NA 
HETATM   14  H2  UNL     1     -11.638  13.834  62.341  1.00  0.00     0.000 HD 
ENDBRANCH  10  11
ENDBRANCH   8  10
BRANCH   8  15
HETATM   15  N   UNL     1     -11.485  12.761  67.615  1.00  0.00    -0.313 NA 
HETATM   16  N   UNL     1     -11.979  13.537  68.605  1.00  0.00    -0.358 NA 
HETATM   17  C   UNL     1     -11.053  11.544  68.072  1.00  0.00    -0.254 A  
HETATM   18  C   UNL     1     -11.848  12.787  69.700  1.00  0.00    -0.317 A  
HETATM   19  C   UNL     1     -11.268  11.535  69.433  1.00  0.00    -0.324 A  
BRANCH  19  20
HETATM   20  C   UNL     1     -10.969  10.422  70.294  1.00  0.00    -0.284 A  
HETATM   21  C   UNL     1     -11.929   9.884  71.153  1.00  0.00    -0.473 A  
HETATM   22  C   UNL     1     -13.268  10.163  71.550  1.00  0.00    -0.496 A  
HETATM   23  C   UNL     1     -13.649   9.190  72.450  1.00  0.00    -0.483 A  
HETATM   24  N   UNL     1     -12.584   8.347  72.632  1.00  0.00    -0.598 NA 
HETATM   25  H   UNL     1     -12.578   7.531  73.244  1.00  0.00     0.000 HD 
HETATM   26  C   UNL     1     -11.529   8.766  71.866  1.00  0.00    -0.358 A  
HETATM   27  N   UNL     1     -10.328   8.169  71.830  1.00  0.00    -0.217 NA 
HETATM   28  C   UNL     1      -9.485   8.798  70.993  1.00  0.00    -0.228 A  
HETATM   29  N   UNL     1      -9.728   9.882  70.233  1.00  0.00    -0.219 NA 
ENDBRANCH  19  20
ENDBRANCH   8  15
ENDBRANCH   3   6
ENDBRANCH   2   3
TORSDOF 6
ENDMDL
MODEL        2
REMARK 921   NORMALIZED FREE ENERGY PREDICTED BY IDOCK:   -7.35 KCAL/MOL
REMARK 922        TOTAL FREE ENERGY PREDICTED BY IDOCK:  -10.43 KCAL/MOL
REMARK 923 INTER-LIGAND FREE ENERGY PREDICTED BY IDOCK:  -10.05 KCAL/MOL
REMARK 924 INTRA-LIGAND FREE ENERGY PREDICTED BY IDOCK:   -0.39 KCAL/MOL
REMARK 927      BINDING AFFINITY PREDICTED BY RF-SCORE:    0.00 PKD
ROOT
HETATM    1  C   UNL     1     -10.143  19.224  67.350  1.00  0.00    -0.486 C  
HETATM    2  C   UNL     1     -10.620  17.791  67.463  1.00  0.00    -0.359 C  
ENDROOT
BRANCH   2   3
HETATM    3  S   UNL     1     -10.157  16.827  66.034  1.00  0.00    -0.309 S  
HETATM    4  O   UNL     1     -10.978  17.226  64.915  1.00  0.00    -0.815 OA 
HETATM    5  O   UNL     1      -8.713  16.780  65.953  1.00  0.00    -0.504 OA 
BRANCH   3   6
HETATM    6  N   UNL     1     -10.693  15.310  66.541  1.00  0.00    -0.308 N  
HETATM    7  C   UNL     1     -12.022  14.705  66.238  1.00  0.00    -0.251 C  
HETATM    8  C   UNL     1     -11.419  13.279  66.471  1.00  0.00    -0.337 C  
HETATM    9  C   UNL     1     -10.049  13.997  66.248  1.00  0.00    -0.300 C  
BRANCH   8  10
HETATM   10  C   UNL     1     -11.855  12.173  65.520  1.00  0.00    -0.350 C  
BRANCH  10  11
HETATM   11  C   UNL     1     -12.135  12.707  64.124  1.00  0.00    -0.439 C  
HETATM   12  H1  UNL     1     -12.555  13.507  62.030  1.00  0.00     0.000 HD 
HETATM   13  N   UNL     1     -12.367  13.150  62.967  1.00  0.00    -0.823 NA 
HETATM   14  H2  UNL     1     -12.956  13.982  62.916  1.00  0.00     0.000 HD 
ENDBRANCH  10  11
ENDBRANCH   8  10
BRANCH   8  15
HETATM   15  N   UNL     1     -11.661  12.886  67.853  1.00  0.00    -0.346 NA 
HETATM   16  N   UNL     1     -11.864  13.823  68.806  1.00  0.00    -0.346 NA 
HETATM   17  C   UNL     1     -11.671  11.614  68.361  1.00  0.00    -0.307 A  
HETATM   18  C   UNL     1     -11.997  13.118  69.930  1.00  0.00    -0.317 A  
HETATM   19  C   UNL     1     -11.878  11.733  69.718  1.00  0.00    -0.420 A  
BRANCH  19  20
HETATM   20  C   UNL     1     -11.977  10.621  70.625  1.00  0.00    -0.367 A  
HETATM   21  C   UNL     1     -10.884   9.795  70.892  1.00  0.00    -0.399 A  
HETATM   22  C   UNL     1      -9.541   9.641  70.443  1.00  0.00    -0.292 A  
HETATM   23  C   UNL     1      -8.976   8.608  71.161  1.00  0.00    -0.201 A  
HETATM   24  N   UNL     1      -9.933   8.115  72.009  1.00  0.00    -0.211 NA 
HETATM   25  H   UNL     1      -9.796   7.346  72.665  1.00  0.00     0.000 HD 
HETATM   26  C   UNL     1     -11.098   8.812  71.844  1.00  0.00    -0.364 A  
HETATM   27  N   UNL     1     -12.236   8.566  72.511  1.00  0.00    -0.371 NA 
HETATM   28  C   UNL     1     -13.220   9.405  72.144  1.00  0.00    -0.460 A  
HETATM   29  N   UNL     1     -13.162  10.406  71.246  1.00  0.00    -0.368 NA 
ENDBRANCH  19  20
ENDBRANCH   8  15
ENDBRANCH   3   6
ENDBRANCH   2   3
TORSDOF 6
ENDMDL
MODEL        3
REMARK 921   NORMALIZED FREE ENERGY PREDICTED BY IDOCK:   -7.34 KCAL/MOL
REMARK 922        TOTAL FREE ENERGY PREDICTED BY IDOCK:  -10.43 KCAL/MOL
REMARK 923 INTER-LIGAND FREE ENERGY PREDICTED BY IDOCK:   -9.85 KCAL/MOL
REMARK 924 INTRA-LIGAND FREE ENERGY PREDICTED BY IDOCK:   -0.58 KCAL/MOL
REMARK 927      BINDING AFFINITY PREDICTED BY RF-SCORE:    0.00 PKD
ROOT
HETATM    1  C   UNL     1     -10.432  19.015  67.675  1.00  0.00    -0.523 C  
HETATM    2  C   UNL     1     -10.614  17.521  67.507  1.00  0.00    -0.333 C  
ENDROOT
BRANCH   2   3
HETATM    3  S   UNL     1     -10.159  16.980  65.869  1.00  0.00    -0.212 S  
HETATM    4  O   UNL     1     -11.078  17.556  64.915  1.00  0.00    -0.860 OA 
HETATM    5  O   UNL     1      -8.725  17.094  65.723  1.00  0.00    -0.527 OA 
BRANCH   3   6
HETATM    6  N   UNL     1     -10.533  15.341  66.006  1.00  0.00    -0.300 N  
HETATM    7  C   UNL     1     -11.905  14.753  66.009  1.00  0.00    -0.200 C  
HETATM    8  C   UNL     1     -11.311  13.383  65.538  1.00  0.00    -0.293 C  
HETATM    9  C   UNL     1     -10.086  14.248  65.095  1.00  0.00    -0.321 C  
BRANCH   8  10
HETATM   10  C   UNL     1     -12.099  12.603  64.494  1.00  0.00    -0.485 C  
BRANCH  10  11
HETATM   11  C   UNL     1     -11.194  11.739  63.633  1.00  0.00    -0.435 C  
HETATM   12  H1  UNL     1      -9.835  10.441  62.340  1.00  0.00     0.000 HD 
HETATM   13  N   UNL     1     -10.442  11.020  62.918  1.00  0.00    -0.797 NA 
HETATM   14  H2  UNL     1     -10.376  10.038  63.186  1.00  0.00     0.000 HD 
ENDBRANCH  10  11
ENDBRANCH   8  10
BRANCH   8  15
HETATM   15  N   UNL     1     -11.056  12.553  66.707  1.00  0.00    -0.266 NA 
HETATM   16  N   UNL     1      -9.949  11.779  66.768  1.00  0.00    -0.199 NA 
HETATM   17  C   UNL     1     -11.857  12.405  67.808  1.00  0.00    -0.298 A  
HETATM   18  C   UNL     1     -10.068  11.134  67.929  1.00  0.00    -0.176 A  
HETATM   19  C   UNL     1     -11.243  11.477  68.621  1.00  0.00    -0.307 A  
BRANCH  19  20
HETATM   20  C   UNL     1     -11.753  11.052  69.897  1.00  0.00    -0.346 A  
HETATM   21  C   UNL     1     -12.375  11.946  70.770  1.00  0.00    -0.416 A  
HETATM   22  C   UNL     1     -12.644  13.343  70.839  1.00  0.00    -0.406 A  
HETATM   23  C   UNL     1     -13.342  13.578  72.004  1.00  0.00    -0.475 A  
HETATM   24  N   UNL     1     -13.487  12.381  72.655  1.00  0.00    -0.528 NA 
HETATM   25  H   UNL     1     -13.966  12.250  73.546  1.00  0.00     0.000 HD 
HETATM   26  C   UNL     1     -12.890  11.387  71.928  1.00  0.00    -0.275 A  
HETATM   27  N   UNL     1     -12.835  10.099  72.298  1.00  0.00    -0.278 NA 
HETATM   28  C   UNL     1     -12.186   9.347  71.392  1.00  0.00    -0.356 A  
HETATM   29  N   UNL     1     -11.642   9.743  70.227  1.00  0.00    -0.243 NA 
ENDBRANCH  19  20
ENDBRANCH   8  15
ENDBRANCH   3   6
ENDBRANCH   2   3
TORSDOF 6
ENDMDL
MODEL        4
REMARK 921   NORMALIZED FREE ENERGY PREDICTED BY IDOCK:   -7.29 KCAL/MOL
REMARK 922        TOTAL FREE ENERGY PREDICTED BY IDOCK:  -10.35 KCAL/MOL
REMARK 923 INTER-LIGAND FREE ENERGY PREDICTED BY IDOCK:  -10.12 KCAL/MOL
REMARK 924 INTRA-LIGAND FREE ENERGY PREDICTED BY IDOCK:   -0.23 KCAL/MOL
REMARK 927      BINDING AFFINITY PREDICTED BY RF-SCORE:    0.00 PKD
ROOT
HETATM    1  C   UNL     1     -10.489  10.886  63.875  1.00  0.00    -0.359 C  
HETATM    2  C   UNL     1     -10.561  12.339  63.456  1.00  0.00    -0.448 C  
ENDROOT
BRANCH   2   3
HETATM    3  S   UNL     1     -12.039  13.131  64.069  1.00  0.00    -0.449 S  
HETATM    4  O   UNL     1     -12.537  14.035  63.059  1.00  0.00    -0.643 OA 
HETATM    5  O   UNL     1     -12.879  12.130  64.689  1.00  0.00    -0.586 OA 
BRANCH   3   6
HETATM    6  N   UNL     1     -11.361  14.066  65.297  1.00  0.00    -0.311 N  
HETATM    7  C   UNL     1     -10.083  13.780  66.012  1.00  0.00    -0.311 C  
HETATM    8  C   UNL     1      -9.958  15.296  66.382  1.00  0.00    -0.275 C  
HETATM    9  C   UNL     1     -10.966  15.502  65.206  1.00  0.00    -0.380 C  
BRANCH   8  10
HETATM   10  C   UNL     1      -8.571  15.921  66.304  1.00  0.00    -0.348 C  
BRANCH  10  11
HETATM   11  C   UNL     1      -7.577  15.201  67.202  1.00  0.00    -0.168 C  
HETATM   12  H1  UNL     1      -6.085  14.122  68.548  1.00  0.00     0.000 HD 
HETATM   13  N   UNL     1      -6.753  14.605  67.947  1.00  0.00    -0.146 NA 
HETATM   14  H2  UNL     1      -6.764  14.873  68.931  1.00  0.00     0.000 HD 
ENDBRANCH  10  11
ENDBRANCH   8  10
BRANCH   8  15
HETATM   15  N   UNL     1     -10.537  15.508  67.701  1.00  0.00    -0.283 NA 
HETATM   16  N   UNL     1     -10.173  16.578  68.444  1.00  0.00    -0.253 NA 
HETATM   17  C   UNL     1     -11.428  14.698  68.355  1.00  0.00    -0.311 A  
HETATM   18  C   UNL     1     -10.849  16.426  69.584  1.00  0.00    -0.346 A  
HETATM   19  C   UNL     1     -11.643  15.266  69.592  1.00  0.00    -0.340 A  
BRANCH  19  20
HETATM   20  C   UNL     1     -12.537  14.732  70.585  1.00  0.00    -0.354 A  
HETATM   21  C   UNL     1     -12.593  13.365  70.859  1.00  0.00    -0.406 A  
HETATM   22  C   UNL     1     -12.020  12.161  70.358  1.00  0.00    -0.360 A  
HETATM   23  C   UNL     1     -12.498  11.119  71.123  1.00  0.00    -0.393 A  
HETATM   24  N   UNL     1     -13.359  11.643  72.053  1.00  0.00    -0.500 NA 
HETATM   25  H   UNL     1     -13.861  11.103  72.758  1.00  0.00     0.000 HD 
HETATM   26  C   UNL     1     -13.440  12.999  71.893  1.00  0.00    -0.408 A  
HETATM   27  N   UNL     1     -14.211  13.810  72.632  1.00  0.00    -0.673 NA 
HETATM   28  C   UNL     1     -14.092  15.094  72.252  1.00  0.00    -0.534 A  
HETATM   29  N   UNL     1     -13.313  15.599  71.278  1.00  0.00    -0.537 NA 
ENDBRANCH  19  20
ENDBRANCH   8  15
ENDBRANCH   3   6
ENDBRANCH   2   3
TORSDOF 6
ENDMDL
MODEL        5
REMARK 921   NORMALIZED FREE ENERGY PREDICTED BY IDOCK:   -7.27 KCAL/MOL
REMARK 922        TOTAL FREE ENERGY PREDICTED BY IDOCK:  -10.33 KCAL/MOL
REMARK 923 INTER-LIGAND FREE ENERGY PREDICTED BY IDOCK:   -9.62 KCAL/MOL
REMARK 924 INTRA-LIGAND FREE ENERGY PREDICTED BY IDOCK:   -0.71 KCAL/MOL
REMARK 927      BINDING AFFINITY PREDICTED BY RF-SCORE:    0.00 PKD
ROOT
HETATM    1  C   UNL     1     -10.158  19.867  68.046  1.00  0.00    -0.572 C  
HETATM    2  C   UNL     1     -10.704  18.507  67.666  1.00  0.00    -0.364 C  
ENDROOT
BRANCH   2   3
HETATM    3  S   UNL     1     -10.057  17.950  66.098  1.00  0.00    -0.277 S  
HETATM    4  O   UNL     1     -10.983  18.320  65.053  1.00  0.00    -0.684 OA 
HETATM    5  O   UNL     1      -8.650  18.279  66.033  1.00  0.00    -0.494 OA 
BRANCH   3   6
HETATM    6  N   UNL     1     -10.186  16.284  66.324  1.00  0.00    -0.312 N  
HETATM    7  C   UNL     1     -11.293  15.415  65.828  1.00  0.00    -0.115 C  
HETATM    8  C   UNL     1     -10.339  14.176  65.889  1.00  0.00    -0.316 C  
HETATM    9  C   UNL     1      -9.204  15.250  65.887  1.00  0.00    -0.201 C  
BRANCH   8  10
HETATM   10  C   UNL     1     -10.428  13.170  64.749  1.00  0.00    -0.390 C  
BRANCH  10  11
HETATM   11  C   UNL     1     -11.863  12.751  64.477  1.00  0.00    -0.379 C  
HETATM   12  H1  UNL     1     -14.017  12.121  64.069  1.00  0.00     0.000 HD 
HETATM   13  N   UNL     1     -13.054  12.402  64.251  1.00  0.00    -0.787 NA 
HETATM   14  H2  UNL     1     -13.225  11.953  63.351  1.00  0.00     0.000 HD 
ENDBRANCH  10  11
ENDBRANCH   8  10
BRANCH   8  15
HETATM   15  N   UNL     1     -10.517  13.507  67.171  1.00  0.00    -0.256 NA 
HETATM   16  N   UNL     1      -9.670  12.526  67.554  1.00  0.00    -0.193 NA 
HETATM   17  C   UNL     1     -11.516  13.720  68.084  1.00  0.00    -0.313 A  
HETATM   18  C   UNL     1     -10.155  12.118  68.728  1.00  0.00    -0.084 A  
HETATM   19  C   UNL     1     -11.313  12.820  69.108  1.00  0.00    -0.337 A  
BRANCH  19  20
HETATM   20  C   UNL     1     -12.137  12.729  70.284  1.00  0.00    -0.297 A  
HETATM   21  C   UNL     1     -12.449  11.499  70.864  1.00  0.00    -0.464 A  
HETATM   22  C   UNL     1     -12.240  10.117  70.590  1.00  0.00    -0.394 A  
HETATM   23  C   UNL     1     -12.811   9.395  71.617  1.00  0.00    -0.378 A  
HETATM   24  N   UNL     1     -13.379  10.287  72.489  1.00  0.00    -0.504 NA 
HETATM   25  H   UNL     1     -13.873  10.037  73.347  1.00  0.00     0.000 HD 
HETATM   26  C   UNL     1     -13.184  11.563  72.036  1.00  0.00    -0.337 A  
HETATM   27  N   UNL     1     -13.633  12.668  72.651  1.00  0.00    -0.376 NA 
HETATM   28  C   UNL     1     -13.295  13.782  71.980  1.00  0.00    -0.447 A  
HETATM   29  N   UNL     1     -12.585  13.880  70.841  1.00  0.00    -0.349 NA 
ENDBRANCH  19  20
ENDBRANCH   8  15
ENDBRANCH   3   6
ENDBRANCH   2   3
TORSDOF 6
ENDMDL
MODEL        6
REMARK 921   NORMALIZED FREE ENERGY PREDICTED BY IDOCK:   -7.18 KCAL/MOL
REMARK 922        TOTAL FREE ENERGY PREDICTED BY IDOCK:  -10.20 KCAL/MOL
REMARK 923 INTER-LIGAND FREE ENERGY PREDICTED BY IDOCK:   -9.68 KCAL/MOL
REMARK 924 INTRA-LIGAND FREE ENERGY PREDICTED BY IDOCK:   -0.52 KCAL/MOL
REMARK 927      BINDING AFFINITY PREDICTED BY RF-SCORE:    0.00 PKD
ROOT
HETATM    1  C   UNL     1      -6.278  19.806  66.532  1.00  0.00    -0.176 C  
HETATM    2  C   UNL     1      -7.712  19.673  66.064  1.00  0.00    -0.326 C  
ENDROOT
BRANCH   2   3
HETATM    3  S   UNL     1      -8.851  19.604  67.436  1.00  0.00    -0.327 S  
HETATM    4  O   UNL     1      -8.113  19.782  68.665  1.00  0.00    -0.308 OA 
HETATM    5  O   UNL     1     -10.015  20.400  67.114  1.00  0.00    -0.441 OA 
BRANCH   3   6
HETATM    6  N   UNL     1      -9.296  17.980  67.342  1.00  0.00    -0.252 N  
HETATM    7  C   UNL     1     -10.470  17.435  66.600  1.00  0.00    -0.253 C  
HETATM    8  C   UNL     1      -9.763  16.041  66.519  1.00  0.00    -0.264 C  
HETATM    9  C   UNL     1      -8.465  16.860  66.813  1.00  0.00    -0.234 C  
BRANCH   8  10
HETATM   10  C   UNL     1      -9.888  15.270  65.212  1.00  0.00    -0.250 C  
BRANCH  10  11
HETATM   11  C   UNL     1     -11.166  15.623  64.469  1.00  0.00    -0.325 C  
HETATM   12  H1  UNL     1     -13.084  16.153  63.354  1.00  0.00     0.000 HD 
HETATM   13  N   UNL     1     -12.227  15.917  63.852  1.00  0.00    -1.148 NA 
HETATM   14  H2  UNL     1     -12.421  16.913  63.747  1.00  0.00     0.000 HD 
ENDBRANCH  10  11
ENDBRANCH   8  10
BRANCH   8  15
HETATM   15  N   UNL     1     -10.210  15.221  67.637  1.00  0.00    -0.240 NA 
HETATM   16  N   UNL     1      -9.642  14.016  67.872  1.00  0.00    -0.215 NA 
HETATM   17  C   UNL     1     -11.222  15.500  68.517  1.00  0.00    -0.333 A  
HETATM   18  C   UNL     1     -10.319  13.537  68.916  1.00  0.00    -0.094 A  
HETATM   19  C   UNL     1     -11.324  14.414  69.358  1.00  0.00    -0.319 A  
BRANCH  19  20
HETATM   20  C   UNL     1     -12.260  14.317  70.448  1.00  0.00    -0.342 A  
HETATM   21  C   UNL     1     -12.583  13.088  71.025  1.00  0.00    -0.386 A  
HETATM   22  C   UNL     1     -12.296  11.710  70.809  1.00  0.00    -0.454 A  
HETATM   23  C   UNL     1     -12.942  10.989  71.791  1.00  0.00    -0.438 A  
HETATM   24  N   UNL     1     -13.628  11.876  72.579  1.00  0.00    -0.445 NA 
HETATM   25  H   UNL     1     -14.197  11.626  73.389  1.00  0.00     0.000 HD 
HETATM   26  C   UNL     1     -13.435  13.149  72.115  1.00  0.00    -0.560 A  
HETATM   27  N   UNL     1     -13.986  14.248  72.652  1.00  0.00    -0.610 NA 
HETATM   28  C   UNL     1     -13.623  15.360  71.990  1.00  0.00    -0.487 A  
HETATM   29  N   UNL     1     -12.805  15.460  70.926  1.00  0.00    -0.450 NA 
ENDBRANCH  19  20
ENDBRANCH   8  15
ENDBRANCH   3   6
ENDBRANCH   2   3
TORSDOF 6
ENDMDL
MODEL        7
REMARK 921   NORMALIZED FREE ENERGY PREDICTED BY IDOCK:   -7.10 KCAL/MOL
REMARK 922        TOTAL FREE ENERGY PREDICTED BY IDOCK:  -10.10 KCAL/MOL
REMARK 923 INTER-LIGAND FREE ENERGY PREDICTED BY IDOCK:   -9.69 KCAL/MOL
REMARK 924 INTRA-LIGAND FREE ENERGY PREDICTED BY IDOCK:   -0.41 KCAL/MOL
REMARK 927      BINDING AFFINITY PREDICTED BY RF-SCORE:    0.00 PKD
ROOT
HETATM    1  C   UNL     1     -10.716  10.981  64.157  1.00  0.00    -0.344 C  
HETATM    2  C   UNL     1     -10.743  12.388  63.598  1.00  0.00    -0.455 C  
ENDROOT
BRANCH   2   3
HETATM    3  S   UNL     1     -12.134  13.318  64.217  1.00  0.00    -0.417 S  
HETATM    4  O   UNL     1     -12.531  14.284  63.219  1.00  0.00    -0.705 OA 
HETATM    5  O   UNL     1     -13.077  12.400  64.818  1.00  0.00    -0.806 OA 
BRANCH   3   6
HETATM    6  N   UNL     1     -11.370  14.161  65.463  1.00  0.00    -0.312 N  
HETATM    7  C   UNL     1     -10.132  13.734  66.177  1.00  0.00    -0.307 C  
HETATM    8  C   UNL     1      -9.855  15.224  66.571  1.00  0.00    -0.266 C  
HETATM    9  C   UNL     1     -10.832  15.550  65.395  1.00  0.00    -0.390 C  
BRANCH   8  10
HETATM   10  C   UNL     1      -8.412  15.705  66.508  1.00  0.00    -0.311 C  
BRANCH  10  11
HETATM   11  C   UNL     1      -7.460  14.724  67.174  1.00  0.00    -0.034 C  
HETATM   12  H1  UNL     1      -6.031  13.253  68.172  1.00  0.00     0.000 HD 
HETATM   13  N   UNL     1      -6.670  13.911  67.726  1.00  0.00    -0.166 NA 
HETATM   14  H2  UNL     1      -6.172  14.258  68.547  1.00  0.00     0.000 HD 
ENDBRANCH  10  11
ENDBRANCH   8  10
BRANCH   8  15
HETATM   15  N   UNL     1     -10.416  15.473  67.892  1.00  0.00    -0.260 NA 
HETATM   16  N   UNL     1     -10.315  16.697  68.458  1.00  0.00    -0.283 NA 
HETATM   17  C   UNL     1     -11.036  14.569  68.713  1.00  0.00    -0.251 A  
HETATM   18  C   UNL     1     -10.881  16.548  69.656  1.00  0.00    -0.322 A  
HETATM   19  C   UNL     1     -11.343  15.238  69.877  1.00  0.00    -0.308 A  
BRANCH  19  20
HETATM   20  C   UNL     1     -12.025  14.647  70.998  1.00  0.00    -0.339 A  
HETATM   21  C   UNL     1     -12.153  15.321  72.214  1.00  0.00    -0.487 A  
HETATM   22  C   UNL     1     -11.709  16.541  72.799  1.00  0.00    -0.309 A  
HETATM   23  C   UNL     1     -12.231  16.609  74.073  1.00  0.00    -0.297 A  
HETATM   24  N   UNL     1     -12.956  15.466  74.290  1.00  0.00    -0.587 NA 
HETATM   25  H   UNL     1     -13.460  15.243  75.149  1.00  0.00     0.000 HD 
HETATM   26  C   UNL     1     -12.902  14.668  73.179  1.00  0.00    -0.481 A  
HETATM   27  N   UNL     1     -13.491  13.468  73.073  1.00  0.00    -0.484 NA 
HETATM   28  C   UNL     1     -13.269  12.909  71.870  1.00  0.00    -0.423 A  
HETATM   29  N   UNL     1     -12.574  13.419  70.837  1.00  0.00    -0.349 NA 
ENDBRANCH  19  20
ENDBRANCH   8  15
ENDBRANCH   3   6
ENDBRANCH   2   3
TORSDOF 6
ENDMDL
MODEL        8
REMARK 921   NORMALIZED FREE ENERGY PREDICTED BY IDOCK:   -7.10 KCAL/MOL
REMARK 922        TOTAL FREE ENERGY PREDICTED BY IDOCK:  -10.10 KCAL/MOL
REMARK 923 INTER-LIGAND FREE ENERGY PREDICTED BY IDOCK:   -9.61 KCAL/MOL
REMARK 924 INTRA-LIGAND FREE ENERGY PREDICTED BY IDOCK:   -0.49 KCAL/MOL
REMARK 927      BINDING AFFINITY PREDICTED BY RF-SCORE:    0.00 PKD
ROOT
HETATM    1  C   UNL     1     -10.520  10.882  63.899  1.00  0.00    -0.359 C  
HETATM    2  C   UNL     1     -10.690  12.328  63.481  1.00  0.00    -0.451 C  
ENDROOT
BRANCH   2   3
HETATM    3  S   UNL     1     -12.272  12.980  63.986  1.00  0.00    -0.411 S  
HETATM    4  O   UNL     1     -12.484  14.250  63.333  1.00  0.00    -0.761 OA 
HETATM    5  O   UNL     1     -13.251  11.915  63.937  1.00  0.00    -0.626 OA 
BRANCH   3   6
HETATM    6  N   UNL     1     -11.935  13.294  65.609  1.00  0.00    -0.387 N  
HETATM    7  C   UNL     1     -10.577  13.461  66.205  1.00  0.00    -0.292 C  
HETATM    8  C   UNL     1     -11.203  14.281  67.382  1.00  0.00    -0.316 C  
HETATM    9  C   UNL     1     -12.408  14.463  66.404  1.00  0.00    -0.271 C  
BRANCH   8  10
HETATM   10  C   UNL     1     -10.434  15.503  67.867  1.00  0.00    -0.266 C  
BRANCH  10  11
HETATM   11  C   UNL     1      -9.985  16.382  66.711  1.00  0.00    -0.272 C  
HETATM   12  H1  UNL     1      -9.311  17.702  64.977  1.00  0.00     0.000 HD 
HETATM   13  N   UNL     1      -9.613  17.112  65.753  1.00  0.00    -0.537 NA 
HETATM   14  H2  UNL     1     -10.275  17.828  65.453  1.00  0.00     0.000 HD 
ENDBRANCH  10  11
ENDBRANCH   8  10
BRANCH   8  15
HETATM   15  N   UNL     1     -11.474  13.378  68.493  1.00  0.00    -0.287 NA 
HETATM   16  N   UNL     1     -12.235  13.784  69.534  1.00  0.00    -0.325 NA 
HETATM   17  C   UNL     1     -10.999  12.105  68.660  1.00  0.00    -0.245 A  
HETATM   18  C   UNL     1     -12.229  12.742  70.366  1.00  0.00    -0.293 A  
HETATM   19  C   UNL     1     -11.466  11.666  69.880  1.00  0.00    -0.308 A  
BRANCH  19  20
HETATM   20  C   UNL     1     -11.208  10.360  70.425  1.00  0.00    -0.321 A  
HETATM   21  C   UNL     1     -12.136   9.714  71.244  1.00  0.00    -0.457 A  
HETATM   22  C   UNL     1     -13.396   9.999  71.845  1.00  0.00    -0.516 A  
HETATM   23  C   UNL     1     -13.793   8.876  72.538  1.00  0.00    -0.407 A  
HETATM   24  N   UNL     1     -12.811   7.929  72.399  1.00  0.00    -0.540 NA 
HETATM   25  H   UNL     1     -12.836   6.993  72.805  1.00  0.00     0.000 HD 
HETATM   26  C   UNL     1     -11.794   8.430  71.633  1.00  0.00    -0.304 A  
HETATM   27  N   UNL     1     -10.672   7.762  71.324  1.00  0.00    -0.227 NA 
HETATM   28  C   UNL     1      -9.848   8.500  70.561  1.00  0.00    -0.180 A  
HETATM   29  N   UNL     1     -10.044   9.749  70.101  1.00  0.00    -0.253 NA 
ENDBRANCH  19  20
ENDBRANCH   8  15
ENDBRANCH   3   6
ENDBRANCH   2   3
TORSDOF 6
ENDMDL
MODEL        9
REMARK 921   NORMALIZED FREE ENERGY PREDICTED BY IDOCK:   -7.00 KCAL/MOL
REMARK 922        TOTAL FREE ENERGY PREDICTED BY IDOCK:   -9.97 KCAL/MOL
REMARK 923 INTER-LIGAND FREE ENERGY PREDICTED BY IDOCK:   -9.20 KCAL/MOL
REMARK 924 INTRA-LIGAND FREE ENERGY PREDICTED BY IDOCK:   -0.77 KCAL/MOL
REMARK 927      BINDING AFFINITY PREDICTED BY RF-SCORE:    0.00 PKD
ROOT
HETATM    1  C   UNL     1     -10.777  19.530  66.791  1.00  0.00    -0.569 C  
HETATM    2  C   UNL     1      -9.624  20.449  67.138  1.00  0.00    -0.447 C  
ENDROOT
BRANCH   2   3
HETATM    3  S   UNL     1      -8.051  19.617  66.994  1.00  0.00    -0.298 S  
HETATM    4  O   UNL     1      -7.671  19.575  65.602  1.00  0.00    -0.423 OA 
HETATM    5  O   UNL     1      -7.164  20.120  68.020  1.00  0.00    -0.285 OA 
BRANCH   3   6
HETATM    6  N   UNL     1      -8.522  18.060  67.440  1.00  0.00    -0.237 N  
HETATM    7  C   UNL     1      -8.484  16.851  66.566  1.00  0.00    -0.271 C  
HETATM    8  C   UNL     1      -8.430  15.942  67.839  1.00  0.00    -0.161 C  
HETATM    9  C   UNL     1      -7.960  17.248  68.557  1.00  0.00    -0.261 C  
BRANCH   8  10
HETATM   10  C   UNL     1      -7.507  14.732  67.794  1.00  0.00    -0.178 C  
BRANCH  10  11
HETATM   11  C   UNL     1      -8.164  13.546  67.106  1.00  0.00    -0.112 C  
HETATM   12  H1  UNL     1      -9.151  11.766  66.075  1.00  0.00     0.000 HD 
HETATM   13  N   UNL     1      -8.710  12.562  66.536  1.00  0.00    -0.407 NA 
HETATM   14  H2  UNL     1      -9.730  12.540  66.561  1.00  0.00     0.000 HD 
ENDBRANCH  10  11
ENDBRANCH   8  10
BRANCH   8  15
HETATM   15  N   UNL     1      -9.785  15.533  68.184  1.00  0.00    -0.207 NA 
HETATM   16  N   UNL     1     -10.732  15.423  67.226  1.00  0.00    -0.302 NA 
HETATM   17  C   UNL     1     -10.277  15.270  69.435  1.00  0.00    -0.256 A  
HETATM   18  C   UNL     1     -11.835  15.087  67.896  1.00  0.00    -0.218 A  
HETATM   19  C   UNL     1     -11.616  14.985  69.281  1.00  0.00    -0.338 A  
BRANCH  19  20
HETATM   20  C   UNL     1     -12.501  14.631  70.360  1.00  0.00    -0.352 A  
HETATM   21  C   UNL     1     -12.618  13.313  70.805  1.00  0.00    -0.357 A  
HETATM   22  C   UNL     1     -12.126  12.026  70.444  1.00  0.00    -0.407 A  
HETATM   23  C   UNL     1     -12.630  11.116  71.348  1.00  0.00    -0.374 A  
HETATM   24  N   UNL     1     -13.428  11.799  72.229  1.00  0.00    -0.547 NA 
HETATM   25  H   UNL     1     -13.932  11.380  73.011  1.00  0.00     0.000 HD 
HETATM   26  C   UNL     1     -13.444  13.127  71.901  1.00  0.00    -0.424 A  
HETATM   27  N   UNL     1     -14.145  14.066  72.555  1.00  0.00    -0.674 NA 
HETATM   28  C   UNL     1     -13.973  15.283  72.012  1.00  0.00    -0.543 A  
HETATM   29  N   UNL     1     -13.205  15.619  70.960  1.00  0.00    -0.553 NA 
ENDBRANCH  19  20
ENDBRANCH   8  15
ENDBRANCH   3   6
ENDBRANCH   2   3
TORSDOF 6
ENDMDL
MODEL       10
REMARK 921   NORMALIZED FREE ENERGY PREDICTED BY IDOCK:   -6.99 KCAL/MOL
REMARK 922        TOTAL FREE ENERGY PREDICTED BY IDOCK:   -9.96 KCAL/MOL
REMARK 923 INTER-LIGAND FREE ENERGY PREDICTED BY IDOCK:   -9.32 KCAL/MOL
REMARK 924 INTRA-LIGAND FREE ENERGY PREDICTED BY IDOCK:   -0.64 KCAL/MOL
REMARK 927      BINDING AFFINITY PREDICTED BY RF-SCORE:    0.00 PKD
ROOT
HETATM    1  C   UNL     1     -10.043  20.134  66.723  1.00  0.00    -0.591 C  
HETATM    2  C   UNL     1     -10.112  18.731  66.156  1.00  0.00    -0.384 C  
ENDROOT
BRANCH   2   3
HETATM    3  S   UNL     1      -8.779  17.709  66.759  1.00  0.00    -0.267 S  
HETATM    4  O   UNL     1      -7.737  17.664  65.760  1.00  0.00    -0.540 OA 
HETATM    5  O   UNL     1      -8.512  18.059  68.137  1.00  0.00    -0.254 OA 
BRANCH   3   6
HETATM    6  N   UNL     1      -9.555  16.211  66.750  1.00  0.00    -0.231 N  
HETATM    7  C   UNL     1     -11.029  15.988  66.811  1.00  0.00    -0.112 C  
HETATM    8  C   UNL     1     -10.839  14.587  66.142  1.00  0.00    -0.317 C  
HETATM    9  C   UNL     1      -9.461  15.168  65.688  1.00  0.00    -0.173 C  
BRANCH   8  10
HETATM   10  C   UNL     1     -11.862  14.169  65.095  1.00  0.00    -0.372 C  
BRANCH  10  11
HETATM   11  C   UNL     1     -11.328  13.069  64.191  1.00  0.00    -0.397 C  
HETATM   12  H1  UNL     1     -10.527  11.419  62.835  1.00  0.00     0.000 HD 
HETATM   13  N   UNL     1     -10.885  12.157  63.441  1.00  0.00    -0.598 NA 
HETATM   14  H2  UNL     1     -10.441  12.466  62.575  1.00  0.00     0.000 HD 
ENDBRANCH  10  11
ENDBRANCH   8  10
BRANCH   8  15
HETATM   15  N   UNL     1     -10.738  13.576  67.185  1.00  0.00    -0.277 NA 
HETATM   16  N   UNL     1      -9.658  12.765  67.251  1.00  0.00    -0.203 NA 
HETATM   17  C   UNL     1     -11.668  13.284  68.148  1.00  0.00    -0.362 A  
HETATM   18  C   UNL     1      -9.925  11.951  68.273  1.00  0.00    -0.202 A  
HETATM   19  C   UNL     1     -11.170  12.221  68.869  1.00  0.00    -0.323 A  
BRANCH  19  20
HETATM   20  C   UNL     1     -11.836  11.619  69.993  1.00  0.00    -0.355 A  
HETATM   21  C   UNL     1     -12.506  12.390  70.944  1.00  0.00    -0.367 A  
HETATM   22  C   UNL     1     -12.714  13.769  71.232  1.00  0.00    -0.450 A  
HETATM   23  C   UNL     1     -13.523  13.848  72.345  1.00  0.00    -0.560 A  
HETATM   24  N   UNL     1     -13.795  12.569  72.756  1.00  0.00    -0.558 NA 
HETATM   25  H   UNL     1     -14.375  12.320  73.558  1.00  0.00     0.000 HD 
HETATM   26  C   UNL     1     -13.170  11.676  71.928  1.00  0.00    -0.369 A  
HETATM   27  N   UNL     1     -13.218  10.343  72.068  1.00  0.00    -0.451 NA 
HETATM   28  C   UNL     1     -12.511   9.716  71.112  1.00  0.00    -0.332 A  
HETATM   29  N   UNL     1     -11.824  10.268  70.095  1.00  0.00    -0.270 NA 
ENDBRANCH  19  20
ENDBRANCH   8  15
ENDBRANCH   3   6
ENDBRANCH   2   3
TORSDOF 6
ENDMDL
MODEL       11
REMARK 921   NORMALIZED FREE ENERGY PREDICTED BY IDOCK:   -6.94 KCAL/MOL
REMARK 922        TOTAL FREE ENERGY PREDICTED BY IDOCK:   -9.89 KCAL/MOL
REMARK 923 INTER-LIGAND FREE ENERGY PREDICTED BY IDOCK:   -9.23 KCAL/MOL
REMARK 924 INTRA-LIGAND FREE ENERGY PREDICTED BY IDOCK:   -0.66 KCAL/MOL
REMARK 927      BINDING AFFINITY PREDICTED BY RF-SCORE:    0.00 PKD
ROOT
HETATM    1  C   UNL     1     -10.752  11.294  63.483  1.00  0.00    -0.408 C  
HETATM    2  C   UNL     1     -10.689  12.737  63.937  1.00  0.00    -0.409 C  
ENDROOT
BRANCH   2   3
HETATM    3  S   UNL     1     -12.263  13.302  64.561  1.00  0.00    -0.394 S  
HETATM    4  O   UNL     1     -12.530  14.619  64.032  1.00  0.00    -0.796 OA 
HETATM    5  O   UNL     1     -13.219  12.221  64.457  1.00  0.00    -0.799 OA 
BRANCH   3   6
HETATM    6  N   UNL     1     -11.864  13.480  66.191  1.00  0.00    -0.369 N  
HETATM    7  C   UNL     1     -10.556  13.128  66.815  1.00  0.00    -0.263 C  
HETATM    8  C   UNL     1     -10.848  14.134  67.978  1.00  0.00    -0.246 C  
HETATM    9  C   UNL     1     -11.875  14.749  66.974  1.00  0.00    -0.271 C  
BRANCH   8  10
HETATM   10  C   UNL     1      -9.684  14.979  68.478  1.00  0.00    -0.217 C  
BRANCH  10  11
HETATM   11  C   UNL     1      -9.013  15.742  67.347  1.00  0.00    -0.193 C  
HETATM   12  H1  UNL     1      -8.007  16.887  65.650  1.00  0.00     0.000 HD 
HETATM   13  N   UNL     1      -8.456  16.374  66.409  1.00  0.00    -0.302 NA 
HETATM   14  H2  UNL     1      -7.497  16.102  66.194  1.00  0.00     0.000 HD 
ENDBRANCH  10  11
ENDBRANCH   8  10
BRANCH   8  15
HETATM   15  N   UNL     1     -11.462  13.412  69.083  1.00  0.00    -0.283 NA 
HETATM   16  N   UNL     1     -12.117  14.082  70.058  1.00  0.00    -0.329 NA 
HETATM   17  C   UNL     1     -11.430  12.061  69.310  1.00  0.00    -0.301 A  
HETATM   18  C   UNL     1     -12.496  13.127  70.909  1.00  0.00    -0.323 A  
HETATM   19  C   UNL     1     -12.088  11.845  70.501  1.00  0.00    -0.422 A  
BRANCH  19  20
HETATM   20  C   UNL     1     -12.297  10.549  71.090  1.00  0.00    -0.405 A  
HETATM   21  C   UNL     1     -11.259   9.622  71.202  1.00  0.00    -0.454 A  
HETATM   22  C   UNL     1      -9.894   9.509  70.811  1.00  0.00    -0.309 A  
HETATM   23  C   UNL     1      -9.424   8.300  71.276  1.00  0.00    -0.172 A  
HETATM   24  N   UNL     1     -10.458   7.665  71.913  1.00  0.00    -0.211 NA 
HETATM   25  H   UNL     1     -10.400   6.750  72.360  1.00  0.00     0.000 HD 
HETATM   26  C   UNL     1     -11.580   8.447  71.861  1.00  0.00    -0.329 A  
HETATM   27  N   UNL     1     -12.771   8.106  72.375  1.00  0.00    -0.247 NA 
HETATM   28  C   UNL     1     -13.692   9.065  72.175  1.00  0.00    -0.480 A  
HETATM   29  N   UNL     1     -13.530  10.253  71.564  1.00  0.00    -0.295 NA 
ENDBRANCH  19  20
ENDBRANCH   8  15
ENDBRANCH   3   6
ENDBRANCH   2   3
TORSDOF 6
ENDMDL
MODEL       12
REMARK 921   NORMALIZED FREE ENERGY PREDICTED BY IDOCK:   -6.92 KCAL/MOL
REMARK 922        TOTAL FREE ENERGY PREDICTED BY IDOCK:   -9.85 KCAL/MOL
REMARK 923 INTER-LIGAND FREE ENERGY PREDICTED BY IDOCK:   -9.19 KCAL/MOL
REMARK 924 INTRA-LIGAND FREE ENERGY PREDICTED BY IDOCK:   -0.66 KCAL/MOL
REMARK 927      BINDING AFFINITY PREDICTED BY RF-SCORE:    0.00 PKD
ROOT
HETATM    1  C   UNL     1     -11.043   4.624  73.355  1.00  0.00    -0.418 C  
HETATM    2  C   UNL     1     -11.384   5.834  72.510  1.00  0.00    -0.307 C  
ENDROOT
BRANCH   2   3
HETATM    3  S   UNL     1     -10.108   6.184  71.313  1.00  0.00    -0.192 S  
HETATM    4  O   UNL     1      -8.841   6.295  71.999  1.00  0.00    -0.138 OA 
HETATM    5  O   UNL     1     -10.291   5.317  70.170  1.00  0.00    -0.261 OA 
BRANCH   3   6
HETATM    6  N   UNL     1     -10.577   7.740  70.858  1.00  0.00    -0.212 N  
HETATM    7  C   UNL     1     -11.945   8.151  70.428  1.00  0.00     0.185 C  
HETATM    8  C   UNL     1     -11.623   9.626  70.838  1.00  0.00    -0.344 C  
HETATM    9  C   UNL     1     -10.488   8.973  71.692  1.00  0.00    -0.355 C  
BRANCH   8  10
HETATM   10  C   UNL     1     -12.727  10.415  71.530  1.00  0.00    -0.564 C  
BRANCH  10  11
HETATM   11  C   UNL     1     -13.639   9.513  72.345  1.00  0.00    -0.382 C  
HETATM   12  H1  UNL     1     -15.009   8.159  73.568  1.00  0.00     0.000 HD 
HETATM   13  N   UNL     1     -14.397   8.765  73.021  1.00  0.00    -1.133 NA 
HETATM   14  H2  UNL     1     -15.129   9.235  73.554  1.00  0.00     0.000 HD 
ENDBRANCH  10  11
ENDBRANCH   8  10
BRANCH   8  15
HETATM   15  N   UNL     1     -11.141  10.347  69.668  1.00  0.00    -0.257 NA 
HETATM   16  N   UNL     1      -9.817  10.552  69.487  1.00  0.00    -0.187 NA 
HETATM   17  C   UNL     1     -11.897  10.921  68.680  1.00  0.00    -0.199 A  
HETATM   18  C   UNL     1      -9.750  11.271  68.366  1.00  0.00    -0.194 A  
HETATM   19  C   UNL     1     -11.018  11.541  67.820  1.00  0.00    -0.291 A  
BRANCH  19  20
HETATM   20  C   UNL     1     -11.409  12.248  66.629  1.00  0.00    -0.343 A  
HETATM   21  C   UNL     1     -10.973  11.847  65.365  1.00  0.00    -0.352 A  
HETATM   22  C   UNL     1     -10.096  10.872  64.809  1.00  0.00    -0.383 A  
HETATM   23  C   UNL     1     -10.141  11.004  63.437  1.00  0.00    -0.370 A  
HETATM   24  N   UNL     1     -10.993  12.036  63.142  1.00  0.00    -0.692 NA 
HETATM   25  H   UNL     1     -11.222  12.359  62.202  1.00  0.00     0.000 HD 
HETATM   26  C   UNL     1     -11.490  12.568  64.301  1.00  0.00    -0.362 A  
HETATM   27  N   UNL     1     -12.337  13.606  64.362  1.00  0.00    -0.592 NA 
HETATM   28  C   UNL     1     -12.656  13.914  65.631  1.00  0.00    -0.517 A  
HETATM   29  N   UNL     1     -12.243  13.307  66.759  1.00  0.00    -0.332 NA 
ENDBRANCH  19  20
ENDBRANCH   8  15
ENDBRANCH   3   6
ENDBRANCH   2   3
TORSDOF 6
ENDMDL
MODEL       13
REMARK 921   NORMALIZED FREE ENERGY PREDICTED BY IDOCK:   -6.81 KCAL/MOL
REMARK 922        TOTAL FREE ENERGY PREDICTED BY IDOCK:   -9.70 KCAL/MOL
REMARK 923 INTER-LIGAND FREE ENERGY PREDICTED BY IDOCK:   -9.14 KCAL/MOL
REMARK 924 INTRA-LIGAND FREE ENERGY PREDICTED BY IDOCK:   -0.57 KCAL/MOL
REMARK 927      BINDING AFFINITY PREDICTED BY RF-SCORE:    0.00 PKD
ROOT
HETATM    1  C   UNL     1     -10.042  19.725  67.001  1.00  0.00    -0.551 C  
HETATM    2  C   UNL     1     -10.423  18.287  67.282  1.00  0.00    -0.398 C  
ENDROOT
BRANCH   2   3
HETATM    3  S   UNL     1      -9.020  17.192  67.141  1.00  0.00    -0.233 S  
HETATM    4  O   UNL     1      -8.399  17.392  65.853  1.00  0.00    -0.535 OA 
HETATM    5  O   UNL     1      -8.267  17.241  68.375  1.00  0.00    -0.241 OA 
BRANCH   3   6
HETATM    6  N   UNL     1      -9.829  15.713  67.091  1.00  0.00    -0.227 N  
HETATM    7  C   UNL     1     -11.261  15.485  67.443  1.00  0.00    -0.248 C  
HETATM    8  C   UNL     1     -11.267  14.196  66.556  1.00  0.00    -0.330 C  
HETATM    9  C   UNL     1     -10.002  14.836  65.897  1.00  0.00    -0.326 C  
BRANCH   8  10
HETATM   10  C   UNL     1     -12.507  13.937  65.712  1.00  0.00    -0.530 C  
BRANCH  10  11
HETATM   11  C   UNL     1     -12.151  13.388  64.340  1.00  0.00    -0.416 C  
HETATM   12  H1  UNL     1     -11.617  12.564  62.281  1.00  0.00     0.000 HD 
HETATM   13  N   UNL     1     -11.856  12.932  63.201  1.00  0.00    -0.848 NA 
HETATM   14  H2  UNL     1     -11.275  12.093  63.193  1.00  0.00     0.000 HD 
ENDBRANCH  10  11
ENDBRANCH   8  10
BRANCH   8  15
HETATM   15  N   UNL     1     -10.975  13.044  67.397  1.00  0.00    -0.254 NA 
HETATM   16  N   UNL     1      -9.875  12.291  67.170  1.00  0.00    -0.201 NA 
HETATM   17  C   UNL     1     -11.734  12.558  68.429  1.00  0.00    -0.328 A  
HETATM   18  C   UNL     1      -9.955  11.317  68.077  1.00  0.00    -0.179 A  
HETATM   19  C   UNL     1     -11.099  11.425  68.887  1.00  0.00    -0.290 A  
BRANCH  19  20
HETATM   20  C   UNL     1     -11.564  10.622  69.987  1.00  0.00    -0.325 A  
HETATM   21  C   UNL     1     -10.693   9.821  70.727  1.00  0.00    -0.393 A  
HETATM   22  C   UNL     1      -9.320   9.443  70.696  1.00  0.00    -0.314 A  
HETATM   23  C   UNL     1      -9.090   8.611  71.771  1.00  0.00    -0.247 A  
HETATM   24  N   UNL     1     -10.277   8.452  72.439  1.00  0.00    -0.325 NA 
HETATM   25  H   UNL     1     -10.408   7.889  73.279  1.00  0.00     0.000 HD 
HETATM   26  C   UNL     1     -11.260   9.164  71.806  1.00  0.00    -0.381 A  
HETATM   27  N   UNL     1     -12.543   9.204  72.195  1.00  0.00    -0.381 NA 
HETATM   28  C   UNL     1     -13.284   9.982  71.387  1.00  0.00    -0.395 A  
HETATM   29  N   UNL     1     -12.877  10.683  70.313  1.00  0.00    -0.241 NA 
ENDBRANCH  19  20
ENDBRANCH   8  15
ENDBRANCH   3   6
ENDBRANCH   2   3
TORSDOF 6
ENDMDL
MODEL       14
REMARK 921   NORMALIZED FREE ENERGY PREDICTED BY IDOCK:   -6.77 KCAL/MOL
REMARK 922        TOTAL FREE ENERGY PREDICTED BY IDOCK:   -9.66 KCAL/MOL
REMARK 923 INTER-LIGAND FREE ENERGY PREDICTED BY IDOCK:   -8.76 KCAL/MOL
REMARK 924 INTRA-LIGAND FREE ENERGY PREDICTED BY IDOCK:   -0.89 KCAL/MOL
REMARK 927      BINDING AFFINITY PREDICTED BY RF-SCORE:    0.00 PKD
ROOT
HETATM    1  C   UNL     1     -10.416   7.912  67.129  1.00  0.00    -0.414 C  
HETATM    2  C   UNL     1     -10.160   9.189  66.355  1.00  0.00    -0.274 C  
ENDROOT
BRANCH   2   3
HETATM    3  S   UNL     1      -9.133  10.323  67.273  1.00  0.00    -0.138 S  
HETATM    4  O   UNL     1      -9.174   9.964  68.671  1.00  0.00    -0.132 OA 
HETATM    5  O   UNL     1      -7.888  10.503  66.560  1.00  0.00    -0.122 OA 
BRANCH   3   6
HETATM    6  N   UNL     1     -10.042  11.732  67.085  1.00  0.00    -0.202 N  
HETATM    7  C   UNL     1     -10.075  12.596  65.869  1.00  0.00    -0.264 C  
HETATM    8  C   UNL     1     -11.478  13.138  66.301  1.00  0.00    -0.334 C  
HETATM    9  C   UNL     1     -11.525  11.852  67.188  1.00  0.00    -0.319 C  
BRANCH   8  10
HETATM   10  C   UNL     1     -12.517  13.336  65.206  1.00  0.00    -0.543 C  
BRANCH  10  11
HETATM   11  C   UNL     1     -12.330  12.349  64.065  1.00  0.00    -0.488 C  
HETATM   12  H1  UNL     1     -12.049  10.867  62.353  1.00  0.00     0.000 HD 
HETATM   13  N   UNL     1     -12.174  11.530  63.118  1.00  0.00    -0.932 NA 
HETATM   14  H2  UNL     1     -11.606  11.855  62.335  1.00  0.00     0.000 HD 
ENDBRANCH  10  11
ENDBRANCH   8  10
BRANCH   8  15
HETATM   15  N   UNL     1     -11.296  14.370  67.056  1.00  0.00    -0.332 NA 
HETATM   16  N   UNL     1     -11.866  14.517  68.273  1.00  0.00    -0.326 NA 
HETATM   17  C   UNL     1     -10.617  15.492  66.660  1.00  0.00    -0.307 A  
HETATM   18  C   UNL     1     -11.537  15.757  68.638  1.00  0.00    -0.386 A  
HETATM   19  C   UNL     1     -10.764  16.420  67.667  1.00  0.00    -0.312 A  
BRANCH  19  20
HETATM   20  C   UNL     1     -10.180  17.735  67.652  1.00  0.00    -0.358 A  
HETATM   21  C   UNL     1      -8.891  17.967  68.133  1.00  0.00    -0.265 A  
HETATM   22  C   UNL     1      -7.855  17.234  68.779  1.00  0.00    -0.254 A  
HETATM   23  C   UNL     1      -6.788  18.088  68.962  1.00  0.00    -0.248 A  
HETATM   24  N   UNL     1      -7.148  19.317  68.473  1.00  0.00    -0.290 NA 
HETATM   25  H   UNL     1      -6.553  20.146  68.472  1.00  0.00     0.000 HD 
HETATM   26  C   UNL     1      -8.425  19.263  67.984  1.00  0.00    -0.317 A  
HETATM   27  N   UNL     1      -9.083  20.303  67.451  1.00  0.00    -0.359 NA 
HETATM   28  C   UNL     1     -10.320  19.960  67.056  1.00  0.00    -0.461 A  
HETATM   29  N   UNL     1     -10.906  18.751  67.128  1.00  0.00    -0.386 NA 
ENDBRANCH  19  20
ENDBRANCH   8  15
ENDBRANCH   3   6
ENDBRANCH   2   3
TORSDOF 6
ENDMDL
MODEL       15
REMARK 921   NORMALIZED FREE ENERGY PREDICTED BY IDOCK:   -6.73 KCAL/MOL
REMARK 922        TOTAL FREE ENERGY PREDICTED BY IDOCK:   -9.59 KCAL/MOL
REMARK 923 INTER-LIGAND FREE ENERGY PREDICTED BY IDOCK:   -8.85 KCAL/MOL
REMARK 924 INTRA-LIGAND FREE ENERGY PREDICTED BY IDOCK:   -0.75 KCAL/MOL
REMARK 927      BINDING AFFINITY PREDICTED BY RF-SCORE:    0.00 PKD
ROOT
HETATM    1  C   UNL     1      -7.515  17.161  66.338  1.00  0.00    -0.341 C  
HETATM    2  C   UNL     1      -8.341  16.511  67.428  1.00  0.00    -0.170 C  
ENDROOT
BRANCH   2   3
HETATM    3  S   UNL     1     -10.084  16.550  67.047  1.00  0.00    -0.285 S  
HETATM    4  O   UNL     1     -10.792  17.147  68.156  1.00  0.00    -0.373 OA 
HETATM    5  O   UNL     1     -10.253  17.014  65.687  1.00  0.00    -0.556 OA 
BRANCH   3   6
HETATM    6  N   UNL     1     -10.409  14.895  67.070  1.00  0.00    -0.261 N  
HETATM    7  C   UNL     1     -11.754  14.264  66.937  1.00  0.00    -0.408 C  
HETATM    8  C   UNL     1     -11.078  12.943  66.441  1.00  0.00    -0.285 C  
HETATM    9  C   UNL     1      -9.856  13.869  66.140  1.00  0.00    -0.302 C  
BRANCH   8  10
HETATM   10  C   UNL     1     -11.758  12.196  65.302  1.00  0.00    -0.364 C  
BRANCH  10  11
HETATM   11  C   UNL     1     -12.124  13.127  64.157  1.00  0.00    -0.430 C  
HETATM   12  H1  UNL     1     -12.673  14.523  62.439  1.00  0.00     0.000 HD 
HETATM   13  N   UNL     1     -12.427  13.899  63.207  1.00  0.00    -1.112 NA 
HETATM   14  H2  UNL     1     -11.646  14.358  62.737  1.00  0.00     0.000 HD 
ENDBRANCH  10  11
ENDBRANCH   8  10
BRANCH   8  15
HETATM   15  N   UNL     1     -10.881  12.058  67.582  1.00  0.00    -0.222 NA 
HETATM   16  N   UNL     1      -9.641  11.630  67.910  1.00  0.00    -0.175 NA 
HETATM   17  C   UNL     1     -11.847  11.529  68.396  1.00  0.00    -0.283 A  
HETATM   18  C   UNL     1      -9.843  10.817  68.947  1.00  0.00    -0.199 A  
HETATM   19  C   UNL     1     -11.201  10.706  69.292  1.00  0.00    -0.332 A  
BRANCH  19  20
HETATM   20  C   UNL     1     -11.859   9.972  70.340  1.00  0.00    -0.262 A  
HETATM   21  C   UNL     1     -11.521   8.649  70.629  1.00  0.00    -0.256 A  
HETATM   22  C   UNL     1     -10.665   7.637  70.106  1.00  0.00    -0.245 A  
HETATM   23  C   UNL     1     -10.796   6.523  70.907  1.00  0.00    -0.253 A  
HETATM   24  N   UNL     1     -11.716   6.812  71.881  1.00  0.00    -0.295 NA 
HETATM   25  H   UNL     1     -12.012   6.173  72.618  1.00  0.00     0.000 HD 
HETATM   26  C   UNL     1     -12.177   8.090  71.713  1.00  0.00    -0.316 A  
HETATM   27  N   UNL     1     -13.102   8.675  72.489  1.00  0.00    -0.340 NA 
HETATM   28  C   UNL     1     -13.362   9.932  72.092  1.00  0.00    -0.399 A  
HETATM   29  N   UNL     1     -12.806  10.609  71.070  1.00  0.00    -0.386 NA 
ENDBRANCH  19  20
ENDBRANCH   8  15
ENDBRANCH   3   6
ENDBRANCH   2   3
TORSDOF 6
ENDMDL
MODEL       16
REMARK 921   NORMALIZED FREE ENERGY PREDICTED BY IDOCK:   -6.69 KCAL/MOL
REMARK 922        TOTAL FREE ENERGY PREDICTED BY IDOCK:   -9.55 KCAL/MOL
REMARK 923 INTER-LIGAND FREE ENERGY PREDICTED BY IDOCK:   -8.95 KCAL/MOL
REMARK 924 INTRA-LIGAND FREE ENERGY PREDICTED BY IDOCK:   -0.60 KCAL/MOL
REMARK 927      BINDING AFFINITY PREDICTED BY RF-SCORE:    0.00 PKD
ROOT
HETATM    1  C   UNL     1      -6.720  18.007  66.420  1.00  0.00    -0.261 C  
HETATM    2  C   UNL     1      -8.161  17.551  66.523  1.00  0.00    -0.270 C  
ENDROOT
BRANCH   2   3
HETATM    3  S   UNL     1      -8.690  17.415  68.222  1.00  0.00    -0.267 S  
HETATM    4  O   UNL     1      -7.556  17.049  69.037  1.00  0.00    -0.239 OA 
HETATM    5  O   UNL     1      -9.532  18.548  68.539  1.00  0.00    -0.321 OA 
BRANCH   3   6
HETATM    6  N   UNL     1      -9.682  16.057  68.093  1.00  0.00    -0.216 N  
HETATM    7  C   UNL     1     -11.151  16.067  67.830  1.00  0.00    -0.273 C  
HETATM    8  C   UNL     1     -11.054  14.608  67.272  1.00  0.00    -0.328 C  
HETATM    9  C   UNL     1      -9.534  14.938  67.119  1.00  0.00    -0.225 C  
BRANCH   8  10
HETATM   10  C   UNL     1     -11.881  14.277  66.038  1.00  0.00    -0.399 C  
BRANCH  10  11
HETATM   11  C   UNL     1     -11.665  15.289  64.925  1.00  0.00    -0.230 C  
HETATM   12  H1  UNL     1     -11.340  16.809  63.255  1.00  0.00     0.000 HD 
HETATM   13  N   UNL     1     -11.485  16.130  64.002  1.00  0.00    -1.425 NA 
HETATM   14  H2  UNL     1     -11.074  17.021  64.282  1.00  0.00     0.000 HD 
ENDBRANCH  10  11
ENDBRANCH   8  10
BRANCH   8  15
HETATM   15  N   UNL     1     -11.350  13.671  68.348  1.00  0.00    -0.275 NA 
HETATM   16  N   UNL     1     -12.180  14.026  69.354  1.00  0.00    -0.333 NA 
HETATM   17  C   UNL     1     -10.835  12.413  68.514  1.00  0.00    -0.242 A  
HETATM   18  C   UNL     1     -12.178  12.966  70.164  1.00  0.00    -0.266 A  
HETATM   19  C   UNL     1     -11.350  11.930  69.698  1.00  0.00    -0.266 A  
BRANCH  19  20
HETATM   20  C   UNL     1     -11.072  10.622  70.230  1.00  0.00    -0.233 A  
HETATM   21  C   UNL     1     -11.973   9.971  71.074  1.00  0.00    -0.469 A  
HETATM   22  C   UNL     1     -13.214  10.250  71.715  1.00  0.00    -0.534 A  
HETATM   23  C   UNL     1     -13.587   9.122  72.415  1.00  0.00    -0.483 A  
HETATM   24  N   UNL     1     -12.607   8.179  72.242  1.00  0.00    -0.485 NA 
HETATM   25  H   UNL     1     -12.616   7.241  72.645  1.00  0.00     0.000 HD 
HETATM   26  C   UNL     1     -11.615   8.686  71.447  1.00  0.00    -0.293 A  
HETATM   27  N   UNL     1     -10.501   8.022  71.102  1.00  0.00    -0.197 NA 
HETATM   28  C   UNL     1      -9.703   8.766  70.316  1.00  0.00    -0.176 A  
HETATM   29  N   UNL     1      -9.917  10.016  69.867  1.00  0.00    -0.246 NA 
ENDBRANCH  19  20
ENDBRANCH   8  15
ENDBRANCH   3   6
ENDBRANCH   2   3
TORSDOF 6
ENDMDL
MODEL       17
REMARK 921   NORMALIZED FREE ENERGY PREDICTED BY IDOCK:   -6.69 KCAL/MOL
REMARK 922        TOTAL FREE ENERGY PREDICTED BY IDOCK:   -9.54 KCAL/MOL
REMARK 923 INTER-LIGAND FREE ENERGY PREDICTED BY IDOCK:   -8.87 KCAL/MOL
REMARK 924 INTRA-LIGAND FREE ENERGY PREDICTED BY IDOCK:   -0.67 KCAL/MOL
REMARK 927      BINDING AFFINITY PREDICTED BY RF-SCORE:    0.00 PKD
ROOT
HETATM    1  C   UNL     1     -13.499  10.044  71.881  1.00  0.00    -0.449 C  
HETATM    2  C   UNL     1     -13.565   8.533  71.803  1.00  0.00    -0.388 C  
ENDROOT
BRANCH   2   3
HETATM    3  S   UNL     1     -11.942   7.810  71.634  1.00  0.00    -0.310 S  
HETATM    4  O   UNL     1     -11.194   8.052  72.846  1.00  0.00    -0.401 OA 
HETATM    5  O   UNL     1     -12.079   6.487  71.065  1.00  0.00    -0.352 OA 
BRANCH   3   6
HETATM    6  N   UNL     1     -11.313   8.821  70.439  1.00  0.00    -0.233 N  
HETATM    7  C   UNL     1     -10.164   9.759  70.602  1.00  0.00    -0.220 C  
HETATM    8  C   UNL     1      -9.921   9.717  69.056  1.00  0.00    -0.184 C  
HETATM    9  C   UNL     1     -10.759   8.400  69.121  1.00  0.00    -0.106 C  
BRANCH   8  10
HETATM   10  C   UNL     1      -8.475   9.669  68.579  1.00  0.00    -0.118 C  
BRANCH  10  11
HETATM   11  C   UNL     1      -7.585  10.606  69.380  1.00  0.00    -0.134 C  
HETATM   12  H1  UNL     1      -6.250  12.011  70.582  1.00  0.00     0.000 HD 
HETATM   13  N   UNL     1      -6.847  11.382  70.046  1.00  0.00    -0.420 NA 
HETATM   14  H2  UNL     1      -6.952  11.340  71.060  1.00  0.00     0.000 HD 
ENDBRANCH  10  11
ENDBRANCH   8  10
BRANCH   8  15
HETATM   15  N   UNL     1     -10.622  10.834  68.438  1.00  0.00    -0.184 NA 
HETATM   16  N   UNL     1     -11.366  11.676  69.190  1.00  0.00    -0.259 NA 
HETATM   17  C   UNL     1     -10.671  11.145  67.105  1.00  0.00    -0.259 A  
HETATM   18  C   UNL     1     -11.890  12.525  68.305  1.00  0.00    -0.309 A  
HETATM   19  C   UNL     1     -11.499  12.239  66.985  1.00  0.00    -0.419 A  
BRANCH  19  20
HETATM   20  C   UNL     1     -11.801  12.897  65.741  1.00  0.00    -0.419 A  
HETATM   21  C   UNL     1     -11.421  14.219  65.503  1.00  0.00    -0.329 A  
HETATM   22  C   UNL     1     -10.808  15.288  66.217  1.00  0.00    -0.312 A  
HETATM   23  C   UNL     1     -10.700  16.359  65.355  1.00  0.00    -0.296 A  
HETATM   24  N   UNL     1     -11.247  15.988  64.154  1.00  0.00    -1.115 NA 
HETATM   25  H   UNL     1     -11.304  16.580  63.326  1.00  0.00     0.000 HD 
HETATM   26  C   UNL     1     -11.704  14.700  64.236  1.00  0.00    -0.275 A  
HETATM   27  N   UNL     1     -12.312  14.042  63.237  1.00  0.00    -0.646 NA 
HETATM   28  C   UNL     1     -12.655  12.794  63.600  1.00  0.00    -0.286 A  
HETATM   29  N   UNL     1     -12.443  12.189  64.782  1.00  0.00    -0.447 NA 
ENDBRANCH  19  20
ENDBRANCH   8  15
ENDBRANCH   3   6
ENDBRANCH   2   3
TORSDOF 6
ENDMDL
MODEL       18
REMARK 921   NORMALIZED FREE ENERGY PREDICTED BY IDOCK:   -6.68 KCAL/MOL
REMARK 922        TOTAL FREE ENERGY PREDICTED BY IDOCK:   -9.54 KCAL/MOL
REMARK 923 INTER-LIGAND FREE ENERGY PREDICTED BY IDOCK:   -8.67 KCAL/MOL
REMARK 924 INTRA-LIGAND FREE ENERGY PREDICTED BY IDOCK:   -0.87 KCAL/MOL
REMARK 927      BINDING AFFINITY PREDICTED BY RF-SCORE:    0.00 PKD
ROOT
HETATM    1  C   UNL     1     -12.212  15.283  73.524  1.00  0.00    -0.633 C  
HETATM    2  C   UNL     1     -11.558  15.533  72.181  1.00  0.00    -0.460 C  
ENDROOT
BRANCH   2   3
HETATM    3  S   UNL     1     -12.508  14.830  70.844  1.00  0.00    -0.358 S  
HETATM    4  O   UNL     1     -12.601  13.402  71.038  1.00  0.00    -0.355 OA 
HETATM    5  O   UNL     1     -13.674  15.655  70.618  1.00  0.00    -0.402 OA 
BRANCH   3   6
HETATM    6  N   UNL     1     -11.433  15.100  69.572  1.00  0.00    -0.276 N  
HETATM    7  C   UNL     1     -10.716  14.049  68.793  1.00  0.00    -0.259 C  
HETATM    8  C   UNL     1     -10.558  15.050  67.600  1.00  0.00    -0.267 C  
HETATM    9  C   UNL     1     -11.727  15.818  68.298  1.00  0.00    -0.222 C  
BRANCH   8  10
HETATM   10  C   UNL     1     -10.752  14.497  66.195  1.00  0.00    -0.310 C  
BRANCH  10  11
HETATM   11  C   UNL     1     -11.034  15.600  65.188  1.00  0.00    -0.398 C  
HETATM   12  H1  UNL     1     -11.458  17.256  63.677  1.00  0.00     0.000 HD 
HETATM   13  N   UNL     1     -11.268  16.515  64.353  1.00  0.00    -1.229 NA 
HETATM   14  H2  UNL     1     -11.523  16.209  63.413  1.00  0.00     0.000 HD 
ENDBRANCH  10  11
ENDBRANCH   8  10
BRANCH   8  15
HETATM   15  N   UNL     1      -9.266  15.714  67.711  1.00  0.00    -0.193 NA 
HETATM   16  N   UNL     1      -8.122  14.994  67.685  1.00  0.00    -0.156 NA 
HETATM   17  C   UNL     1      -9.036  17.052  67.893  1.00  0.00    -0.228 A  
HETATM   18  C   UNL     1      -7.162  15.903  67.858  1.00  0.00    -0.136 A  
HETATM   19  C   UNL     1      -7.671  17.206  68.002  1.00  0.00    -0.189 A  
BRANCH  19  20
HETATM   20  C   UNL     1      -7.009  18.471  68.181  1.00  0.00    -0.236 A  
HETATM   21  C   UNL     1      -6.880  19.383  67.133  1.00  0.00    -0.209 A  
HETATM   22  C   UNL     1      -7.176  19.443  65.741  1.00  0.00    -0.302 A  
HETATM   23  C   UNL     1      -6.802  20.690  65.287  1.00  0.00    -0.136 A  
HETATM   24  N   UNL     1      -6.268  21.378  66.345  1.00  0.00    -0.488 NA 
HETATM   25  H   UNL     1      -5.907  22.332  66.304  1.00  0.00     0.000 HD 
HETATM   26  C   UNL     1      -6.292  20.592  67.465  1.00  0.00    -0.272 A  
HETATM   27  N   UNL     1      -5.825  20.962  68.667  1.00  0.00    -0.348 NA 
HETATM   28  C   UNL     1      -5.978  19.989  69.581  1.00  0.00    -0.335 A  
HETATM   29  N   UNL     1      -6.532  18.774  69.412  1.00  0.00    -0.275 NA 
ENDBRANCH  19  20
ENDBRANCH   8  15
ENDBRANCH   3   6
ENDBRANCH   2   3
TORSDOF 6
ENDMDL
MODEL       19
REMARK 921   NORMALIZED FREE ENERGY PREDICTED BY IDOCK:   -6.65 KCAL/MOL
REMARK 922        TOTAL FREE ENERGY PREDICTED BY IDOCK:   -9.49 KCAL/MOL
REMARK 923 INTER-LIGAND FREE ENERGY PREDICTED BY IDOCK:   -8.90 KCAL/MOL
REMARK 924 INTRA-LIGAND FREE ENERGY PREDICTED BY IDOCK:   -0.59 KCAL/MOL
REMARK 927      BINDING AFFINITY PREDICTED BY RF-SCORE:    0.00 PKD
ROOT
HETATM    1  C   UNL     1     -10.661   9.483  71.004  1.00  0.00    -0.411 C  
HETATM    2  C   UNL     1     -10.263  10.435  69.896  1.00  0.00    -0.141 C  
ENDROOT
BRANCH   2   3
HETATM    3  S   UNL     1     -11.632  11.454  69.375  1.00  0.00    -0.355 S  
HETATM    4  O   UNL     1     -12.621  10.616  68.737  1.00  0.00    -0.167 OA 
HETATM    5  O   UNL     1     -11.970  12.362  70.449  1.00  0.00    -0.344 OA 
BRANCH   3   6
HETATM    6  N   UNL     1     -10.867  12.347  68.167  1.00  0.00    -0.212 N  
HETATM    7  C   UNL     1      -9.848  11.830  67.207  1.00  0.00    -0.185 C  
HETATM    8  C   UNL     1     -10.208  12.984  66.213  1.00  0.00    -0.288 C  
HETATM    9  C   UNL     1     -11.529  13.072  67.044  1.00  0.00    -0.333 C  
BRANCH   8  10
HETATM   10  C   UNL     1     -10.271  12.635  64.732  1.00  0.00    -0.307 C  
BRANCH  10  11
HETATM   11  C   UNL     1     -11.433  13.328  64.038  1.00  0.00    -0.388 C  
HETATM   12  H1  UNL     1     -13.175  14.367  62.996  1.00  0.00     0.000 HD 
HETATM   13  N   UNL     1     -12.397  13.902  63.463  1.00  0.00    -1.087 NA 
HETATM   14  H2  UNL     1     -13.330  13.600  63.744  1.00  0.00     0.000 HD 
ENDBRANCH  10  11
ENDBRANCH   8  10
BRANCH   8  15
HETATM   15  N   UNL     1      -9.296  14.097  66.434  1.00  0.00    -0.262 NA 
HETATM   16  N   UNL     1      -8.174  13.927  67.169  1.00  0.00    -0.150 NA 
HETATM   17  C   UNL     1      -9.449  15.390  66.007  1.00  0.00    -0.346 A  
HETATM   18  C   UNL     1      -7.621  15.141  67.202  1.00  0.00    -0.168 A  
HETATM   19  C   UNL     1      -8.376  16.099  66.502  1.00  0.00    -0.352 A  
BRANCH  19  20
HETATM   20  C   UNL     1      -8.147  17.499  66.261  1.00  0.00    -0.254 A  
HETATM   21  C   UNL     1      -9.083  18.466  66.630  1.00  0.00    -0.301 A  
HETATM   22  C   UNL     1     -10.395  18.512  67.183  1.00  0.00    -0.433 A  
HETATM   23  C   UNL     1     -10.745  19.838  67.320  1.00  0.00    -0.403 A  
HETATM   24  N   UNL     1      -9.705  20.597  66.850  1.00  0.00    -0.643 NA 
HETATM   25  H   UNL     1      -9.683  21.617  66.830  1.00  0.00     0.000 HD 
HETATM   26  C   UNL     1      -8.699  19.779  66.412  1.00  0.00    -0.368 A  
HETATM   27  N   UNL     1      -7.547  20.207  65.875  1.00  0.00    -0.291 NA 
HETATM   28  C   UNL     1      -6.746  19.183  65.534  1.00  0.00    -0.264 A  
HETATM   29  N   UNL     1      -6.976  17.866  65.688  1.00  0.00    -0.454 NA 
ENDBRANCH  19  20
ENDBRANCH   8  15
ENDBRANCH   3   6
ENDBRANCH   2   3
TORSDOF 6
ENDMDL
MODEL       20
REMARK 921   NORMALIZED FREE ENERGY PREDICTED BY IDOCK:   -6.65 KCAL/MOL
REMARK 922        TOTAL FREE ENERGY PREDICTED BY IDOCK:   -9.49 KCAL/MOL
REMARK 923 INTER-LIGAND FREE ENERGY PREDICTED BY IDOCK:   -8.61 KCAL/MOL
REMARK 924 INTRA-LIGAND FREE ENERGY PREDICTED BY IDOCK:   -0.88 KCAL/MOL
REMARK 927      BINDING AFFINITY PREDICTED BY RF-SCORE:    0.00 PKD
ROOT
HETATM    1  C   UNL     1     -10.160   9.964  70.050  1.00  0.00    -0.308 C  
HETATM    2  C   UNL     1     -10.614   9.364  68.735  1.00  0.00    -0.208 C  
ENDROOT
BRANCH   2   3
HETATM    3  S   UNL     1      -9.622   9.943  67.369  1.00  0.00    -0.159 S  
HETATM    4  O   UNL     1      -8.265  10.133  67.824  1.00  0.00    -0.109 OA 
HETATM    5  O   UNL     1      -9.938   9.154  66.198  1.00  0.00    -0.286 OA 
BRANCH   3   6
HETATM    6  N   UNL     1     -10.306  11.470  67.159  1.00  0.00    -0.210 N  
HETATM    7  C   UNL     1     -10.170  12.332  65.949  1.00  0.00    -0.249 C  
HETATM    8  C   UNL     1     -11.492  13.075  66.338  1.00  0.00    -0.341 C  
HETATM    9  C   UNL     1     -11.758  11.808  67.215  1.00  0.00    -0.217 C  
BRANCH   8  10
HETATM   10  C   UNL     1     -12.452  13.426  65.210  1.00  0.00    -0.532 C  
BRANCH  10  11
HETATM   11  C   UNL     1     -12.395  12.408  64.082  1.00  0.00    -0.467 C  
HETATM   12  H1  UNL     1     -12.308  10.881  62.390  1.00  0.00     0.000 HD 
HETATM   13  N   UNL     1     -12.346  11.564  63.147  1.00  0.00    -0.932 NA 
HETATM   14  H2  UNL     1     -11.463  11.062  63.042  1.00  0.00     0.000 HD 
ENDBRANCH  10  11
ENDBRANCH   8  10
BRANCH   8  15
HETATM   15  N   UNL     1     -11.155  14.265  67.107  1.00  0.00    -0.302 NA 
HETATM   16  N   UNL     1     -11.823  14.556  68.246  1.00  0.00    -0.326 NA 
HETATM   17  C   UNL     1     -10.221  15.217  66.793  1.00  0.00    -0.264 A  
HETATM   18  C   UNL     1     -11.296  15.714  68.644  1.00  0.00    -0.357 A  
HETATM   19  C   UNL     1     -10.297  16.182  67.773  1.00  0.00    -0.283 A  
BRANCH  19  20
HETATM   20  C   UNL     1      -9.461  17.353  67.825  1.00  0.00    -0.261 A  
HETATM   21  C   UNL     1      -9.731  18.478  67.045  1.00  0.00    -0.321 A  
HETATM   22  C   UNL     1     -10.652  18.866  66.031  1.00  0.00    -0.470 A  
HETATM   23  C   UNL     1     -10.374  20.173  65.691  1.00  0.00    -0.210 A  
HETATM   24  N   UNL     1      -9.304  20.584  66.443  1.00  0.00    -0.630 NA 
HETATM   25  H   UNL     1      -8.880  21.510  66.404  1.00  0.00     0.000 HD 
HETATM   26  C   UNL     1      -8.893  19.561  67.254  1.00  0.00    -0.303 A  
HETATM   27  N   UNL     1      -7.856  19.631  68.102  1.00  0.00    -0.305 NA 
HETATM   28  C   UNL     1      -7.681  18.477  68.770  1.00  0.00    -0.280 A  
HETATM   29  N   UNL     1      -8.411  17.350  68.680  1.00  0.00    -0.275 NA 
ENDBRANCH  19  20
ENDBRANCH   8  15
ENDBRANCH   3   6
ENDBRANCH   2   3
TORSDOF 6
ENDMDL
MODEL       21
REMARK 921   NORMALIZED FREE ENERGY PREDICTED BY IDOCK:   -6.63 KCAL/MOL
REMARK 922        TOTAL FREE ENERGY PREDICTED BY IDOCK:   -9.47 KCAL/MOL
REMARK 923 INTER-LIGAND FREE ENERGY PREDICTED BY IDOCK:   -8.67 KCAL/MOL
REMARK 924 INTRA-LIGAND FREE ENERGY PREDICTED BY IDOCK:   -0.80 KCAL/MOL
REMARK 927      BINDING AFFINITY PREDICTED BY RF-SCORE:    0.00 PKD
ROOT
HETATM    1  C   UNL     1     -10.143   6.262  74.307  1.00  0.00    -0.349 C  
HETATM    2  C   UNL     1     -10.828   6.011  72.980  1.00  0.00    -0.260 C  
ENDROOT
BRANCH   2   3
HETATM    3  S   UNL     1      -9.669   6.033  71.624  1.00  0.00    -0.158 S  
HETATM    4  O   UNL     1      -8.330   6.138  72.155  1.00  0.00    -0.110 OA 
HETATM    5  O   UNL     1     -10.043   5.007  70.675  1.00  0.00    -0.217 OA 
BRANCH   3   6
HETATM    6  N   UNL     1     -10.065   7.527  70.948  1.00  0.00    -0.192 N  
HETATM    7  C   UNL     1     -11.384   7.899  70.358  1.00  0.00    -0.194 C  
HETATM    8  C   UNL     1     -11.064   9.410  70.614  1.00  0.00    -0.289 C  
HETATM    9  C   UNL     1     -10.017   8.851  71.632  1.00  0.00    -0.327 C  
BRANCH   8  10
HETATM   10  C   UNL     1     -12.203  10.289  71.110  1.00  0.00    -0.500 C  
BRANCH  10  11
HETATM   11  C   UNL     1     -13.042   9.585  72.165  1.00  0.00    -0.436 C  
HETATM   12  H1  UNL     1     -14.301   8.528  73.746  1.00  0.00     0.000 HD 
HETATM   13  N   UNL     1     -13.738   9.001  73.039  1.00  0.00    -1.040 NA 
HETATM   14  H2  UNL     1     -14.347   9.599  73.598  1.00  0.00     0.000 HD 
ENDBRANCH  10  11
ENDBRANCH   8  10
BRANCH   8  15
HETATM   15  N   UNL     1     -10.473   9.977  69.410  1.00  0.00    -0.216 NA 
HETATM   16  N   UNL     1      -9.174  10.352  69.397  1.00  0.00    -0.190 NA 
HETATM   17  C   UNL     1     -11.103  10.240  68.223  1.00  0.00    -0.254 A  
HETATM   18  C   UNL     1      -8.996  10.862  68.177  1.00  0.00    -0.144 A  
HETATM   19  C   UNL     1     -10.167  10.828  67.400  1.00  0.00    -0.241 A  
BRANCH  19  20
HETATM   20  C   UNL     1     -10.421  11.241  66.045  1.00  0.00    -0.257 A  
HETATM   21  C   UNL     1     -11.262  12.317  65.755  1.00  0.00    -0.378 A  
HETATM   22  C   UNL     1     -12.112  13.216  66.461  1.00  0.00    -0.423 A  
HETATM   23  C   UNL     1     -12.654  14.088  65.542  1.00  0.00    -0.516 A  
HETATM   24  N   UNL     1     -12.184  13.738  64.303  1.00  0.00    -0.575 NA 
HETATM   25  H   UNL     1     -12.416  14.212  63.430  1.00  0.00     0.000 HD 
HETATM   26  C   UNL     1     -11.354  12.655  64.415  1.00  0.00    -0.344 A  
HETATM   27  N   UNL     1     -10.743  12.052  63.384  1.00  0.00    -0.429 NA 
HETATM   28  C   UNL     1      -9.990  11.015  63.789  1.00  0.00    -0.350 A  
HETATM   29  N   UNL     1      -9.798  10.573  65.046  1.00  0.00    -0.282 NA 
ENDBRANCH  19  20
ENDBRANCH   8  15
ENDBRANCH   3   6
ENDBRANCH   2   3
TORSDOF 6
ENDMDL
MODEL       22
REMARK 921   NORMALIZED FREE ENERGY PREDICTED BY IDOCK:   -6.63 KCAL/MOL
REMARK 922        TOTAL FREE ENERGY PREDICTED BY IDOCK:   -9.46 KCAL/MOL
REMARK 923 INTER-LIGAND FREE ENERGY PREDICTED BY IDOCK:   -8.82 KCAL/MOL
REMARK 924 INTRA-LIGAND FREE ENERGY PREDICTED BY IDOCK:   -0.64 KCAL/MOL
REMARK 927      BINDING AFFINITY PREDICTED BY RF-SCORE:    0.00 PKD
ROOT
HETATM    1  C   UNL     1      -7.893   9.334  65.266  1.00  0.00    -0.105 C  
HETATM    2  C   UNL     1      -8.337  10.748  65.573  1.00  0.00    -0.129 C  
ENDROOT
BRANCH   2   3
HETATM    3  S   UNL     1     -10.108  10.858  65.763  1.00  0.00    -0.262 S  
HETATM    4  O   UNL     1     -10.719  10.857  64.454  1.00  0.00    -0.340 OA 
HETATM    5  O   UNL     1     -10.521   9.946  66.807  1.00  0.00    -0.230 OA 
BRANCH   3   6
HETATM    6  N   UNL     1     -10.222  12.426  66.375  1.00  0.00    -0.230 N  
HETATM    7  C   UNL     1      -9.150  13.463  66.334  1.00  0.00    -0.045 C  
HETATM    8  C   UNL     1     -10.236  14.582  66.462  1.00  0.00    -0.279 C  
HETATM    9  C   UNL     1     -11.216  13.464  65.978  1.00  0.00    -0.296 C  
BRANCH   8  10
HETATM   10  C   UNL     1     -10.048  15.836  65.620  1.00  0.00    -0.401 C  
BRANCH  10  11
HETATM   11  C   UNL     1     -11.180  16.021  64.622  1.00  0.00    -0.330 C  
HETATM   12  H1  UNL     1     -12.878  16.298  63.124  1.00  0.00     0.000 HD 
HETATM   13  N   UNL     1     -12.119  16.173  63.794  1.00  0.00    -1.225 NA 
HETATM   14  H2  UNL     1     -12.816  15.429  63.766  1.00  0.00     0.000 HD 
ENDBRANCH  10  11
ENDBRANCH   8  10
BRANCH   8  15
HETATM   15  N   UNL     1     -10.388  14.932  67.868  1.00  0.00    -0.235 NA 
HETATM   16  N   UNL     1      -9.397  15.576  68.524  1.00  0.00    -0.191 NA 
HETATM   17  C   UNL     1     -11.450  14.642  68.683  1.00  0.00    -0.300 A  
HETATM   18  C   UNL     1      -9.852  15.684  69.773  1.00  0.00    -0.257 A  
HETATM   19  C   UNL     1     -11.125  15.112  69.937  1.00  0.00    -0.302 A  
BRANCH  19  20
HETATM   20  C   UNL     1     -11.988  15.024  71.085  1.00  0.00    -0.323 A  
HETATM   21  C   UNL     1     -12.560  13.814  71.479  1.00  0.00    -0.405 A  
HETATM   22  C   UNL     1     -12.624  12.471  71.008  1.00  0.00    -0.350 A  
HETATM   23  C   UNL     1     -13.361  11.743  71.918  1.00  0.00    -0.296 A  
HETATM   24  N   UNL     1     -13.766  12.598  72.910  1.00  0.00    -0.530 NA 
HETATM   25  H   UNL     1     -14.326  12.335  73.720  1.00  0.00     0.000 HD 
HETATM   26  C   UNL     1     -13.303  13.859  72.647  1.00  0.00    -0.538 A  
HETATM   27  N   UNL     1     -13.541  14.934  73.414  1.00  0.00    -0.298 NA 
HETATM   28  C   UNL     1     -12.964  16.040  72.914  1.00  0.00    -0.463 A  
HETATM   29  N   UNL     1     -12.213  16.151  71.802  1.00  0.00    -0.457 NA 
ENDBRANCH  19  20
ENDBRANCH   8  15
ENDBRANCH   3   6
ENDBRANCH   2   3
TORSDOF 6
ENDMDL
MODEL       23
REMARK 921   NORMALIZED FREE ENERGY PREDICTED BY IDOCK:   -6.62 KCAL/MOL
REMARK 922        TOTAL FREE ENERGY PREDICTED BY IDOCK:   -9.45 KCAL/MOL
REMARK 923 INTER-LIGAND FREE ENERGY PREDICTED BY IDOCK:   -8.70 KCAL/MOL
REMARK 924 INTRA-LIGAND FREE ENERGY PREDICTED BY IDOCK:   -0.75 KCAL/MOL
REMARK 927      BINDING AFFINITY PREDICTED BY RF-SCORE:    0.00 PKD
ROOT
HETATM    1  C   UNL     1     -10.900  15.830  65.069  1.00  0.00    -0.461 C  
HETATM    2  C   UNL     1     -10.514  14.390  65.335  1.00  0.00    -0.373 C  
ENDROOT
BRANCH   2   3
HETATM    3  S   UNL     1     -11.946  13.368  65.638  1.00  0.00    -0.428 S  
HETATM    4  O   UNL     1     -13.128  14.083  65.216  1.00  0.00    -0.782 OA 
HETATM    5  O   UNL     1     -11.660  12.022  65.193  1.00  0.00    -0.329 OA 
BRANCH   3   6
HETATM    6  N   UNL     1     -11.930  13.366  67.325  1.00  0.00    -0.363 N  
HETATM    7  C   UNL     1     -10.724  13.200  68.189  1.00  0.00    -0.242 C  
HETATM    8  C   UNL     1     -11.471  13.926  69.357  1.00  0.00    -0.280 C  
HETATM    9  C   UNL     1     -12.397  14.464  68.219  1.00  0.00     0.020 C  
BRANCH   8  10
HETATM   10  C   UNL     1     -10.663  14.906  70.199  1.00  0.00    -0.116 C  
BRANCH  10  11
HETATM   11  C   UNL     1     -10.099  16.040  69.358  1.00  0.00    -0.271 C  
HETATM   12  H1  UNL     1      -9.252  17.741  68.097  1.00  0.00     0.000 HD 
HETATM   13  N   UNL     1      -9.631  16.980  68.660  1.00  0.00    -0.267 NA 
HETATM   14  H2  UNL     1      -9.514  16.784  67.666  1.00  0.00     0.000 HD 
ENDBRANCH  10  11
ENDBRANCH   8  10
BRANCH   8  15
HETATM   15  N   UNL     1     -12.100  12.926  70.208  1.00  0.00    -0.344 NA 
HETATM   16  N   UNL     1     -12.832  13.302  71.281  1.00  0.00    -0.345 NA 
HETATM   17  C   UNL     1     -12.013  11.564  70.089  1.00  0.00    -0.369 A  
HETATM   18  C   UNL     1     -13.203  12.150  71.841  1.00  0.00    -0.369 A  
HETATM   19  C   UNL     1     -12.715  11.029  71.147  1.00  0.00    -0.521 A  
BRANCH  19  20
HETATM   20  C   UNL     1     -12.887   9.619  71.377  1.00  0.00    -0.379 A  
HETATM   21  C   UNL     1     -11.803   8.789  71.668  1.00  0.00    -0.399 A  
HETATM   22  C   UNL     1     -10.385   8.892  71.757  1.00  0.00    -0.426 A  
HETATM   23  C   UNL     1      -9.898   7.656  72.123  1.00  0.00    -0.178 A  
HETATM   24  N   UNL     1     -10.964   6.801  72.236  1.00  0.00    -0.235 NA 
HETATM   25  H   UNL     1     -10.903   5.817  72.498  1.00  0.00     0.000 HD 
HETATM   26  C   UNL     1     -12.122   7.470  71.945  1.00  0.00    -0.305 A  
HETATM   27  N   UNL     1     -13.343   6.915  71.945  1.00  0.00    -0.226 NA 
HETATM   28  C   UNL     1     -14.295   7.807  71.621  1.00  0.00    -0.481 A  
HETATM   29  N   UNL     1     -14.142   9.113  71.334  1.00  0.00    -0.231 NA 
ENDBRANCH  19  20
ENDBRANCH   8  15
ENDBRANCH   3   6
ENDBRANCH   2   3
TORSDOF 6
ENDMDL
MODEL       24
REMARK 921   NORMALIZED FREE ENERGY PREDICTED BY IDOCK:   -6.61 KCAL/MOL
REMARK 922        TOTAL FREE ENERGY PREDICTED BY IDOCK:   -9.43 KCAL/MOL
REMARK 923 INTER-LIGAND FREE ENERGY PREDICTED BY IDOCK:   -8.56 KCAL/MOL
REMARK 924 INTRA-LIGAND FREE ENERGY PREDICTED BY IDOCK:   -0.87 KCAL/MOL
REMARK 927      BINDING AFFINITY PREDICTED BY RF-SCORE:    0.00 PKD
ROOT
HETATM    1  C   UNL     1     -10.306   9.252  67.308  1.00  0.00    -0.332 C  
HETATM    2  C   UNL     1      -9.299   8.124  67.385  1.00  0.00    -0.141 C  
ENDROOT
BRANCH   2   3
HETATM    3  S   UNL     1     -10.039   6.618  67.992  1.00  0.00    -0.167 S  
HETATM    4  O   UNL     1     -11.156   6.272  67.144  1.00  0.00    -0.358 OA 
HETATM    5  O   UNL     1      -8.987   5.675  68.302  1.00  0.00    -0.115 OA 
BRANCH   3   6
HETATM    6  N   UNL     1     -10.666   7.187  69.450  1.00  0.00    -0.236 N  
HETATM    7  C   UNL     1     -11.648   6.475  70.319  1.00  0.00    -0.409 C  
HETATM    8  C   UNL     1     -11.153   7.307  71.549  1.00  0.00    -0.237 C  
HETATM    9  C   UNL     1      -9.888   7.559  70.667  1.00  0.00    -0.179 C  
BRANCH   8  10
HETATM   10  C   UNL     1     -11.013   6.574  72.876  1.00  0.00    -0.282 C  
BRANCH  10  11
HETATM   11  C   UNL     1      -9.874   7.133  73.712  1.00  0.00    -0.313 C  
HETATM   12  H1  UNL     1      -8.164   7.973  74.967  1.00  0.00     0.000 HD 
HETATM   13  N   UNL     1      -8.928   7.598  74.406  1.00  0.00    -0.439 NA 
HETATM   14  H2  UNL     1      -8.434   8.398  74.009  1.00  0.00     0.000 HD 
ENDBRANCH  10  11
ENDBRANCH   8  10
BRANCH   8  15
HETATM   15  N   UNL     1     -12.009   8.476  71.703  1.00  0.00    -0.297 NA 
HETATM   16  N   UNL     1     -13.311   8.332  72.037  1.00  0.00    -0.329 NA 
HETATM   17  C   UNL     1     -11.665   9.786  71.500  1.00  0.00    -0.375 A  
HETATM   18  C   UNL     1     -13.785   9.578  72.038  1.00  0.00    -0.359 A  
HETATM   19  C   UNL     1     -12.807  10.530  71.702  1.00  0.00    -0.581 A  
BRANCH  19  20
HETATM   20  C   UNL     1     -12.869  11.965  71.608  1.00  0.00    -0.312 A  
HETATM   21  C   UNL     1     -12.403  12.643  70.481  1.00  0.00    -0.350 A  
HETATM   22  C   UNL     1     -11.737  12.335  69.260  1.00  0.00    -0.388 A  
HETATM   23  C   UNL     1     -11.588  13.510  68.555  1.00  0.00    -0.333 A  
HETATM   24  N   UNL     1     -12.117  14.523  69.313  1.00  0.00    -0.469 NA 
HETATM   25  H   UNL     1     -12.148  15.506  69.042  1.00  0.00     0.000 HD 
HETATM   26  C   UNL     1     -12.597  14.015  70.490  1.00  0.00    -0.329 A  
HETATM   27  N   UNL     1     -13.160  14.746  71.463  1.00  0.00    -0.331 NA 
HETATM   28  C   UNL     1     -13.537  13.984  72.504  1.00  0.00    -0.566 A  
HETATM   29  N   UNL     1     -13.422  12.650  72.637  1.00  0.00    -0.334 NA 
ENDBRANCH  19  20
ENDBRANCH   8  15
ENDBRANCH   3   6
ENDBRANCH   2   3
TORSDOF 6
ENDMDL
MODEL       25
REMARK 921   NORMALIZED FREE ENERGY PREDICTED BY IDOCK:   -6.58 KCAL/MOL
REMARK 922        TOTAL FREE ENERGY PREDICTED BY IDOCK:   -9.40 KCAL/MOL
REMARK 923 INTER-LIGAND FREE ENERGY PREDICTED BY IDOCK:   -8.92 KCAL/MOL
REMARK 924 INTRA-LIGAND FREE ENERGY PREDICTED BY IDOCK:   -0.48 KCAL/MOL
REMARK 927      BINDING AFFINITY PREDICTED BY RF-SCORE:    0.00 PKD
ROOT
HETATM    1  C   UNL     1     -10.449  19.223  67.551  1.00  0.00    -0.564 C  
HETATM    2  C   UNL     1     -10.563  17.715  67.478  1.00  0.00    -0.343 C  
ENDROOT
BRANCH   2   3
HETATM    3  S   UNL     1     -10.099  17.095  65.870  1.00  0.00    -0.183 S  
HETATM    4  O   UNL     1     -11.033  17.596  64.889  1.00  0.00    -0.886 OA 
HETATM    5  O   UNL     1      -8.668  17.236  65.713  1.00  0.00    -0.531 OA 
BRANCH   3   6
HETATM    6  N   UNL     1     -10.433  15.458  66.100  1.00  0.00    -0.303 N  
HETATM    7  C   UNL     1     -11.711  14.889  66.617  1.00  0.00    -0.217 C  
HETATM    8  C   UNL     1     -11.381  13.528  65.918  1.00  0.00    -0.308 C  
HETATM    9  C   UNL     1     -10.401  14.391  65.059  1.00  0.00    -0.421 C  
BRANCH   8  10
HETATM   10  C   UNL     1     -12.531  12.795  65.242  1.00  0.00    -0.528 C  
BRANCH  10  11
HETATM   11  C   UNL     1     -12.059  11.990  64.041  1.00  0.00    -0.406 C  
HETATM   12  H1  UNL     1     -11.350  10.782  62.241  1.00  0.00     0.000 HD 
HETATM   13  N   UNL     1     -11.667  11.322  63.046  1.00  0.00    -0.796 NA 
HETATM   14  H2  UNL     1     -11.353  10.370  63.242  1.00  0.00     0.000 HD 
ENDBRANCH  10  11
ENDBRANCH   8  10
BRANCH   8  15
HETATM   15  N   UNL     1     -10.715  12.656  66.875  1.00  0.00    -0.240 NA 
HETATM   16  N   UNL     1      -9.411  12.842  67.180  1.00  0.00    -0.221 NA 
HETATM   17  C   UNL     1     -11.252  11.573  67.521  1.00  0.00    -0.298 A  
HETATM   18  C   UNL     1      -9.132  11.853  68.029  1.00  0.00    -0.189 A  
HETATM   19  C   UNL     1     -10.239  11.021  68.275  1.00  0.00    -0.192 A  
BRANCH  19  20
HETATM   20  C   UNL     1     -10.394   9.871  69.126  1.00  0.00    -0.209 A  
HETATM   21  C   UNL     1     -10.512   8.584  68.600  1.00  0.00    -0.200 A  
HETATM   22  C   UNL     1     -10.606   7.969  67.319  1.00  0.00    -0.360 A  
HETATM   23  C   UNL     1     -10.679   6.606  67.514  1.00  0.00    -0.317 A  
HETATM   24  N   UNL     1     -10.658   6.373  68.865  1.00  0.00    -0.224 NA 
HETATM   25  H   UNL     1     -10.697   5.453  69.303  1.00  0.00     0.000 HD 
HETATM   26  C   UNL     1     -10.575   7.564  69.535  1.00  0.00    -0.236 A  
HETATM   27  N   UNL     1     -10.554   7.687  70.871  1.00  0.00    -0.212 NA 
HETATM   28  C   UNL     1     -10.470   8.973  71.251  1.00  0.00    -0.311 A  
HETATM   29  N   UNL     1     -10.395  10.064  70.466  1.00  0.00    -0.228 NA 
ENDBRANCH  19  20
ENDBRANCH   8  15
ENDBRANCH   3   6
ENDBRANCH   2   3
TORSDOF 6
ENDMDL
MODEL       26
REMARK 921   NORMALIZED FREE ENERGY PREDICTED BY IDOCK:   -6.58 KCAL/MOL
REMARK 922        TOTAL FREE ENERGY PREDICTED BY IDOCK:   -9.39 KCAL/MOL
REMARK 923 INTER-LIGAND FREE ENERGY PREDICTED BY IDOCK:   -9.09 KCAL/MOL
REMARK 924 INTRA-LIGAND FREE ENERGY PREDICTED BY IDOCK:   -0.30 KCAL/MOL
REMARK 927      BINDING AFFINITY PREDICTED BY RF-SCORE:    0.00 PKD
ROOT
HETATM    1  C   UNL     1     -10.244  19.801  69.184  1.00  0.00    -0.299 C  
HETATM    2  C   UNL     1     -10.402  19.104  67.849  1.00  0.00    -0.414 C  
ENDROOT
BRANCH   2   3
HETATM    3  S   UNL     1      -9.112  17.901  67.575  1.00  0.00    -0.247 S  
HETATM    4  O   UNL     1      -8.984  17.668  66.156  1.00  0.00    -0.452 OA 
HETATM    5  O   UNL     1      -7.977  18.240  68.406  1.00  0.00    -0.289 OA 
BRANCH   3   6
HETATM    6  N   UNL     1      -9.855  16.544  68.248  1.00  0.00    -0.236 N  
HETATM    7  C   UNL     1      -9.419  15.830  69.483  1.00  0.00    -0.248 C  
HETATM    8  C   UNL     1     -10.870  15.270  69.662  1.00  0.00    -0.286 C  
HETATM    9  C   UNL     1     -11.269  16.443  68.709  1.00  0.00    -0.313 C  
BRANCH   8  10
HETATM   10  C   UNL     1     -11.430  15.224  71.077  1.00  0.00    -0.396 C  
BRANCH  10  11
HETATM   11  C   UNL     1     -12.940  15.399  71.092  1.00  0.00    -0.479 C  
HETATM   12  H1  UNL     1     -15.206  15.662  71.114  1.00  0.00     0.000 HD 
HETATM   13  N   UNL     1     -14.193  15.545  71.104  1.00  0.00    -0.793 NA 
HETATM   14  H2  UNL     1     -14.657  15.498  70.196  1.00  0.00     0.000 HD 
ENDBRANCH  10  11
ENDBRANCH   8  10
BRANCH   8  15
HETATM   15  N   UNL     1     -10.947  13.954  69.043  1.00  0.00    -0.255 NA 
HETATM   16  N   UNL     1     -11.417  12.896  69.741  1.00  0.00    -0.188 NA 
HETATM   17  C   UNL     1     -10.542  13.608  67.781  1.00  0.00    -0.242 A  
HETATM   18  C   UNL     1     -11.298  11.871  68.896  1.00  0.00    -0.278 A  
HETATM   19  C   UNL     1     -10.749  12.251  67.658  1.00  0.00    -0.250 A  
BRANCH  19  20
HETATM   20  C   UNL     1     -10.471  11.492  66.468  1.00  0.00    -0.244 A  
HETATM   21  C   UNL     1     -11.151  11.733  65.273  1.00  0.00    -0.333 A  
HETATM   22  C   UNL     1     -12.218  12.555  64.810  1.00  0.00    -0.532 A  
HETATM   23  C   UNL     1     -12.379  12.313  63.462  1.00  0.00    -0.565 A  
HETATM   24  N   UNL     1     -11.466  11.358  63.096  1.00  0.00    -0.873 NA 
HETATM   25  H   UNL     1     -11.353  10.982  62.154  1.00  0.00     0.000 HD 
HETATM   26  C   UNL     1     -10.728  10.985  64.187  1.00  0.00    -0.274 A  
HETATM   27  N   UNL     1      -9.762  10.054  64.172  1.00  0.00    -0.229 NA 
HETATM   28  C   UNL     1      -9.208   9.892  65.386  1.00  0.00    -0.211 A  
HETATM   29  N   UNL     1      -9.505  10.545  66.524  1.00  0.00    -0.162 NA 
ENDBRANCH  19  20
ENDBRANCH   8  15
ENDBRANCH   3   6
ENDBRANCH   2   3
TORSDOF 6
ENDMDL
MODEL       27
REMARK 921   NORMALIZED FREE ENERGY PREDICTED BY IDOCK:   -6.57 KCAL/MOL
REMARK 922        TOTAL FREE ENERGY PREDICTED BY IDOCK:   -9.39 KCAL/MOL
REMARK 923 INTER-LIGAND FREE ENERGY PREDICTED BY IDOCK:   -8.68 KCAL/MOL
REMARK 924 INTRA-LIGAND FREE ENERGY PREDICTED BY IDOCK:   -0.71 KCAL/MOL
REMARK 927      BINDING AFFINITY PREDICTED BY RF-SCORE:    0.00 PKD
ROOT
HETATM    1  C   UNL     1     -12.224  15.519  73.696  1.00  0.00    -0.676 C  
HETATM    2  C   UNL     1     -11.745  15.397  72.264  1.00  0.00    -0.469 C  
ENDROOT
BRANCH   2   3
HETATM    3  S   UNL     1     -12.966  14.613  71.225  1.00  0.00    -0.362 S  
HETATM    4  O   UNL     1     -13.129  13.242  71.648  1.00  0.00    -0.376 OA 
HETATM    5  O   UNL     1     -14.089  15.511  71.069  1.00  0.00    -0.513 OA 
BRANCH   3   6
HETATM    6  N   UNL     1     -12.116  14.596  69.768  1.00  0.00    -0.317 N  
HETATM    7  C   UNL     1     -12.160  15.653  68.716  1.00  0.00    -0.109 C  
HETATM    8  C   UNL     1     -10.761  15.182  68.194  1.00  0.00    -0.254 C  
HETATM    9  C   UNL     1     -10.635  14.521  69.604  1.00  0.00    -0.052 C  
BRANCH   8  10
HETATM   10  C   UNL     1      -9.773  16.262  67.776  1.00  0.00    -0.233 C  
BRANCH  10  11
HETATM   11  C   UNL     1     -10.168  16.911  66.460  1.00  0.00    -0.318 C  
HETATM   12  H1  UNL     1     -10.761  17.886  64.485  1.00  0.00     0.000 HD 
HETATM   13  N   UNL     1     -10.496  17.450  65.368  1.00  0.00    -0.651 NA 
HETATM   14  H2  UNL     1      -9.739  17.603  64.700  1.00  0.00     0.000 HD 
ENDBRANCH  10  11
ENDBRANCH   8  10
BRANCH   8  15
HETATM   15  N   UNL     1     -10.959  14.229  67.110  1.00  0.00    -0.296 NA 
HETATM   16  N   UNL     1     -12.183  14.065  66.558  1.00  0.00    -0.459 NA 
HETATM   17  C   UNL     1     -10.025  13.390  66.564  1.00  0.00    -0.286 A  
HETATM   18  C   UNL     1     -12.004  13.101  65.655  1.00  0.00    -0.415 A  
HETATM   19  C   UNL     1     -10.679  12.632  65.618  1.00  0.00    -0.297 A  
BRANCH  19  20
HETATM   20  C   UNL     1     -10.045  11.637  64.795  1.00  0.00    -0.260 A  
HETATM   21  C   UNL     1      -9.677  10.392  65.307  1.00  0.00    -0.339 A  
HETATM   22  C   UNL     1      -9.667   9.727  66.566  1.00  0.00    -0.267 A  
HETATM   23  C   UNL     1      -9.179   8.454  66.364  1.00  0.00    -0.201 A  
HETATM   24  N   UNL     1      -8.870   8.330  65.034  1.00  0.00    -0.402 NA 
HETATM   25  H   UNL     1      -8.490   7.491  64.595  1.00  0.00     0.000 HD 
HETATM   26  C   UNL     1      -9.149   9.502  64.386  1.00  0.00    -0.182 A  
HETATM   27  N   UNL     1      -8.943   9.718  63.078  1.00  0.00    -0.246 NA 
HETATM   28  C   UNL     1      -9.307  10.960  62.715  1.00  0.00    -0.342 A  
HETATM   29  N   UNL     1      -9.836  11.926  63.488  1.00  0.00    -0.364 NA 
ENDBRANCH  19  20
ENDBRANCH   8  15
ENDBRANCH   3   6
ENDBRANCH   2   3
TORSDOF 6
ENDMDL
MODEL       28
REMARK 921   NORMALIZED FREE ENERGY PREDICTED BY IDOCK:   -6.54 KCAL/MOL
REMARK 922        TOTAL FREE ENERGY PREDICTED BY IDOCK:   -9.35 KCAL/MOL
REMARK 923 INTER-LIGAND FREE ENERGY PREDICTED BY IDOCK:   -8.50 KCAL/MOL
REMARK 924 INTRA-LIGAND FREE ENERGY PREDICTED BY IDOCK:   -0.85 KCAL/MOL
REMARK 927      BINDING AFFINITY PREDICTED BY RF-SCORE:    0.00 PKD
ROOT
HETATM    1  C   UNL     1      -8.444   8.357  65.102  1.00  0.00    -0.179 C  
HETATM    2  C   UNL     1      -9.505   9.390  65.416  1.00  0.00    -0.253 C  
ENDROOT
BRANCH   2   3
HETATM    3  S   UNL     1      -9.434   9.913  67.121  1.00  0.00    -0.162 S  
HETATM    4  O   UNL     1     -10.300   9.064  67.906  1.00  0.00    -0.212 OA 
HETATM    5  O   UNL     1      -8.052  10.145  67.479  1.00  0.00    -0.112 OA 
BRANCH   3   6
HETATM    6  N   UNL     1     -10.188  11.415  66.979  1.00  0.00    -0.207 N  
HETATM    7  C   UNL     1     -10.163  12.298  65.777  1.00  0.00    -0.255 C  
HETATM    8  C   UNL     1     -11.485  12.983  66.261  1.00  0.00    -0.337 C  
HETATM    9  C   UNL     1     -11.645  11.696  67.133  1.00  0.00    -0.212 C  
BRANCH   8  10
HETATM   10  C   UNL     1     -12.529  13.311  65.202  1.00  0.00    -0.525 C  
BRANCH  10  11
HETATM   11  C   UNL     1     -12.385  12.426  63.975  1.00  0.00    -0.488 C  
HETATM   12  H1  UNL     1     -12.170  11.098  62.133  1.00  0.00     0.000 HD 
HETATM   13  N   UNL     1     -12.266  11.692  62.956  1.00  0.00    -0.951 NA 
HETATM   14  H2  UNL     1     -11.312  11.436  62.699  1.00  0.00     0.000 HD 
ENDBRANCH  10  11
ENDBRANCH   8  10
BRANCH   8  15
HETATM   15  N   UNL     1     -11.144  14.175  67.025  1.00  0.00    -0.300 NA 
HETATM   16  N   UNL     1     -11.869  14.521  68.113  1.00  0.00    -0.329 NA 
HETATM   17  C   UNL     1     -10.152  15.079  66.751  1.00  0.00    -0.254 A  
HETATM   18  C   UNL     1     -11.317  15.664  68.520  1.00  0.00    -0.360 A  
HETATM   19  C   UNL     1     -10.246  16.069  67.705  1.00  0.00    -0.262 A  
BRANCH  19  20
HETATM   20  C   UNL     1      -9.365  17.204  67.786  1.00  0.00    -0.245 A  
HETATM   21  C   UNL     1      -9.641  18.393  67.109  1.00  0.00    -0.299 A  
HETATM   22  C   UNL     1     -10.610  18.887  66.190  1.00  0.00    -0.476 A  
HETATM   23  C   UNL     1     -10.305  20.205  65.927  1.00  0.00    -0.340 A  
HETATM   24  N   UNL     1      -9.174  20.522  66.634  1.00  0.00    -0.607 NA 
HETATM   25  H   UNL     1      -8.718  21.435  66.634  1.00  0.00     0.000 HD 
HETATM   26  C   UNL     1      -8.751  19.429  67.340  1.00  0.00    -0.301 A  
HETATM   27  N   UNL     1      -7.659  19.400  68.119  1.00  0.00    -0.286 NA 
HETATM   28  C   UNL     1      -7.486  18.195  68.689  1.00  0.00    -0.290 A  
HETATM   29  N   UNL     1      -8.263  17.103  68.566  1.00  0.00    -0.253 NA 
ENDBRANCH  19  20
ENDBRANCH   8  15
ENDBRANCH   3   6
ENDBRANCH   2   3
TORSDOF 6
ENDMDL
MODEL       29
REMARK 921   NORMALIZED FREE ENERGY PREDICTED BY IDOCK:   -6.50 KCAL/MOL
REMARK 922        TOTAL FREE ENERGY PREDICTED BY IDOCK:   -9.29 KCAL/MOL
REMARK 923 INTER-LIGAND FREE ENERGY PREDICTED BY IDOCK:   -8.74 KCAL/MOL
REMARK 924 INTRA-LIGAND FREE ENERGY PREDICTED BY IDOCK:   -0.55 KCAL/MOL
REMARK 927      BINDING AFFINITY PREDICTED BY RF-SCORE:    0.00 PKD
ROOT
HETATM    1  C   UNL     1     -12.584  15.334  74.062  1.00  0.00    -0.695 C  
HETATM    2  C   UNL     1     -12.323  15.959  72.708  1.00  0.00    -0.480 C  
ENDROOT
BRANCH   2   3
HETATM    3  S   UNL     1     -13.048  15.002  71.388  1.00  0.00    -0.427 S  
HETATM    4  O   UNL     1     -13.001  13.603  71.746  1.00  0.00    -0.343 OA 
HETATM    5  O   UNL     1     -14.270  15.648  70.962  1.00  0.00    -0.465 OA 
BRANCH   3   6
HETATM    6  N   UNL     1     -11.886  15.259  70.192  1.00  0.00    -0.298 N  
HETATM    7  C   UNL     1     -12.110  15.948  68.888  1.00  0.00    -0.049 C  
HETATM    8  C   UNL     1     -10.582  16.274  68.806  1.00  0.00    -0.298 C  
HETATM    9  C   UNL     1     -10.604  16.003  70.345  1.00  0.00    -0.117 C  
BRANCH   8  10
HETATM   10  C   UNL     1     -10.189  17.650  68.287  1.00  0.00    -0.374 C  
BRANCH  10  11
HETATM   11  C   UNL     1     -10.406  17.772  66.788  1.00  0.00    -0.343 C  
HETATM   12  H1  UNL     1     -10.734  17.955  64.538  1.00  0.00     0.000 HD 
HETATM   13  N   UNL     1     -10.588  17.873  65.544  1.00  0.00    -0.611 NA 
HETATM   14  H2  UNL     1     -11.388  17.365  65.166  1.00  0.00     0.000 HD 
ENDBRANCH  10  11
ENDBRANCH   8  10
BRANCH   8  15
HETATM   15  N   UNL     1      -9.919  15.232  68.033  1.00  0.00    -0.223 NA 
HETATM   16  N   UNL     1      -8.569  15.162  67.996  1.00  0.00    -0.153 NA 
HETATM   17  C   UNL     1     -10.512  14.277  67.251  1.00  0.00    -0.269 A  
HETATM   18  C   UNL     1      -8.320  14.143  67.171  1.00  0.00    -0.169 A  
HETATM   19  C   UNL     1      -9.494  13.556  66.667  1.00  0.00    -0.271 A  
BRANCH  19  20
HETATM   20  C   UNL     1      -9.693  12.438  65.784  1.00  0.00    -0.200 A  
HETATM   21  C   UNL     1     -10.632  12.480  64.752  1.00  0.00    -0.333 A  
HETATM   22  C   UNL     1     -11.635  13.370  64.270  1.00  0.00    -0.442 A  
HETATM   23  C   UNL     1     -12.208  12.792  63.157  1.00  0.00    -0.237 A  
HETATM   24  N   UNL     1     -11.607  11.576  62.960  1.00  0.00    -0.856 NA 
HETATM   25  H   UNL     1     -11.828  10.926  62.206  1.00  0.00     0.000 HD 
HETATM   26  C   UNL     1     -10.663  11.366  63.929  1.00  0.00    -0.397 A  
HETATM   27  N   UNL     1      -9.909  10.262  64.033  1.00  0.00    -0.289 NA 
HETATM   28  C   UNL     1      -9.069  10.330  65.081  1.00  0.00    -0.197 A  
HETATM   29  N   UNL     1      -8.921  11.339  65.958  1.00  0.00    -0.201 NA 
ENDBRANCH  19  20
ENDBRANCH   8  15
ENDBRANCH   3   6
ENDBRANCH   2   3
TORSDOF 6
ENDMDL
MODEL       30
REMARK 921   NORMALIZED FREE ENERGY PREDICTED BY IDOCK:   -6.46 KCAL/MOL
REMARK 922        TOTAL FREE ENERGY PREDICTED BY IDOCK:   -9.23 KCAL/MOL
REMARK 923 INTER-LIGAND FREE ENERGY PREDICTED BY IDOCK:   -8.48 KCAL/MOL
REMARK 924 INTRA-LIGAND FREE ENERGY PREDICTED BY IDOCK:   -0.75 KCAL/MOL
REMARK 927      BINDING AFFINITY PREDICTED BY RF-SCORE:    0.00 PKD
ROOT
HETATM    1  C   UNL     1     -12.608  12.401  64.134  1.00  0.00    -0.498 C  
HETATM    2  C   UNL     1     -11.361  13.044  64.704  1.00  0.00    -0.327 C  
ENDROOT
BRANCH   2   3
HETATM    3  S   UNL     1     -10.953  12.384  66.311  1.00  0.00    -0.300 S  
HETATM    4  O   UNL     1     -12.122  11.738  66.861  1.00  0.00    -0.566 OA 
HETATM    5  O   UNL     1      -9.672  11.718  66.228  1.00  0.00    -0.210 OA 
BRANCH   3   6
HETATM    6  N   UNL     1     -10.728  13.829  67.153  1.00  0.00    -0.280 N  
HETATM    7  C   UNL     1     -11.779  14.579  67.900  1.00  0.00    -0.351 C  
HETATM    8  C   UNL     1     -10.668  15.253  68.772  1.00  0.00    -0.241 C  
HETATM    9  C   UNL     1      -9.784  14.059  68.284  1.00  0.00    -0.225 C  
BRANCH   8  10
HETATM   10  C   UNL     1     -10.953  15.421  70.258  1.00  0.00    -0.336 C  
BRANCH  10  11
HETATM   11  C   UNL     1     -12.446  15.463  70.545  1.00  0.00    -0.422 C  
HETATM   12  H1  UNL     1     -14.685  15.525  70.975  1.00  0.00     0.000 HD 
HETATM   13  N   UNL     1     -13.684  15.498  70.783  1.00  0.00    -0.859 NA 
HETATM   14  H2  UNL     1     -14.115  16.423  70.775  1.00  0.00     0.000 HD 
ENDBRANCH  10  11
ENDBRANCH   8  10
BRANCH   8  15
HETATM   15  N   UNL     1     -10.312  16.533  68.175  1.00  0.00    -0.283 NA 
HETATM   16  N   UNL     1     -11.268  17.332  67.650  1.00  0.00     0.007 NA 
HETATM   17  C   UNL     1      -9.055  17.056  68.024  1.00  0.00    -0.237 A  
HETATM   18  C   UNL     1     -10.589  18.370  67.159  1.00  0.00    -0.383 A  
HETATM   19  C   UNL     1      -9.202  18.251  67.355  1.00  0.00    -0.250 A  
BRANCH  19  20
HETATM   20  C   UNL     1      -8.115  19.130  67.015  1.00  0.00    -0.262 A  
HETATM   21  C   UNL     1      -7.238  19.617  67.986  1.00  0.00    -0.321 A  
HETATM   22  C   UNL     1      -7.095  19.567  69.403  1.00  0.00    -0.329 A  
HETATM   23  C   UNL     1      -5.954  20.267  69.733  1.00  0.00    -0.359 A  
HETATM   24  N   UNL     1      -5.413  20.759  68.573  1.00  0.00    -0.290 NA 
HETATM   25  H   UNL     1      -4.561  21.316  68.512  1.00  0.00     0.000 HD 
HETATM   26  C   UNL     1      -6.191  20.388  67.510  1.00  0.00    -0.225 A  
HETATM   27  N   UNL     1      -5.949  20.725  66.234  1.00  0.00    -0.211 NA 
HETATM   28  C   UNL     1      -6.878  20.224  65.402  1.00  0.00    -0.288 A  
HETATM   29  N   UNL     1      -7.940  19.458  65.713  1.00  0.00    -0.433 NA 
ENDBRANCH  19  20
ENDBRANCH   8  15
ENDBRANCH   3   6
ENDBRANCH   2   3
TORSDOF 6
ENDMDL
MODEL       31
REMARK 921   NORMALIZED FREE ENERGY PREDICTED BY IDOCK:   -6.46 KCAL/MOL
REMARK 922        TOTAL FREE ENERGY PREDICTED BY IDOCK:   -9.23 KCAL/MOL
REMARK 923 INTER-LIGAND FREE ENERGY PREDICTED BY IDOCK:   -8.50 KCAL/MOL
REMARK 924 INTRA-LIGAND FREE ENERGY PREDICTED BY IDOCK:   -0.73 KCAL/MOL
REMARK 927      BINDING AFFINITY PREDICTED BY RF-SCORE:    0.00 PKD
ROOT
HETATM    1  C   UNL     1     -12.048  16.208  71.321  1.00  0.00    -0.332 C  
HETATM    2  C   UNL     1     -11.495  15.115  70.431  1.00  0.00    -0.286 C  
ENDROOT
BRANCH   2   3
HETATM    3  S   UNL     1     -10.390  15.768  69.191  1.00  0.00    -0.260 S  
HETATM    4  O   UNL     1     -10.954  16.986  68.658  1.00  0.00    -0.312 OA 
HETATM    5  O   UNL     1      -9.035  15.702  69.694  1.00  0.00    -0.262 OA 
BRANCH   3   6
HETATM    6  N   UNL     1     -10.560  14.572  68.013  1.00  0.00    -0.235 N  
HETATM    7  C   UNL     1     -11.843  13.948  67.579  1.00  0.00    -0.396 C  
HETATM    8  C   UNL     1     -11.185  13.563  66.212  1.00  0.00    -0.297 C  
HETATM    9  C   UNL     1     -10.144  14.667  66.585  1.00  0.00    -0.273 C  
BRANCH   8  10
HETATM   10  C   UNL     1     -12.036  13.722  64.959  1.00  0.00    -0.424 C  
BRANCH  10  11
HETATM   11  C   UNL     1     -11.939  15.127  64.385  1.00  0.00    -0.310 C  
HETATM   12  H1  UNL     1     -11.794  17.234  63.524  1.00  0.00     0.000 HD 
HETATM   13  N   UNL     1     -11.860  16.292  63.909  1.00  0.00    -1.412 NA 
HETATM   14  H2  UNL     1     -12.721  16.839  63.921  1.00  0.00     0.000 HD 
ENDBRANCH  10  11
ENDBRANCH   8  10
BRANCH   8  15
HETATM   15  N   UNL     1     -10.666  12.206  66.304  1.00  0.00    -0.252 NA 
HETATM   16  N   UNL     1      -9.719  11.775  65.440  1.00  0.00    -0.231 NA 
HETATM   17  C   UNL     1     -11.061  11.226  67.175  1.00  0.00    -0.301 A  
HETATM   18  C   UNL     1      -9.526  10.500  65.780  1.00  0.00    -0.201 A  
HETATM   19  C   UNL     1     -10.341  10.096  66.852  1.00  0.00    -0.298 A  
BRANCH  19  20
HETATM   20  C   UNL     1     -10.444   8.841  67.548  1.00  0.00    -0.271 A  
HETATM   21  C   UNL     1     -10.244   8.751  68.926  1.00  0.00    -0.221 A  
HETATM   22  C   UNL     1      -9.855   9.606  69.997  1.00  0.00    -0.286 A  
HETATM   23  C   UNL     1      -9.880   8.863  71.157  1.00  0.00    -0.275 A  
HETATM   24  N   UNL     1     -10.247   7.583  70.827  1.00  0.00    -0.194 NA 
HETATM   25  H   UNL     1     -10.351   6.813  71.488  1.00  0.00     0.000 HD 
HETATM   26  C   UNL     1     -10.452   7.497  69.477  1.00  0.00    -0.226 A  
HETATM   27  N   UNL     1     -10.802   6.376  68.829  1.00  0.00    -0.287 NA 
HETATM   28  C   UNL     1     -10.933   6.585  67.507  1.00  0.00    -0.359 A  
HETATM   29  N   UNL     1     -10.771   7.738  66.832  1.00  0.00    -0.298 NA 
ENDBRANCH  19  20
ENDBRANCH   8  15
ENDBRANCH   3   6
ENDBRANCH   2   3
TORSDOF 6
ENDMDL
MODEL       32
REMARK 921   NORMALIZED FREE ENERGY PREDICTED BY IDOCK:   -6.45 KCAL/MOL
REMARK 922        TOTAL FREE ENERGY PREDICTED BY IDOCK:   -9.23 KCAL/MOL
REMARK 923 INTER-LIGAND FREE ENERGY PREDICTED BY IDOCK:   -8.86 KCAL/MOL
REMARK 924 INTRA-LIGAND FREE ENERGY PREDICTED BY IDOCK:   -0.37 KCAL/MOL
REMARK 927      BINDING AFFINITY PREDICTED BY RF-SCORE:    0.00 PKD
ROOT
HETATM    1  C   UNL     1     -11.666   9.612  71.218  1.00  0.00    -0.458 C  
HETATM    2  C   UNL     1     -11.880  10.400  69.943  1.00  0.00    -0.238 C  
ENDROOT
BRANCH   2   3
HETATM    3  S   UNL     1     -10.521  10.198  68.805  1.00  0.00    -0.216 S  
HETATM    4  O   UNL     1      -9.280  10.291  69.538  1.00  0.00    -0.208 OA 
HETATM    5  O   UNL     1     -10.813   9.088  67.924  1.00  0.00    -0.178 OA 
BRANCH   3   6
HETATM    6  N   UNL     1     -10.692  11.620  67.914  1.00  0.00    -0.193 N  
HETATM    7  C   UNL     1     -10.565  11.747  66.433  1.00  0.00    -0.255 C  
HETATM    8  C   UNL     1     -11.440  13.044  66.476  1.00  0.00    -0.340 C  
HETATM    9  C   UNL     1     -11.897  12.499  67.868  1.00  0.00    -0.323 C  
BRANCH   8  10
HETATM   10  C   UNL     1     -12.465  13.231  65.366  1.00  0.00    -0.543 C  
BRANCH  10  11
HETATM   11  C   UNL     1     -12.187  12.319  64.182  1.00  0.00    -0.446 C  
HETATM   12  H1  UNL     1     -11.771  10.950  62.406  1.00  0.00     0.000 HD 
HETATM   13  N   UNL     1     -11.957  11.561  63.200  1.00  0.00    -0.917 NA 
HETATM   14  H2  UNL     1     -12.246  10.589  63.308  1.00  0.00     0.000 HD 
ENDBRANCH  10  11
ENDBRANCH   8  10
BRANCH   8  15
HETATM   15  N   UNL     1     -10.561  14.203  66.555  1.00  0.00    -0.280 NA 
HETATM   16  N   UNL     1      -9.218  14.045  66.543  1.00  0.00    -0.253 NA 
HETATM   17  C   UNL     1     -10.931  15.514  66.694  1.00  0.00    -0.248 A  
HETATM   18  C   UNL     1      -8.745  15.285  66.679  1.00  0.00    -0.291 A  
HETATM   19  C   UNL     1      -9.766  16.245  66.788  1.00  0.00    -0.253 A  
BRANCH  19  20
HETATM   20  C   UNL     1      -9.715  17.677  66.921  1.00  0.00    -0.292 A  
HETATM   21  C   UNL     1      -8.635  18.417  66.439  1.00  0.00    -0.264 A  
HETATM   22  C   UNL     1      -7.369  18.171  65.835  1.00  0.00    -0.240 A  
HETATM   23  C   UNL     1      -6.783  19.392  65.576  1.00  0.00    -0.280 A  
HETATM   24  N   UNL     1      -7.636  20.368  66.022  1.00  0.00    -0.514 NA 
HETATM   25  H   UNL     1      -7.464  21.372  65.959  1.00  0.00     0.000 HD 
HETATM   26  C   UNL     1      -8.753  19.792  66.564  1.00  0.00    -0.360 A  
HETATM   27  N   UNL     1      -9.774  20.471  67.108  1.00  0.00    -0.456 NA 
HETATM   28  C   UNL     1     -10.733  19.647  67.562  1.00  0.00    -0.406 A  
HETATM   29  N   UNL     1     -10.764  18.302  67.507  1.00  0.00    -0.406 NA 
ENDBRANCH  19  20
ENDBRANCH   8  15
ENDBRANCH   3   6
ENDBRANCH   2   3
TORSDOF 6
ENDMDL
MODEL       33
REMARK 921   NORMALIZED FREE ENERGY PREDICTED BY IDOCK:   -6.38 KCAL/MOL
REMARK 922        TOTAL FREE ENERGY PREDICTED BY IDOCK:   -9.12 KCAL/MOL
REMARK 923 INTER-LIGAND FREE ENERGY PREDICTED BY IDOCK:   -8.09 KCAL/MOL
REMARK 924 INTRA-LIGAND FREE ENERGY PREDICTED BY IDOCK:   -1.04 KCAL/MOL
REMARK 927      BINDING AFFINITY PREDICTED BY RF-SCORE:    0.00 PKD
ROOT
HETATM    1  C   UNL     1     -11.921  13.675  68.701  1.00  0.00    -0.395 C  
HETATM    2  C   UNL     1     -12.021  14.834  67.731  1.00  0.00    -0.216 C  
ENDROOT
BRANCH   2   3
HETATM    3  S   UNL     1     -11.743  14.313  66.047  1.00  0.00    -0.384 S  
HETATM    4  O   UNL     1     -13.014  13.988  65.443  1.00  0.00    -0.726 OA 
HETATM    5  O   UNL     1     -10.805  15.223  65.428  1.00  0.00    -0.341 OA 
BRANCH   3   6
HETATM    6  N   UNL     1     -10.935  12.861  66.339  1.00  0.00    -0.280 N  
HETATM    7  C   UNL     1     -11.340  11.517  65.834  1.00  0.00    -0.108 C  
HETATM    8  C   UNL     1      -9.863  11.022  65.989  1.00  0.00    -0.229 C  
HETATM    9  C   UNL     1      -9.520  12.547  65.988  1.00  0.00    -0.152 C  
BRANCH   8  10
HETATM   10  C   UNL     1      -9.310  10.124  64.890  1.00  0.00    -0.310 C  
BRANCH  10  11
HETATM   11  C   UNL     1      -9.587  10.689  63.506  1.00  0.00    -0.323 C  
HETATM   12  H1  UNL     1     -10.004  11.537  61.430  1.00  0.00     0.000 HD 
HETATM   13  N   UNL     1      -9.817  11.158  62.358  1.00  0.00    -0.547 NA 
HETATM   14  H2  UNL     1      -9.021  11.582  61.881  1.00  0.00     0.000 HD 
ENDBRANCH  10  11
ENDBRANCH   8  10
BRANCH   8  15
HETATM   15  N   UNL     1      -9.714  10.383  67.289  1.00  0.00    -0.162 NA 
HETATM   16  N   UNL     1      -8.551  10.486  67.972  1.00  0.00    -0.119 NA 
HETATM   17  C   UNL     1     -10.634   9.605  67.940  1.00  0.00    -0.255 A  
HETATM   18  C   UNL     1      -8.754   9.753  69.068  1.00  0.00    -0.148 A  
HETATM   19  C   UNL     1     -10.033   9.171  69.101  1.00  0.00    -0.189 A  
BRANCH  19  20
HETATM   20  C   UNL     1     -10.675   8.341  70.086  1.00  0.00    -0.239 A  
HETATM   21  C   UNL     1     -11.659   8.845  70.937  1.00  0.00    -0.331 A  
HETATM   22  C   UNL     1     -12.266  10.101  71.226  1.00  0.00    -0.496 A  
HETATM   23  C   UNL     1     -13.224   9.890  72.195  1.00  0.00    -0.415 A  
HETATM   24  N   UNL     1     -13.203   8.559  72.522  1.00  0.00    -0.604 NA 
HETATM   25  H   UNL     1     -13.809   8.114  73.212  1.00  0.00     0.000 HD 
HETATM   26  C   UNL     1     -12.248   7.918  71.781  1.00  0.00    -0.310 A  
HETATM   27  N   UNL     1     -11.960   6.611  71.875  1.00  0.00    -0.331 NA 
HETATM   28  C   UNL     1     -10.978   6.256  71.029  1.00  0.00    -0.283 A  
HETATM   29  N   UNL     1     -10.319   7.035  70.152  1.00  0.00    -0.194 NA 
ENDBRANCH  19  20
ENDBRANCH   8  15
ENDBRANCH   3   6
ENDBRANCH   2   3
TORSDOF 6
ENDMDL
MODEL       34
REMARK 921   NORMALIZED FREE ENERGY PREDICTED BY IDOCK:   -6.37 KCAL/MOL
REMARK 922        TOTAL FREE ENERGY PREDICTED BY IDOCK:   -9.11 KCAL/MOL
REMARK 923 INTER-LIGAND FREE ENERGY PREDICTED BY IDOCK:   -8.36 KCAL/MOL
REMARK 924 INTRA-LIGAND FREE ENERGY PREDICTED BY IDOCK:   -0.76 KCAL/MOL
REMARK 927      BINDING AFFINITY PREDICTED BY RF-SCORE:    0.00 PKD
ROOT
HETATM    1  C   UNL     1     -10.099   9.767  69.933  1.00  0.00    -0.288 C  
HETATM    2  C   UNL     1      -9.930  11.142  69.320  1.00  0.00    -0.007 C  
ENDROOT
BRANCH   2   3
HETATM    3  S   UNL     1     -11.477  12.029  69.249  1.00  0.00    -0.305 S  
HETATM    4  O   UNL     1     -12.396  11.298  68.409  1.00  0.00    -0.545 OA 
HETATM    5  O   UNL     1     -11.828  12.456  70.586  1.00  0.00    -0.219 OA 
BRANCH   3   6
HETATM    6  N   UNL     1     -10.975  13.390  68.389  1.00  0.00    -0.256 N  
HETATM    7  C   UNL     1      -9.715  13.511  67.599  1.00  0.00    -0.229 C  
HETATM    8  C   UNL     1     -10.367  14.651  66.748  1.00  0.00    -0.268 C  
HETATM    9  C   UNL     1     -11.713  14.062  67.281  1.00  0.00    -0.389 C  
BRANCH   8  10
HETATM   10  C   UNL     1     -10.085  14.652  65.251  1.00  0.00    -0.393 C  
BRANCH  10  11
HETATM   11  C   UNL     1     -10.925  15.687  64.520  1.00  0.00    -0.200 C  
HETATM   12  H1  UNL     1     -12.185  17.240  63.422  1.00  0.00     0.000 HD 
HETATM   13  N   UNL     1     -11.622  16.546  63.913  1.00  0.00    -1.578 NA 
HETATM   14  H2  UNL     1     -11.879  17.373  64.452  1.00  0.00     0.000 HD 
ENDBRANCH  10  11
ENDBRANCH   8  10
BRANCH   8  15
HETATM   15  N   UNL     1     -10.012  15.937  67.332  1.00  0.00    -0.236 NA 
HETATM   16  N   UNL     1     -10.941  16.673  67.983  1.00  0.00    -0.343 NA 
HETATM   17  C   UNL     1      -8.797  16.567  67.272  1.00  0.00    -0.192 A  
HETATM   18  C   UNL     1     -10.290  17.783  68.331  1.00  0.00    -0.376 A  
HETATM   19  C   UNL     1      -8.949  17.780  67.907  1.00  0.00    -0.255 A  
BRANCH  19  20
HETATM   20  C   UNL     1      -7.894  18.743  68.083  1.00  0.00    -0.288 A  
HETATM   21  C   UNL     1      -7.413  19.502  67.015  1.00  0.00    -0.251 A  
HETATM   22  C   UNL     1      -7.614  19.596  65.608  1.00  0.00    -0.190 A  
HETATM   23  C   UNL     1      -6.809  20.611  65.137  1.00  0.00    -0.138 A  
HETATM   24  N   UNL     1      -6.111  21.120  66.201  1.00  0.00    -0.291 NA 
HETATM   25  H   UNL     1      -5.438  21.886  66.151  1.00  0.00     0.000 HD 
HETATM   26  C   UNL     1      -6.453  20.446  67.342  1.00  0.00    -0.235 A  
HETATM   27  N   UNL     1      -5.935  20.687  68.555  1.00  0.00    -0.319 NA 
HETATM   28  C   UNL     1      -6.455  19.872  69.489  1.00  0.00    -0.354 A  
HETATM   29  N   UNL     1      -7.391  18.919  69.327  1.00  0.00    -0.214 NA 
ENDBRANCH  19  20
ENDBRANCH   8  15
ENDBRANCH   3   6
ENDBRANCH   2   3
TORSDOF 6
ENDMDL
MODEL       35
REMARK 921   NORMALIZED FREE ENERGY PREDICTED BY IDOCK:   -6.32 KCAL/MOL
REMARK 922        TOTAL FREE ENERGY PREDICTED BY IDOCK:   -9.04 KCAL/MOL
REMARK 923 INTER-LIGAND FREE ENERGY PREDICTED BY IDOCK:   -8.29 KCAL/MOL
REMARK 924 INTRA-LIGAND FREE ENERGY PREDICTED BY IDOCK:   -0.76 KCAL/MOL
REMARK 927      BINDING AFFINITY PREDICTED BY RF-SCORE:    0.00 PKD
ROOT
HETATM    1  C   UNL     1      -9.470   6.757  66.667  1.00  0.00    -0.205 C  
HETATM    2  C   UNL     1      -9.861   8.212  66.815  1.00  0.00    -0.259 C  
ENDROOT
BRANCH   2   3
HETATM    3  S   UNL     1      -8.707   9.293  65.987  1.00  0.00    -0.162 S  
HETATM    4  O   UNL     1      -7.475   9.325  66.740  1.00  0.00    -0.086 OA 
HETATM    5  O   UNL     1      -8.736   9.006  64.569  1.00  0.00    -0.177 OA 
BRANCH   3   6
HETATM    6  N   UNL     1      -9.489  10.768  66.229  1.00  0.00    -0.176 N  
HETATM    7  C   UNL     1      -9.056  12.088  65.685  1.00  0.00     0.078 C  
HETATM    8  C   UNL     1     -10.524  12.615  65.817  1.00  0.00    -0.277 C  
HETATM    9  C   UNL     1     -10.896  11.098  65.862  1.00  0.00    -0.157 C  
BRANCH   8  10
HETATM   10  C   UNL     1     -11.055  13.488  64.688  1.00  0.00    -0.383 C  
BRANCH  10  11
HETATM   11  C   UNL     1     -12.048  12.739  63.814  1.00  0.00    -0.517 C  
HETATM   12  H1  UNL     1     -13.537  11.614  62.503  1.00  0.00     0.000 HD 
HETATM   13  N   UNL     1     -12.872  12.116  63.090  1.00  0.00    -0.796 NA 
HETATM   14  H2  UNL     1     -13.650  11.672  63.578  1.00  0.00     0.000 HD 
ENDBRANCH  10  11
ENDBRANCH   8  10
BRANCH   8  15
HETATM   15  N   UNL     1     -10.666  13.297  67.096  1.00  0.00    -0.258 NA 
HETATM   16  N   UNL     1      -9.678  14.094  67.561  1.00  0.00    -0.230 NA 
HETATM   17  C   UNL     1     -11.715  13.202  67.973  1.00  0.00    -0.355 A  
HETATM   18  C   UNL     1     -10.121  14.499  68.751  1.00  0.00    -0.239 A  
HETATM   19  C   UNL     1     -11.384  13.968  69.069  1.00  0.00    -0.319 A  
BRANCH  19  20
HETATM   20  C   UNL     1     -12.233  14.154  70.216  1.00  0.00    -0.349 A  
HETATM   21  C   UNL     1     -12.689  13.072  70.969  1.00  0.00    -0.347 A  
HETATM   22  C   UNL     1     -12.630  11.650  70.922  1.00  0.00    -0.409 A  
HETATM   23  C   UNL     1     -13.295  11.166  72.029  1.00  0.00    -0.278 A  
HETATM   24  N   UNL     1     -13.776  12.240  72.732  1.00  0.00    -0.461 NA 
HETATM   25  H   UNL     1     -14.308  12.184  73.600  1.00  0.00     0.000 HD 
HETATM   26  C   UNL     1     -13.432  13.400  72.092  1.00  0.00    -0.552 A  
HETATM   27  N   UNL     1     -13.766  14.630  72.510  1.00  0.00    -0.455 NA 
HETATM   28  C   UNL     1     -13.295  15.581  71.685  1.00  0.00    -0.498 A  
HETATM   29  N   UNL     1     -12.560  15.420  70.570  1.00  0.00    -0.419 NA 
ENDBRANCH  19  20
ENDBRANCH   8  15
ENDBRANCH   3   6
ENDBRANCH   2   3
TORSDOF 6
ENDMDL
MODEL       36
REMARK 921   NORMALIZED FREE ENERGY PREDICTED BY IDOCK:   -6.28 KCAL/MOL
REMARK 922        TOTAL FREE ENERGY PREDICTED BY IDOCK:   -9.00 KCAL/MOL
REMARK 923 INTER-LIGAND FREE ENERGY PREDICTED BY IDOCK:   -8.45 KCAL/MOL
REMARK 924 INTRA-LIGAND FREE ENERGY PREDICTED BY IDOCK:   -0.55 KCAL/MOL
REMARK 927      BINDING AFFINITY PREDICTED BY RF-SCORE:    0.00 PKD
ROOT
HETATM    1  C   UNL     1      -9.384   3.455  68.164  1.00  0.00    -0.240 C  
HETATM    2  C   UNL     1     -10.018   4.502  69.056  1.00  0.00    -0.081 C  
ENDROOT
BRANCH   2   3
HETATM    3  S   UNL     1     -10.049   6.106  68.272  1.00  0.00    -0.174 S  
HETATM    4  O   UNL     1      -8.695   6.498  67.958  1.00  0.00    -0.118 OA 
HETATM    5  O   UNL     1     -11.104   6.119  67.283  1.00  0.00    -0.333 OA 
BRANCH   3   6
HETATM    6  N   UNL     1     -10.558   7.041  69.580  1.00  0.00    -0.226 N  
HETATM    7  C   UNL     1     -11.574   6.644  70.598  1.00  0.00    -0.382 C  
HETATM    8  C   UNL     1     -10.950   7.663  71.609  1.00  0.00    -0.233 C  
HETATM    9  C   UNL     1      -9.700   7.580  70.674  1.00  0.00    -0.175 C  
BRANCH   8  10
HETATM   10  C   UNL     1     -10.835   7.222  73.062  1.00  0.00    -0.399 C  
BRANCH  10  11
HETATM   11  C   UNL     1     -11.080   5.730  73.220  1.00  0.00    -0.208 C  
HETATM   12  H1  UNL     1     -11.446   3.491  73.458  1.00  0.00     0.000 HD 
HETATM   13  N   UNL     1     -11.282   4.492  73.352  1.00  0.00    -0.316 NA 
HETATM   14  H2  UNL     1     -11.355   4.150  74.311  1.00  0.00     0.000 HD 
ENDBRANCH  10  11
ENDBRANCH   8  10
BRANCH   8  15
HETATM   15  N   UNL     1     -11.674   8.923  71.516  1.00  0.00    -0.300 NA 
HETATM   16  N   UNL     1     -12.905   9.047  72.062  1.00  0.00    -0.370 NA 
HETATM   17  C   UNL     1     -11.272  10.064  70.874  1.00  0.00    -0.341 A  
HETATM   18  C   UNL     1     -13.276  10.288  71.747  1.00  0.00    -0.430 A  
HETATM   19  C   UNL     1     -12.301  10.971  70.998  1.00  0.00    -0.490 A  
BRANCH  19  20
HETATM   20  C   UNL     1     -12.269  12.312  70.476  1.00  0.00    -0.300 A  
HETATM   21  C   UNL     1     -12.780  13.390  71.201  1.00  0.00    -0.411 A  
HETATM   22  C   UNL     1     -13.474  13.608  72.425  1.00  0.00    -0.685 A  
HETATM   23  C   UNL     1     -13.666  14.966  72.562  1.00  0.00    -0.464 A  
HETATM   24  N   UNL     1     -13.135  15.577  71.456  1.00  0.00    -0.471 NA 
HETATM   25  H   UNL     1     -13.131  16.583  71.286  1.00  0.00     0.000 HD 
HETATM   26  C   UNL     1     -12.612  14.633  70.614  1.00  0.00    -0.357 A  
HETATM   27  N   UNL     1     -12.035  14.900  69.433  1.00  0.00    -0.308 NA 
HETATM   28  C   UNL     1     -11.614  13.780  68.821  1.00  0.00    -0.328 A  
HETATM   29  N   UNL     1     -11.699  12.513  69.264  1.00  0.00    -0.309 NA 
ENDBRANCH  19  20
ENDBRANCH   8  15
ENDBRANCH   3   6
ENDBRANCH   2   3
TORSDOF 6
ENDMDL
MODEL       37
REMARK 921   NORMALIZED FREE ENERGY PREDICTED BY IDOCK:   -6.24 KCAL/MOL
REMARK 922        TOTAL FREE ENERGY PREDICTED BY IDOCK:   -8.94 KCAL/MOL
REMARK 923 INTER-LIGAND FREE ENERGY PREDICTED BY IDOCK:   -8.51 KCAL/MOL
REMARK 924 INTRA-LIGAND FREE ENERGY PREDICTED BY IDOCK:   -0.43 KCAL/MOL
REMARK 927      BINDING AFFINITY PREDICTED BY RF-SCORE:    0.00 PKD
ROOT
HETATM    1  C   UNL     1     -14.359   7.390  71.456  1.00  0.00    -0.594 C  
HETATM    2  C   UNL     1     -13.334   8.336  72.046  1.00  0.00    -0.313 C  
ENDROOT
BRANCH   2   3
HETATM    3  S   UNL     1     -11.676   7.696  71.887  1.00  0.00    -0.303 S  
HETATM    4  O   UNL     1     -10.969   7.918  73.127  1.00  0.00    -0.383 OA 
HETATM    5  O   UNL     1     -11.738   6.395  71.258  1.00  0.00    -0.316 OA 
BRANCH   3   6
HETATM    6  N   UNL     1     -11.067   8.787  70.753  1.00  0.00    -0.253 N  
HETATM    7  C   UNL     1      -9.900   9.695  70.951  1.00  0.00    -0.098 C  
HETATM    8  C   UNL     1      -9.702   9.767  69.400  1.00  0.00    -0.202 C  
HETATM    9  C   UNL     1     -10.558   8.459  69.391  1.00  0.00    -0.197 C  
BRANCH   8  10
HETATM   10  C   UNL     1      -8.272   9.737  68.878  1.00  0.00    -0.117 C  
BRANCH  10  11
HETATM   11  C   UNL     1      -7.328  10.525  69.771  1.00  0.00    -0.134 C  
HETATM   12  H1  UNL     1      -5.911  11.708  71.111  1.00  0.00     0.000 HD 
HETATM   13  N   UNL     1      -6.545  11.179  70.512  1.00  0.00    -0.496 NA 
HETATM   14  H2  UNL     1      -6.269  10.723  71.383  1.00  0.00     0.000 HD 
ENDBRANCH  10  11
ENDBRANCH   8  10
BRANCH   8  15
HETATM   15  N   UNL     1     -10.405  10.936  68.889  1.00  0.00    -0.196 NA 
HETATM   16  N   UNL     1     -11.470  11.439  69.553  1.00  0.00    -0.286 NA 
HETATM   17  C   UNL     1     -10.145  11.617  67.729  1.00  0.00    -0.187 A  
HETATM   18  C   UNL     1     -11.882  12.450  68.787  1.00  0.00    -0.311 A  
HETATM   19  C   UNL     1     -11.099  12.605  67.629  1.00  0.00    -0.303 A  
BRANCH  19  20
HETATM   20  C   UNL     1     -11.167  13.563  66.557  1.00  0.00    -0.306 A  
HETATM   21  C   UNL     1     -11.682  13.223  65.305  1.00  0.00    -0.357 A  
HETATM   22  C   UNL     1     -12.166  12.060  64.641  1.00  0.00    -0.289 A  
HETATM   23  C   UNL     1     -12.559  12.435  63.374  1.00  0.00    -0.366 A  
HETATM   24  N   UNL     1     -12.310  13.776  63.237  1.00  0.00    -1.124 NA 
HETATM   25  H   UNL     1     -12.504  14.327  62.401  1.00  0.00     0.000 HD 
HETATM   26  C   UNL     1     -11.761  14.262  64.393  1.00  0.00    -0.389 A  
HETATM   27  N   UNL     1     -11.383  15.535  64.580  1.00  0.00    -0.406 NA 
HETATM   28  C   UNL     1     -10.876  15.727  65.810  1.00  0.00    -0.280 A  
HETATM   29  N   UNL     1     -10.741  14.825  66.800  1.00  0.00    -0.302 NA 
ENDBRANCH  19  20
ENDBRANCH   8  15
ENDBRANCH   3   6
ENDBRANCH   2   3
TORSDOF 6
ENDMDL
MODEL       38
REMARK 921   NORMALIZED FREE ENERGY PREDICTED BY IDOCK:   -6.22 KCAL/MOL
REMARK 922        TOTAL FREE ENERGY PREDICTED BY IDOCK:   -8.92 KCAL/MOL
REMARK 923 INTER-LIGAND FREE ENERGY PREDICTED BY IDOCK:   -8.49 KCAL/MOL
REMARK 924 INTRA-LIGAND FREE ENERGY PREDICTED BY IDOCK:   -0.43 KCAL/MOL
REMARK 927      BINDING AFFINITY PREDICTED BY RF-SCORE:    0.00 PKD
ROOT
HETATM    1  C   UNL     1     -10.336   6.029  74.066  1.00  0.00    -0.301 C  
HETATM    2  C   UNL     1     -11.105   5.933  72.765  1.00  0.00    -0.281 C  
ENDROOT
BRANCH   2   3
HETATM    3  S   UNL     1     -10.028   6.071  71.349  1.00  0.00    -0.189 S  
HETATM    4  O   UNL     1      -8.664   6.188  71.810  1.00  0.00    -0.136 OA 
HETATM    5  O   UNL     1     -10.426   5.089  70.365  1.00  0.00    -0.249 OA 
BRANCH   3   6
HETATM    6  N   UNL     1     -10.506   7.587  70.786  1.00  0.00    -0.211 N  
HETATM    7  C   UNL     1     -11.904   8.006  70.478  1.00  0.00    -0.008 C  
HETATM    8  C   UNL     1     -11.494   9.502  70.683  1.00  0.00    -0.297 C  
HETATM    9  C   UNL     1     -10.282   8.897  71.463  1.00  0.00    -0.328 C  
BRANCH   8  10
HETATM   10  C   UNL     1     -12.483  10.403  71.410  1.00  0.00    -0.521 C  
BRANCH  10  11
HETATM   11  C   UNL     1     -13.508   9.599  72.194  1.00  0.00    -0.429 C  
HETATM   12  H1  UNL     1     -15.046   8.393  73.370  1.00  0.00     0.000 HD 
HETATM   13  N   UNL     1     -14.358   8.932  72.844  1.00  0.00    -1.124 NA 
HETATM   14  H2  UNL     1     -14.885   8.239  72.311  1.00  0.00     0.000 HD 
ENDBRANCH  10  11
ENDBRANCH   8  10
BRANCH   8  15
HETATM   15  N   UNL     1     -11.139  10.075  69.392  1.00  0.00    -0.235 NA 
HETATM   16  N   UNL     1     -10.123   9.555  68.669  1.00  0.00    -0.174 NA 
HETATM   17  C   UNL     1     -11.703  11.168  68.788  1.00  0.00    -0.326 A  
HETATM   18  C   UNL     1     -10.051  10.343  67.595  1.00  0.00    -0.188 A  
HETATM   19  C   UNL     1     -11.007  11.375  67.617  1.00  0.00    -0.303 A  
BRANCH  19  20
HETATM   20  C   UNL     1     -11.301  12.419  66.672  1.00  0.00    -0.339 A  
HETATM   21  C   UNL     1     -10.473  13.534  66.535  1.00  0.00    -0.284 A  
HETATM   22  C   UNL     1      -9.312  14.073  67.160  1.00  0.00    -0.244 A  
HETATM   23  C   UNL     1      -8.981  15.236  66.497  1.00  0.00    -0.305 A  
HETATM   24  N   UNL     1      -9.911  15.434  65.509  1.00  0.00    -0.341 NA 
HETATM   25  H   UNL     1      -9.916  16.217  64.856  1.00  0.00     0.000 HD 
HETATM   26  C   UNL     1     -10.831  14.421  65.533  1.00  0.00    -0.331 A  
HETATM   27  N   UNL     1     -11.884  14.328  64.707  1.00  0.00    -0.406 NA 
HETATM   28  C   UNL     1     -12.618  13.230  64.959  1.00  0.00    -0.423 A  
HETATM   29  N   UNL     1     -12.396  12.281  65.887  1.00  0.00    -0.519 NA 
ENDBRANCH  19  20
ENDBRANCH   8  15
ENDBRANCH   3   6
ENDBRANCH   2   3
TORSDOF 6
ENDMDL
MODEL       39
REMARK 921   NORMALIZED FREE ENERGY PREDICTED BY IDOCK:   -6.21 KCAL/MOL
REMARK 922        TOTAL FREE ENERGY PREDICTED BY IDOCK:   -8.90 KCAL/MOL
REMARK 923 INTER-LIGAND FREE ENERGY PREDICTED BY IDOCK:   -8.79 KCAL/MOL
REMARK 924 INTRA-LIGAND FREE ENERGY PREDICTED BY IDOCK:   -0.12 KCAL/MOL
REMARK 927      BINDING AFFINITY PREDICTED BY RF-SCORE:    0.00 PKD
ROOT
HETATM    1  C   UNL     1      -9.900  18.872  67.995  1.00  0.00    -0.404 C  
HETATM    2  C   UNL     1     -10.308  17.435  67.748  1.00  0.00    -0.358 C  
ENDROOT
BRANCH   2   3
HETATM    3  S   UNL     1      -9.821  16.880  66.123  1.00  0.00    -0.275 S  
HETATM    4  O   UNL     1     -10.667  17.515  65.140  1.00  0.00    -0.673 OA 
HETATM    5  O   UNL     1      -8.377  16.914  66.034  1.00  0.00    -0.453 OA 
BRANCH   3   6
HETATM    6  N   UNL     1     -10.292  15.264  66.232  1.00  0.00    -0.281 N  
HETATM    7  C   UNL     1     -11.639  14.770  66.640  1.00  0.00    -0.313 C  
HETATM    8  C   UNL     1     -11.371  13.430  65.878  1.00  0.00    -0.309 C  
HETATM    9  C   UNL     1     -10.278  14.259  65.130  1.00  0.00    -0.385 C  
BRANCH   8  10
HETATM   10  C   UNL     1     -12.531  12.831  65.093  1.00  0.00    -0.565 C  
BRANCH  10  11
HETATM   11  C   UNL     1     -12.045  11.967  63.940  1.00  0.00    -0.457 C  
HETATM   12  H1  UNL     1     -11.316  10.672  62.210  1.00  0.00     0.000 HD 
HETATM   13  N   UNL     1     -11.642  11.251  62.983  1.00  0.00    -0.808 NA 
HETATM   14  H2  UNL     1     -11.842  10.253  63.058  1.00  0.00     0.000 HD 
ENDBRANCH  10  11
ENDBRANCH   8  10
BRANCH   8  15
HETATM   15  N   UNL     1     -10.834  12.453  66.815  1.00  0.00    -0.241 NA 
HETATM   16  N   UNL     1      -9.784  12.770  67.606  1.00  0.00    -0.200 NA 
HETATM   17  C   UNL     1     -11.245  11.158  66.988  1.00  0.00    -0.219 A  
HETATM   18  C   UNL     1      -9.536  11.646  68.281  1.00  0.00    -0.198 A  
HETATM   19  C   UNL     1     -10.410  10.602  67.932  1.00  0.00    -0.231 A  
BRANCH  19  20
HETATM   20  C   UNL     1     -10.520   9.251  68.417  1.00  0.00    -0.206 A  
HETATM   21  C   UNL     1     -10.854   8.977  69.744  1.00  0.00    -0.215 A  
HETATM   22  C   UNL     1     -11.088   9.702  70.948  1.00  0.00    -0.422 A  
HETATM   23  C   UNL     1     -11.410   8.789  71.930  1.00  0.00    -0.361 A  
HETATM   24  N   UNL     1     -11.356   7.538  71.374  1.00  0.00    -0.253 NA 
HETATM   25  H   UNL     1     -11.550   6.666  71.867  1.00  0.00     0.000 HD 
HETATM   26  C   UNL     1     -11.002   7.635  70.055  1.00  0.00    -0.228 A  
HETATM   27  N   UNL     1     -10.842   6.590  69.229  1.00  0.00    -0.276 NA 
HETATM   28  C   UNL     1     -10.492   6.983  67.992  1.00  0.00    -0.208 A  
HETATM   29  N   UNL     1     -10.317   8.239  67.541  1.00  0.00    -0.248 NA 
ENDBRANCH  19  20
ENDBRANCH   8  15
ENDBRANCH   3   6
ENDBRANCH   2   3
TORSDOF 6
ENDMDL
MODEL       40
REMARK 921   NORMALIZED FREE ENERGY PREDICTED BY IDOCK:   -6.18 KCAL/MOL
REMARK 922        TOTAL FREE ENERGY PREDICTED BY IDOCK:   -8.86 KCAL/MOL
REMARK 923 INTER-LIGAND FREE ENERGY PREDICTED BY IDOCK:   -8.11 KCAL/MOL
REMARK 924 INTRA-LIGAND FREE ENERGY PREDICTED BY IDOCK:   -0.75 KCAL/MOL
REMARK 927      BINDING AFFINITY PREDICTED BY RF-SCORE:    0.00 PKD
ROOT
HETATM    1  C   UNL     1      -6.325  19.049  68.925  1.00  0.00    -0.282 C  
HETATM    2  C   UNL     1      -6.901  17.931  68.083  1.00  0.00    -0.209 C  
ENDROOT
BRANCH   2   3
HETATM    3  S   UNL     1      -8.450  18.401  67.331  1.00  0.00    -0.255 S  
HETATM    4  O   UNL     1      -8.928  19.608  67.963  1.00  0.00    -0.313 OA 
HETATM    5  O   UNL     1      -8.324  18.282  65.895  1.00  0.00    -0.506 OA 
BRANCH   3   6
HETATM    6  N   UNL     1      -9.416  17.128  67.870  1.00  0.00    -0.252 N  
HETATM    7  C   UNL     1      -9.065  16.159  68.949  1.00  0.00    -0.246 C  
HETATM    8  C   UNL     1     -10.587  15.873  69.178  1.00  0.00    -0.246 C  
HETATM    9  C   UNL     1     -10.790  17.235  68.438  1.00  0.00    -0.273 C  
BRANCH   8  10
HETATM   10  C   UNL     1     -11.059  15.719  70.617  1.00  0.00    -0.376 C  
BRANCH  10  11
HETATM   11  C   UNL     1     -12.536  15.367  70.691  1.00  0.00    -0.439 C  
HETATM   12  H1  UNL     1     -14.753  14.839  70.803  1.00  0.00     0.000 HD 
HETATM   13  N   UNL     1     -13.762  15.075  70.753  1.00  0.00    -0.676 NA 
HETATM   14  H2  UNL     1     -14.267  15.436  71.563  1.00  0.00     0.000 HD 
ENDBRANCH  10  11
ENDBRANCH   8  10
BRANCH   8  15
HETATM   15  N   UNL     1     -10.971  14.710  68.389  1.00  0.00    -0.244 NA 
HETATM   16  N   UNL     1     -12.131  14.708  67.694  1.00  0.00    -0.275 NA 
HETATM   17  C   UNL     1     -10.297  13.523  68.282  1.00  0.00    -0.252 A  
HETATM   18  C   UNL     1     -12.178  13.493  67.147  1.00  0.00    -0.281 A  
HETATM   19  C   UNL     1     -11.065  12.703  67.485  1.00  0.00    -0.313 A  
BRANCH  19  20
HETATM   20  C   UNL     1     -10.698  11.365  67.105  1.00  0.00    -0.249 A  
HETATM   21  C   UNL     1     -10.304  11.057  65.802  1.00  0.00    -0.316 A  
HETATM   22  C   UNL     1     -10.197  11.718  64.545  1.00  0.00    -0.327 A  
HETATM   23  C   UNL     1      -9.699  10.810  63.635  1.00  0.00    -0.327 A  
HETATM   24  N   UNL     1      -9.523   9.617  64.287  1.00  0.00    -0.416 NA 
HETATM   25  H   UNL     1      -9.163   8.762  63.862  1.00  0.00     0.000 HD 
HETATM   26  C   UNL     1      -9.903   9.747  65.596  1.00  0.00    -0.301 A  
HETATM   27  N   UNL     1      -9.872   8.758  66.501  1.00  0.00    -0.258 NA 
HETATM   28  C   UNL     1     -10.303   9.171  67.705  1.00  0.00    -0.255 A  
HETATM   29  N   UNL     1     -10.716  10.402  68.058  1.00  0.00    -0.228 NA 
ENDBRANCH  19  20
ENDBRANCH   8  15
ENDBRANCH   3   6
ENDBRANCH   2   3
TORSDOF 6
ENDMDL
MODEL       41
REMARK 921   NORMALIZED FREE ENERGY PREDICTED BY IDOCK:   -6.18 KCAL/MOL
REMARK 922        TOTAL FREE ENERGY PREDICTED BY IDOCK:   -8.85 KCAL/MOL
REMARK 923 INTER-LIGAND FREE ENERGY PREDICTED BY IDOCK:   -8.45 KCAL/MOL
REMARK 924 INTRA-LIGAND FREE ENERGY PREDICTED BY IDOCK:   -0.41 KCAL/MOL
REMARK 927      BINDING AFFINITY PREDICTED BY RF-SCORE:    0.00 PKD
ROOT
HETATM    1  C   UNL     1     -10.814  20.029  66.895  1.00  0.00    -0.241 C  
HETATM    2  C   UNL     1      -9.612  20.821  67.366  1.00  0.00    -0.344 C  
ENDROOT
BRANCH   2   3
HETATM    3  S   UNL     1      -8.081  19.990  66.981  1.00  0.00    -0.330 S  
HETATM    4  O   UNL     1      -7.931  19.927  65.545  1.00  0.00    -0.353 OA 
HETATM    5  O   UNL     1      -7.040  20.509  67.842  1.00  0.00    -0.301 OA 
BRANCH   3   6
HETATM    6  N   UNL     1      -8.467  18.438  67.518  1.00  0.00    -0.252 N  
HETATM    7  C   UNL     1      -8.441  17.194  66.695  1.00  0.00    -0.250 C  
HETATM    8  C   UNL     1      -8.276  16.344  67.998  1.00  0.00    -0.169 C  
HETATM    9  C   UNL     1      -7.809  17.694  68.631  1.00  0.00    -0.280 C  
BRANCH   8  10
HETATM   10  C   UNL     1      -7.316  15.164  67.944  1.00  0.00    -0.152 C  
BRANCH  10  11
HETATM   11  C   UNL     1      -6.846  14.755  69.331  1.00  0.00    -0.162 C  
HETATM   12  H1  UNL     1      -6.141  14.140  71.412  1.00  0.00     0.000 HD 
HETATM   13  N   UNL     1      -6.456  14.414  70.481  1.00  0.00    -0.358 NA 
HETATM   14  H2  UNL     1      -6.824  13.530  70.835  1.00  0.00     0.000 HD 
ENDBRANCH  10  11
ENDBRANCH   8  10
BRANCH   8  15
HETATM   15  N   UNL     1      -9.592  15.907  68.445  1.00  0.00    -0.204 NA 
HETATM   16  N   UNL     1     -10.688  16.156  67.694  1.00  0.00    -0.319 NA 
HETATM   17  C   UNL     1      -9.899  15.273  69.620  1.00  0.00    -0.216 A  
HETATM   18  C   UNL     1     -11.696  15.671  68.419  1.00  0.00    -0.290 A  
HETATM   19  C   UNL     1     -11.268  15.114  69.637  1.00  0.00    -0.288 A  
BRANCH  19  20
HETATM   20  C   UNL     1     -11.997  14.469  70.696  1.00  0.00    -0.319 A  
HETATM   21  C   UNL     1     -12.228  15.104  71.917  1.00  0.00    -0.431 A  
HETATM   22  C   UNL     1     -11.869  16.324  72.560  1.00  0.00    -0.608 A  
HETATM   23  C   UNL     1     -12.475  16.338  73.798  1.00  0.00    -0.551 A  
HETATM   24  N   UNL     1     -13.167  15.164  73.940  1.00  0.00    -0.516 NA 
HETATM   25  H   UNL     1     -13.715  14.900  74.759  1.00  0.00     0.000 HD 
HETATM   26  C   UNL     1     -13.011  14.399  72.816  1.00  0.00    -0.465 A  
HETATM   27  N   UNL     1     -13.546  13.181  72.642  1.00  0.00    -0.622 NA 
HETATM   28  C   UNL     1     -13.226  12.664  71.444  1.00  0.00    -0.127 A  
HETATM   29  N   UNL     1     -12.486  13.226  70.471  1.00  0.00    -0.296 NA 
ENDBRANCH  19  20
ENDBRANCH   8  15
ENDBRANCH   3   6
ENDBRANCH   2   3
TORSDOF 6
ENDMDL
MODEL       42
REMARK 921   NORMALIZED FREE ENERGY PREDICTED BY IDOCK:   -6.16 KCAL/MOL
REMARK 922        TOTAL FREE ENERGY PREDICTED BY IDOCK:   -8.83 KCAL/MOL
REMARK 923 INTER-LIGAND FREE ENERGY PREDICTED BY IDOCK:   -7.89 KCAL/MOL
REMARK 924 INTRA-LIGAND FREE ENERGY PREDICTED BY IDOCK:   -0.94 KCAL/MOL
REMARK 927      BINDING AFFINITY PREDICTED BY RF-SCORE:    0.00 PKD
ROOT
HETATM    1  C   UNL     1     -13.788   8.518  71.875  1.00  0.00    -0.473 C  
HETATM    2  C   UNL     1     -13.260   7.155  71.479  1.00  0.00    -0.360 C  
ENDROOT
BRANCH   2   3
HETATM    3  S   UNL     1     -11.522   6.988  71.850  1.00  0.00    -0.281 S  
HETATM    4  O   UNL     1     -11.107   8.110  72.658  1.00  0.00    -0.365 OA 
HETATM    5  O   UNL     1     -11.260   5.619  72.240  1.00  0.00    -0.266 OA 
BRANCH   3   6
HETATM    6  N   UNL     1     -10.888   7.212  70.303  1.00  0.00    -0.242 N  
HETATM    7  C   UNL     1      -9.500   6.879  69.869  1.00  0.00    -0.156 C  
HETATM    8  C   UNL     1      -9.995   6.783  68.387  1.00  0.00    -0.151 C  
HETATM    9  C   UNL     1     -11.407   6.622  69.036  1.00  0.00    -0.160 C  
BRANCH   8  10
HETATM   10  C   UNL     1      -9.425   5.659  67.533  1.00  0.00    -0.117 C  
BRANCH  10  11
HETATM   11  C   UNL     1     -10.403   5.215  66.458  1.00  0.00    -0.291 C  
HETATM   12  H1  UNL     1     -11.872   4.549  64.845  1.00  0.00     0.000 HD 
HETATM   13  N   UNL     1     -11.216   4.847  65.566  1.00  0.00    -0.932 NA 
HETATM   14  H2  UNL     1     -12.173   4.676  65.877  1.00  0.00     0.000 HD 
ENDBRANCH  10  11
ENDBRANCH   8  10
BRANCH   8  15
HETATM   15  N   UNL     1      -9.787   8.070  67.737  1.00  0.00    -0.157 NA 
HETATM   16  N   UNL     1      -8.539   8.572  67.598  1.00  0.00    -0.132 NA 
HETATM   17  C   UNL     1     -10.747   8.917  67.252  1.00  0.00    -0.149 A  
HETATM   18  C   UNL     1      -8.730   9.758  67.019  1.00  0.00    -0.135 A  
HETATM   19  C   UNL     1     -10.089  10.034  66.786  1.00  0.00    -0.286 A  
BRANCH  19  20
HETATM   20  C   UNL     1     -10.739  11.162  66.173  1.00  0.00    -0.225 A  
HETATM   21  C   UNL     1     -11.256  12.211  66.935  1.00  0.00    -0.375 A  
HETATM   22  C   UNL     1     -11.428  12.533  68.311  1.00  0.00    -0.355 A  
HETATM   23  C   UNL     1     -12.008  13.782  68.380  1.00  0.00    -0.360 A  
HETATM   24  N   UNL     1     -12.217  14.218  67.097  1.00  0.00    -0.589 NA 
HETATM   25  H   UNL     1     -12.632  15.114  66.841  1.00  0.00     0.000 HD 
HETATM   26  C   UNL     1     -11.783  13.268  66.212  1.00  0.00    -0.369 A  
HETATM   27  N   UNL     1     -11.862  13.377  64.877  1.00  0.00    -0.355 NA 
HETATM   28  C   UNL     1     -11.360  12.294  64.259  1.00  0.00    -0.352 A  
HETATM   29  N   UNL     1     -10.813  11.200  64.821  1.00  0.00    -0.256 NA 
ENDBRANCH  19  20
ENDBRANCH   8  15
ENDBRANCH   3   6
ENDBRANCH   2   3
TORSDOF 6
ENDMDL
MODEL       43
REMARK 921   NORMALIZED FREE ENERGY PREDICTED BY IDOCK:   -6.16 KCAL/MOL
REMARK 922        TOTAL FREE ENERGY PREDICTED BY IDOCK:   -8.82 KCAL/MOL
REMARK 923 INTER-LIGAND FREE ENERGY PREDICTED BY IDOCK:   -8.37 KCAL/MOL
REMARK 924 INTRA-LIGAND FREE ENERGY PREDICTED BY IDOCK:   -0.45 KCAL/MOL
REMARK 927      BINDING AFFINITY PREDICTED BY RF-SCORE:    0.00 PKD
ROOT
HETATM    1  C   UNL     1      -9.430   6.407  66.412  1.00  0.00    -0.169 C  
HETATM    2  C   UNL     1      -9.918   7.734  66.954  1.00  0.00    -0.261 C  
ENDROOT
BRANCH   2   3
HETATM    3  S   UNL     1      -9.023   8.219  68.420  1.00  0.00    -0.135 S  
HETATM    4  O   UNL     1      -9.117   7.159  69.396  1.00  0.00    -0.145 OA 
HETATM    5  O   UNL     1      -7.755   8.790  68.022  1.00  0.00    -0.099 OA 
BRANCH   3   6
HETATM    6  N   UNL     1     -10.013   9.480  68.943  1.00  0.00    -0.173 N  
HETATM    7  C   UNL     1     -11.505   9.491  68.915  1.00  0.00     0.324 C  
HETATM    8  C   UNL     1     -11.511  10.566  70.052  1.00  0.00    -0.316 C  
HETATM    9  C   UNL     1     -10.052  10.069  70.312  1.00  0.00    -0.168 C  
BRANCH   8  10
HETATM   10  C   UNL     1     -12.563  10.421  71.144  1.00  0.00    -0.512 C  
BRANCH  10  11
HETATM   11  C   UNL     1     -12.357   9.156  71.961  1.00  0.00    -0.377 C  
HETATM   12  H1  UNL     1     -12.048   7.257  73.187  1.00  0.00     0.000 HD 
HETATM   13  N   UNL     1     -12.186   8.106  72.639  1.00  0.00    -0.599 NA 
HETATM   14  H2  UNL     1     -11.519   7.433  72.260  1.00  0.00     0.000 HD 
ENDBRANCH  10  11
ENDBRANCH   8  10
BRANCH   8  15
HETATM   15  N   UNL     1     -11.585  11.890  69.449  1.00  0.00    -0.302 NA 
HETATM   16  N   UNL     1     -12.024  12.947  70.169  1.00  0.00    -0.337 NA 
HETATM   17  C   UNL     1     -11.294  12.227  68.154  1.00  0.00    -0.295 A  
HETATM   18  C   UNL     1     -12.007  13.959  69.302  1.00  0.00    -0.357 A  
HETATM   19  C   UNL     1     -11.569  13.570  68.024  1.00  0.00    -0.372 A  
BRANCH  19  20
HETATM   20  C   UNL     1     -11.375  14.326  66.814  1.00  0.00    -0.348 A  
HETATM   21  C   UNL     1     -11.865  13.877  65.587  1.00  0.00    -0.383 A  
HETATM   22  C   UNL     1     -12.526  12.727  65.068  1.00  0.00    -0.572 A  
HETATM   23  C   UNL     1     -12.753  12.945  63.725  1.00  0.00    -0.120 A  
HETATM   24  N   UNL     1     -12.234  14.173  63.406  1.00  0.00    -1.099 NA 
HETATM   25  H   UNL     1     -12.260  14.599  62.480  1.00  0.00     0.000 HD 
HETATM   26  C   UNL     1     -11.677  14.741  64.520  1.00  0.00    -0.391 A  
HETATM   27  N   UNL     1     -11.066  15.935  64.543  1.00  0.00    -0.528 NA 
HETATM   28  C   UNL     1     -10.613  16.238  65.772  1.00  0.00    -0.324 A  
HETATM   29  N   UNL     1     -10.724  15.510  66.898  1.00  0.00    -0.316 NA 
ENDBRANCH  19  20
ENDBRANCH   8  15
ENDBRANCH   3   6
ENDBRANCH   2   3
TORSDOF 6
ENDMDL
MODEL       44
REMARK 921   NORMALIZED FREE ENERGY PREDICTED BY IDOCK:   -6.14 KCAL/MOL
REMARK 922        TOTAL FREE ENERGY PREDICTED BY IDOCK:   -8.80 KCAL/MOL
REMARK 923 INTER-LIGAND FREE ENERGY PREDICTED BY IDOCK:   -8.15 KCAL/MOL
REMARK 924 INTRA-LIGAND FREE ENERGY PREDICTED BY IDOCK:   -0.65 KCAL/MOL
REMARK 927      BINDING AFFINITY PREDICTED BY RF-SCORE:    0.00 PKD
ROOT
HETATM    1  C   UNL     1      -9.864  18.672  68.068  1.00  0.00    -0.378 C  
HETATM    2  C   UNL     1     -10.295  17.259  67.734  1.00  0.00    -0.356 C  
ENDROOT
BRANCH   2   3
HETATM    3  S   UNL     1      -9.868  16.816  66.059  1.00  0.00    -0.254 S  
HETATM    4  O   UNL     1     -10.839  17.396  65.161  1.00  0.00    -0.642 OA 
HETATM    5  O   UNL     1      -8.445  17.001  65.878  1.00  0.00    -0.519 OA 
BRANCH   3   6
HETATM    6  N   UNL     1     -10.167  15.158  66.128  1.00  0.00    -0.278 N  
HETATM    7  C   UNL     1     -11.258  14.496  66.900  1.00  0.00    -0.336 C  
HETATM    8  C   UNL     1     -11.179  13.262  65.941  1.00  0.00    -0.290 C  
HETATM    9  C   UNL     1     -10.463  14.260  64.975  1.00  0.00    -0.435 C  
BRANCH   8  10
HETATM   10  C   UNL     1     -12.494  12.619  65.522  1.00  0.00    -0.345 C  
BRANCH  10  11
HETATM   11  C   UNL     1     -12.417  12.041  64.118  1.00  0.00    -0.333 C  
HETATM   12  H1  UNL     1     -12.301  11.173  62.011  1.00  0.00     0.000 HD 
HETATM   13  N   UNL     1     -12.352  11.561  62.953  1.00  0.00    -0.871 NA 
HETATM   14  H2  UNL     1     -11.415  11.364  62.602  1.00  0.00     0.000 HD 
ENDBRANCH  10  11
ENDBRANCH   8  10
BRANCH   8  15
HETATM   15  N   UNL     1     -10.291  12.266  66.526  1.00  0.00    -0.224 NA 
HETATM   16  N   UNL     1      -9.529  11.479  65.734  1.00  0.00    -0.232 NA 
HETATM   17  C   UNL     1     -10.143  11.967  67.855  1.00  0.00    -0.195 A  
HETATM   18  C   UNL     1      -8.898  10.673  66.588  1.00  0.00    -0.141 A  
HETATM   19  C   UNL     1      -9.247  10.924  67.927  1.00  0.00    -0.152 A  
BRANCH  19  20
HETATM   20  C   UNL     1      -8.799  10.322  69.155  1.00  0.00    -0.176 A  
HETATM   21  C   UNL     1      -9.699   9.776  70.072  1.00  0.00    -0.292 A  
HETATM   22  C   UNL     1     -11.110   9.668  70.233  1.00  0.00    -0.327 A  
HETATM   23  C   UNL     1     -11.345   8.959  71.392  1.00  0.00    -0.309 A  
HETATM   24  N   UNL     1     -10.132   8.654  71.951  1.00  0.00    -0.300 NA 
HETATM   25  H   UNL     1      -9.998   8.131  72.816  1.00  0.00     0.000 HD 
HETATM   26  C   UNL     1      -9.126   9.159  71.172  1.00  0.00    -0.205 A  
HETATM   27  N   UNL     1      -7.818   9.051  71.450  1.00  0.00    -0.310 NA 
HETATM   28  C   UNL     1      -7.059   9.641  70.511  1.00  0.00    -0.132 A  
HETATM   29  N   UNL     1      -7.467  10.269  69.393  1.00  0.00    -0.113 NA 
ENDBRANCH  19  20
ENDBRANCH   8  15
ENDBRANCH   3   6
ENDBRANCH   2   3
TORSDOF 6
ENDMDL
MODEL       45
REMARK 921   NORMALIZED FREE ENERGY PREDICTED BY IDOCK:   -6.13 KCAL/MOL
REMARK 922        TOTAL FREE ENERGY PREDICTED BY IDOCK:   -8.79 KCAL/MOL
REMARK 923 INTER-LIGAND FREE ENERGY PREDICTED BY IDOCK:   -8.07 KCAL/MOL
REMARK 924 INTRA-LIGAND FREE ENERGY PREDICTED BY IDOCK:   -0.72 KCAL/MOL
REMARK 927      BINDING AFFINITY PREDICTED BY RF-SCORE:    0.00 PKD
ROOT
HETATM    1  C   UNL     1     -14.015   8.306  71.812  1.00  0.00    -0.476 C  
HETATM    2  C   UNL     1     -13.321   7.030  71.381  1.00  0.00    -0.255 C  
ENDROOT
BRANCH   2   3
HETATM    3  S   UNL     1     -11.579   7.063  71.769  1.00  0.00    -0.296 S  
HETATM    4  O   UNL     1     -11.305   8.218  72.592  1.00  0.00    -0.390 OA 
HETATM    5  O   UNL     1     -11.162   5.731  72.147  1.00  0.00    -0.268 OA 
BRANCH   3   6
HETATM    6  N   UNL     1     -10.961   7.378  70.231  1.00  0.00    -0.253 N  
HETATM    7  C   UNL     1      -9.549   7.173  69.796  1.00  0.00    -0.155 C  
HETATM    8  C   UNL     1     -10.028   7.072  68.310  1.00  0.00    -0.153 C  
HETATM    9  C   UNL     1     -11.424   6.776  68.948  1.00  0.00     0.052 C  
BRANCH   8  10
HETATM   10  C   UNL     1      -9.363   6.021  67.432  1.00  0.00    -0.111 C  
BRANCH  10  11
HETATM   11  C   UNL     1     -10.340   5.415  66.437  1.00  0.00    -0.247 C  
HETATM   12  H1  UNL     1     -11.806   4.507  64.944  1.00  0.00     0.000 HD 
HETATM   13  N   UNL     1     -11.151   4.913  65.612  1.00  0.00    -0.903 NA 
HETATM   14  H2  UNL     1     -12.050   5.388  65.524  1.00  0.00     0.000 HD 
ENDBRANCH  10  11
ENDBRANCH   8  10
BRANCH   8  15
HETATM   15  N   UNL     1      -9.928   8.387  67.691  1.00  0.00    -0.177 NA 
HETATM   16  N   UNL     1      -8.783   8.772  67.084  1.00  0.00    -0.120 NA 
HETATM   17  C   UNL     1     -10.882   9.369  67.676  1.00  0.00    -0.154 A  
HETATM   18  C   UNL     1      -9.031  10.021  66.687  1.00  0.00    -0.139 A  
HETATM   19  C   UNL     1     -10.323  10.453  67.035  1.00  0.00    -0.295 A  
BRANCH  19  20
HETATM   20  C   UNL     1     -11.008  11.694  66.789  1.00  0.00    -0.290 A  
HETATM   21  C   UNL     1     -11.385  12.078  65.501  1.00  0.00    -0.381 A  
HETATM   22  C   UNL     1     -11.229  11.603  64.168  1.00  0.00    -0.421 A  
HETATM   23  C   UNL     1     -11.891  12.476  63.332  1.00  0.00    -0.503 A  
HETATM   24  N   UNL     1     -12.422  13.475  64.106  1.00  0.00    -0.665 NA 
HETATM   25  H   UNL     1     -12.969  14.262  63.756  1.00  0.00     0.000 HD 
HETATM   26  C   UNL     1     -12.107  13.257  65.419  1.00  0.00    -0.422 A  
HETATM   27  N   UNL     1     -12.460  14.062  66.432  1.00  0.00    -0.429 NA 
HETATM   28  C   UNL     1     -12.013  13.602  67.613  1.00  0.00    -0.351 A  
HETATM   29  N   UNL     1     -11.310  12.479  67.851  1.00  0.00    -0.270 NA 
ENDBRANCH  19  20
ENDBRANCH   8  15
ENDBRANCH   3   6
ENDBRANCH   2   3
TORSDOF 6
ENDMDL
MODEL       46
REMARK 921   NORMALIZED FREE ENERGY PREDICTED BY IDOCK:   -6.10 KCAL/MOL
REMARK 922        TOTAL FREE ENERGY PREDICTED BY IDOCK:   -8.75 KCAL/MOL
REMARK 923 INTER-LIGAND FREE ENERGY PREDICTED BY IDOCK:   -8.02 KCAL/MOL
REMARK 924 INTRA-LIGAND FREE ENERGY PREDICTED BY IDOCK:   -0.73 KCAL/MOL
REMARK 927      BINDING AFFINITY PREDICTED BY RF-SCORE:    0.00 PKD
ROOT
HETATM    1  C   UNL     1     -10.418  15.227  64.969  1.00  0.00    -0.411 C  
HETATM    2  C   UNL     1     -10.943  13.932  64.387  1.00  0.00    -0.308 C  
ENDROOT
BRANCH   2   3
HETATM    3  S   UNL     1     -12.112  13.142  65.481  1.00  0.00    -0.467 S  
HETATM    4  O   UNL     1     -12.384  14.026  66.590  1.00  0.00    -0.451 OA 
HETATM    5  O   UNL     1     -13.168  12.555  64.687  1.00  0.00    -0.848 OA 
BRANCH   3   6
HETATM    6  N   UNL     1     -11.144  11.887  66.058  1.00  0.00    -0.314 N  
HETATM    7  C   UNL     1     -10.392  10.906  65.222  1.00  0.00    -0.268 C  
HETATM    8  C   UNL     1      -9.412  10.651  66.415  1.00  0.00    -0.171 C  
HETATM    9  C   UNL     1      -9.950  12.020  66.942  1.00  0.00    -0.202 C  
BRANCH   8  10
HETATM   10  C   UNL     1      -7.934  10.499  66.083  1.00  0.00    -0.147 C  
BRANCH  10  11
HETATM   11  C   UNL     1      -7.693  10.463  64.583  1.00  0.00    -0.063 C  
HETATM   12  H1  UNL     1      -7.332  10.408  62.331  1.00  0.00     0.000 HD 
HETATM   13  N   UNL     1      -7.493  10.433  63.338  1.00  0.00    -0.295 NA 
HETATM   14  H2  UNL     1      -7.068  11.268  62.933  1.00  0.00     0.000 HD 
ENDBRANCH  10  11
ENDBRANCH   8  10
BRANCH   8  15
HETATM   15  N   UNL     1      -9.883   9.500  67.174  1.00  0.00    -0.174 NA 
HETATM   16  N   UNL     1     -10.219   8.354  66.541  1.00  0.00    -0.271 NA 
HETATM   17  C   UNL     1     -10.086   9.427  68.527  1.00  0.00    -0.187 A  
HETATM   18  C   UNL     1     -10.643   7.554  67.521  1.00  0.00    -0.261 A  
HETATM   19  C   UNL     1     -10.592   8.172  68.783  1.00  0.00    -0.149 A  
BRANCH  19  20
HETATM   20  C   UNL     1     -10.923   7.682  70.095  1.00  0.00    -0.246 A  
HETATM   21  C   UNL     1     -11.771   8.391  70.947  1.00  0.00    -0.269 A  
HETATM   22  C   UNL     1     -12.452   9.642  70.961  1.00  0.00    -0.382 A  
HETATM   23  C   UNL     1     -13.166   9.717  72.138  1.00  0.00    -0.436 A  
HETATM   24  N   UNL     1     -12.925   8.569  72.848  1.00  0.00    -0.694 NA 
HETATM   25  H   UNL     1     -13.324   8.348  73.760  1.00  0.00     0.000 HD 
HETATM   26  C   UNL     1     -12.068   7.766  72.147  1.00  0.00    -0.304 A  
HETATM   27  N   UNL     1     -11.616   6.577  72.573  1.00  0.00    -0.244 NA 
HETATM   28  C   UNL     1     -10.787   6.010  71.680  1.00  0.00    -0.260 A  
HETATM   29  N   UNL     1     -10.412   6.488  70.480  1.00  0.00    -0.201 NA 
ENDBRANCH  19  20
ENDBRANCH   8  15
ENDBRANCH   3   6
ENDBRANCH   2   3
TORSDOF 6
ENDMDL
MODEL       47
REMARK 921   NORMALIZED FREE ENERGY PREDICTED BY IDOCK:   -6.08 KCAL/MOL
REMARK 922        TOTAL FREE ENERGY PREDICTED BY IDOCK:   -8.72 KCAL/MOL
REMARK 923 INTER-LIGAND FREE ENERGY PREDICTED BY IDOCK:   -7.92 KCAL/MOL
REMARK 924 INTRA-LIGAND FREE ENERGY PREDICTED BY IDOCK:   -0.81 KCAL/MOL
REMARK 927      BINDING AFFINITY PREDICTED BY RF-SCORE:    0.00 PKD
ROOT
HETATM    1  C   UNL     1      -8.004  16.572  67.608  1.00  0.00    -0.178 C  
HETATM    2  C   UNL     1      -8.507  16.082  66.267  1.00  0.00    -0.302 C  
ENDROOT
BRANCH   2   3
HETATM    3  S   UNL     1     -10.240  15.659  66.326  1.00  0.00    -0.318 S  
HETATM    4  O   UNL     1     -10.838  16.299  67.475  1.00  0.00    -0.321 OA 
HETATM    5  O   UNL     1     -10.796  15.788  64.997  1.00  0.00    -0.419 OA 
BRANCH   3   6
HETATM    6  N   UNL     1     -10.110  14.013  66.672  1.00  0.00    -0.270 N  
HETATM    7  C   UNL     1     -11.039  12.944  66.205  1.00  0.00    -0.286 C  
HETATM    8  C   UNL     1      -9.903  11.884  66.392  1.00  0.00    -0.213 C  
HETATM    9  C   UNL     1      -8.956  13.127  66.348  1.00  0.00     0.020 C  
BRANCH   8  10
HETATM   10  C   UNL     1      -9.776  10.802  65.328  1.00  0.00    -0.308 C  
BRANCH  10  11
HETATM   11  C   UNL     1     -10.650  11.094  64.119  1.00  0.00    -0.368 C  
HETATM   12  H1  UNL     1     -11.961  11.533  62.305  1.00  0.00     0.000 HD 
HETATM   13  N   UNL     1     -11.375  11.337  63.116  1.00  0.00    -0.836 NA 
HETATM   14  H2  UNL     1     -11.586  12.321  62.944  1.00  0.00     0.000 HD 
ENDBRANCH  10  11
ENDBRANCH   8  10
BRANCH   8  15
HETATM   15  N   UNL     1     -10.030  11.285  67.713  1.00  0.00    -0.174 NA 
HETATM   16  N   UNL     1      -8.931  10.889  68.394  1.00  0.00    -0.147 NA 
HETATM   17  C   UNL     1     -11.189  11.009  68.389  1.00  0.00    -0.274 A  
HETATM   18  C   UNL     1      -9.419  10.354  69.514  1.00  0.00    -0.139 A  
HETATM   19  C   UNL     1     -10.823  10.391  69.565  1.00  0.00    -0.295 A  
BRANCH  19  20
HETATM   20  C   UNL     1     -11.750   9.956  70.576  1.00  0.00    -0.295 A  
HETATM   21  C   UNL     1     -11.837   8.617  70.960  1.00  0.00    -0.303 A  
HETATM   22  C   UNL     1     -11.275   7.367  70.573  1.00  0.00    -0.296 A  
HETATM   23  C   UNL     1     -11.790   6.399  71.409  1.00  0.00    -0.281 A  
HETATM   24  N   UNL     1     -12.662   7.012  72.272  1.00  0.00    -0.527 NA 
HETATM   25  H   UNL     1     -13.190   6.541  73.006  1.00  0.00     0.000 HD 
HETATM   26  C   UNL     1     -12.714   8.352  71.999  1.00  0.00    -0.360 A  
HETATM   27  N   UNL     1     -13.488   9.233  72.650  1.00  0.00    -0.398 NA 
HETATM   28  C   UNL     1     -13.336  10.479  72.169  1.00  0.00    -0.241 A  
HETATM   29  N   UNL     1     -12.526  10.890  71.176  1.00  0.00    -0.390 NA 
ENDBRANCH  19  20
ENDBRANCH   8  15
ENDBRANCH   3   6
ENDBRANCH   2   3
TORSDOF 6
ENDMDL
MODEL       48
REMARK 921   NORMALIZED FREE ENERGY PREDICTED BY IDOCK:   -6.00 KCAL/MOL
REMARK 922        TOTAL FREE ENERGY PREDICTED BY IDOCK:   -8.62 KCAL/MOL
REMARK 923 INTER-LIGAND FREE ENERGY PREDICTED BY IDOCK:   -8.05 KCAL/MOL
REMARK 924 INTRA-LIGAND FREE ENERGY PREDICTED BY IDOCK:   -0.57 KCAL/MOL
REMARK 927      BINDING AFFINITY PREDICTED BY RF-SCORE:    0.00 PKD
ROOT
HETATM    1  C   UNL     1      -9.671   7.995  66.657  1.00  0.00    -0.313 C  
HETATM    2  C   UNL     1      -8.755   6.890  67.141  1.00  0.00    -0.120 C  
ENDROOT
BRANCH   2   3
HETATM    3  S   UNL     1      -9.614   5.732  68.192  1.00  0.00    -0.121 S  
HETATM    4  O   UNL     1     -10.717   5.161  67.454  1.00  0.00    -0.119 OA 
HETATM    5  O   UNL     1      -8.638   4.913  68.876  1.00  0.00    -0.085 OA 
BRANCH   3   6
HETATM    6  N   UNL     1     -10.261   6.809  69.317  1.00  0.00    -0.174 N  
HETATM    7  C   UNL     1     -11.472   6.577  70.157  1.00  0.00    -0.415 C  
HETATM    8  C   UNL     1     -10.948   7.626  71.193  1.00  0.00    -0.246 C  
HETATM    9  C   UNL     1      -9.565   7.371  70.511  1.00  0.00    -0.172 C  
BRANCH   8  10
HETATM   10  C   UNL     1     -11.132   7.300  72.669  1.00  0.00    -0.355 C  
BRANCH  10  11
HETATM   11  C   UNL     1      -9.921   7.710  73.492  1.00  0.00    -0.295 C  
HETATM   12  H1  UNL     1      -8.106   8.326  74.728  1.00  0.00     0.000 HD 
HETATM   13  N   UNL     1      -8.918   8.051  74.176  1.00  0.00    -0.377 NA 
HETATM   14  H2  UNL     1      -9.058   8.831  74.819  1.00  0.00     0.000 HD 
ENDBRANCH  10  11
ENDBRANCH   8  10
BRANCH   8  15
HETATM   15  N   UNL     1     -11.528   8.925  70.883  1.00  0.00    -0.282 NA 
HETATM   16  N   UNL     1     -12.540   9.419  71.633  1.00  0.00    -0.349 NA 
HETATM   17  C   UNL     1     -11.199   9.753  69.843  1.00  0.00    -0.229 A  
HETATM   18  C   UNL     1     -12.846  10.575  71.043  1.00  0.00    -0.407 A  
HETATM   19  C   UNL     1     -12.049  10.834  69.914  1.00  0.00    -0.410 A  
BRANCH  19  20
HETATM   20  C   UNL     1     -12.018  11.952  69.008  1.00  0.00    -0.262 A  
HETATM   21  C   UNL     1     -12.053  13.268  69.472  1.00  0.00    -0.315 A  
HETATM   22  C   UNL     1     -12.193  13.949  70.715  1.00  0.00    -0.441 A  
HETATM   23  C   UNL     1     -12.115  15.302  70.462  1.00  0.00    -0.354 A  
HETATM   24  N   UNL     1     -11.957  15.468  69.111  1.00  0.00    -0.509 NA 
HETATM   25  H   UNL     1     -11.868  16.366  68.635  1.00  0.00     0.000 HD 
HETATM   26  C   UNL     1     -11.936  14.245  68.496  1.00  0.00    -0.317 A  
HETATM   27  N   UNL     1     -11.814  14.058  67.174  1.00  0.00    -0.391 NA 
HETATM   28  C   UNL     1     -11.826  12.753  66.852  1.00  0.00    -0.371 A  
HETATM   29  N   UNL     1     -11.925  11.698  67.681  1.00  0.00    -0.625 NA 
ENDBRANCH  19  20
ENDBRANCH   8  15
ENDBRANCH   3   6
ENDBRANCH   2   3
TORSDOF 6
ENDMDL
MODEL       49
REMARK 921   NORMALIZED FREE ENERGY PREDICTED BY IDOCK:   -5.96 KCAL/MOL
REMARK 922        TOTAL FREE ENERGY PREDICTED BY IDOCK:   -8.56 KCAL/MOL
REMARK 923 INTER-LIGAND FREE ENERGY PREDICTED BY IDOCK:   -8.19 KCAL/MOL
REMARK 924 INTRA-LIGAND FREE ENERGY PREDICTED BY IDOCK:   -0.38 KCAL/MOL
REMARK 927      BINDING AFFINITY PREDICTED BY RF-SCORE:    0.00 PKD
ROOT
HETATM    1  C   UNL     1     -11.186  15.520  64.261  1.00  0.00    -0.095 C  
HETATM    2  C   UNL     1     -12.226  14.555  63.733  1.00  0.00     0.081 C  
ENDROOT
BRANCH   2   3
HETATM    3  S   UNL     1     -12.074  12.944  64.486  1.00  0.00    -0.438 S  
HETATM    4  O   UNL     1     -13.396  12.415  64.730  1.00  0.00    -0.718 OA 
HETATM    5  O   UNL     1     -11.063  12.192  63.776  1.00  0.00    -0.360 OA 
BRANCH   3   6
HETATM    6  N   UNL     1     -11.427  13.397  65.977  1.00  0.00    -0.318 N  
HETATM    7  C   UNL     1     -12.143  14.142  67.052  1.00  0.00    -0.414 C  
HETATM    8  C   UNL     1     -11.146  13.560  68.110  1.00  0.00    -0.257 C  
HETATM    9  C   UNL     1     -10.858  12.486  67.011  1.00  0.00    -0.254 C  
BRANCH   8  10
HETATM   10  C   UNL     1     -11.725  13.131  69.451  1.00  0.00    -0.386 C  
BRANCH  10  11
HETATM   11  C   UNL     1     -12.381  14.292  70.181  1.00  0.00    -0.353 C  
HETATM   12  H1  UNL     1     -13.365  16.034  71.276  1.00  0.00     0.000 HD 
HETATM   13  N   UNL     1     -12.924  15.255  70.786  1.00  0.00    -0.537 NA 
HETATM   14  H2  UNL     1     -12.289  15.942  71.194  1.00  0.00     0.000 HD 
ENDBRANCH  10  11
ENDBRANCH   8  10
BRANCH   8  15
HETATM   15  N   UNL     1     -10.060  14.510  68.306  1.00  0.00    -0.226 NA 
HETATM   16  N   UNL     1      -8.898  14.113  68.872  1.00  0.00    -0.051 NA 
HETATM   17  C   UNL     1     -10.068  15.849  68.017  1.00  0.00    -0.230 A  
HETATM   18  C   UNL     1      -8.172  15.230  68.938  1.00  0.00    -0.186 A  
HETATM   19  C   UNL     1      -8.852  16.350  68.428  1.00  0.00    -0.214 A  
BRANCH  19  20
HETATM   20  C   UNL     1      -8.448  17.723  68.283  1.00  0.00    -0.277 A  
HETATM   21  C   UNL     1      -9.196  18.629  67.529  1.00  0.00    -0.295 A  
HETATM   22  C   UNL     1     -10.349  18.611  66.693  1.00  0.00    -0.456 A  
HETATM   23  C   UNL     1     -10.574  19.901  66.261  1.00  0.00    -0.425 A  
HETATM   24  N   UNL     1      -9.587  20.695  66.785  1.00  0.00    -0.665 NA 
HETATM   25  H   UNL     1      -9.501  21.701  66.635  1.00  0.00     0.000 HD 
HETATM   26  C   UNL     1      -8.736  19.935  67.539  1.00  0.00    -0.338 A  
HETATM   27  N   UNL     1      -7.652  20.406  68.175  1.00  0.00    -0.156 NA 
HETATM   28  C   UNL     1      -7.002  19.434  68.837  1.00  0.00    -0.349 A  
HETATM   29  N   UNL     1      -7.328  18.131  68.925  1.00  0.00    -0.268 NA 
ENDBRANCH  19  20
ENDBRANCH   8  15
ENDBRANCH   3   6
ENDBRANCH   2   3
TORSDOF 6
ENDMDL
MODEL       50
REMARK 921   NORMALIZED FREE ENERGY PREDICTED BY IDOCK:   -5.96 KCAL/MOL
REMARK 922        TOTAL FREE ENERGY PREDICTED BY IDOCK:   -8.56 KCAL/MOL
REMARK 923 INTER-LIGAND FREE ENERGY PREDICTED BY IDOCK:   -8.13 KCAL/MOL
REMARK 924 INTRA-LIGAND FREE ENERGY PREDICTED BY IDOCK:   -0.43 KCAL/MOL
REMARK 927      BINDING AFFINITY PREDICTED BY RF-SCORE:    0.00 PKD
ROOT
HETATM    1  C   UNL     1      -7.495  16.008  67.278  1.00  0.00    -0.236 C  
HETATM    2  C   UNL     1      -8.339  16.391  66.081  1.00  0.00    -0.256 C  
ENDROOT
BRANCH   2   3
HETATM    3  S   UNL     1     -10.043  16.667  66.536  1.00  0.00    -0.317 S  
HETATM    4  O   UNL     1     -10.095  17.089  67.916  1.00  0.00    -0.282 OA 
HETATM    5  O   UNL     1     -10.692  17.411  65.478  1.00  0.00    -0.530 OA 
BRANCH   3   6
HETATM    6  N   UNL     1     -10.606  15.079  66.468  1.00  0.00    -0.298 N  
HETATM    7  C   UNL     1     -12.026  14.661  66.278  1.00  0.00    -0.251 C  
HETATM    8  C   UNL     1     -11.538  13.279  65.729  1.00  0.00    -0.337 C  
HETATM    9  C   UNL     1     -10.186  14.028  65.497  1.00  0.00    -0.343 C  
BRANCH   8  10
HETATM   10  C   UNL     1     -12.290  12.696  64.540  1.00  0.00    -0.537 C  
BRANCH  10  11
HETATM   11  C   UNL     1     -11.361  11.954  63.593  1.00  0.00    -0.450 C  
HETATM   12  H1  UNL     1      -9.966  10.842  62.171  1.00  0.00     0.000 HD 
HETATM   13  N   UNL     1     -10.590  11.340  62.806  1.00  0.00    -0.702 NA 
HETATM   14  H2  UNL     1     -10.461  11.761  61.886  1.00  0.00     0.000 HD 
ENDBRANCH  10  11
ENDBRANCH   8  10
BRANCH   8  15
HETATM   15  N   UNL     1     -11.503  12.322  66.826  1.00  0.00    -0.345 NA 
HETATM   16  N   UNL     1     -12.181  12.566  67.969  1.00  0.00    -0.242 NA 
HETATM   17  C   UNL     1     -10.796  11.150  66.880  1.00  0.00    -0.279 A  
HETATM   18  C   UNL     1     -11.886  11.526  68.750  1.00  0.00    -0.330 A  
HETATM   19  C   UNL     1     -11.017  10.612  68.129  1.00  0.00    -0.321 A  
BRANCH  19  20
HETATM   20  C   UNL     1     -10.469   9.362  68.583  1.00  0.00    -0.209 A  
HETATM   21  C   UNL     1     -10.563   8.965  69.918  1.00  0.00    -0.229 A  
HETATM   22  C   UNL     1     -11.033   9.502  71.151  1.00  0.00    -0.438 A  
HETATM   23  C   UNL     1     -10.844   8.544  72.124  1.00  0.00    -0.357 A  
HETATM   24  N   UNL     1     -10.255   7.456  71.533  1.00  0.00    -0.193 NA 
HETATM   25  H   UNL     1     -10.001   6.593  72.012  1.00  0.00     0.000 HD 
HETATM   26  C   UNL     1     -10.063   7.705  70.201  1.00  0.00    -0.199 A  
HETATM   27  N   UNL     1      -9.490   6.849  69.340  1.00  0.00    -0.149 NA 
HETATM   28  C   UNL     1      -9.431   7.358  68.098  1.00  0.00    -0.138 A  
HETATM   29  N   UNL     1      -9.876   8.554  67.672  1.00  0.00    -0.163 NA 
ENDBRANCH  19  20
ENDBRANCH   8  15
ENDBRANCH   3   6
ENDBRANCH   2   3
TORSDOF 6
ENDMDL
MODEL       51
REMARK 921   NORMALIZED FREE ENERGY PREDICTED BY IDOCK:   -5.94 KCAL/MOL
REMARK 922        TOTAL FREE ENERGY PREDICTED BY IDOCK:   -8.54 KCAL/MOL
REMARK 923 INTER-LIGAND FREE ENERGY PREDICTED BY IDOCK:   -8.04 KCAL/MOL
REMARK 924 INTRA-LIGAND FREE ENERGY PREDICTED BY IDOCK:   -0.49 KCAL/MOL
REMARK 927      BINDING AFFINITY PREDICTED BY RF-SCORE:    0.00 PKD
ROOT
HETATM    1  C   UNL     1     -10.898  15.858  69.783  1.00  0.00    -0.328 C  
HETATM    2  C   UNL     1     -11.206  16.498  68.446  1.00  0.00    -0.280 C  
ENDROOT
BRANCH   2   3
HETATM    3  S   UNL     1     -10.039  16.001  67.191  1.00  0.00    -0.276 S  
HETATM    4  O   UNL     1     -10.357  16.685  65.959  1.00  0.00    -0.330 OA 
HETATM    5  O   UNL     1      -8.709  16.018  67.760  1.00  0.00    -0.166 OA 
BRANCH   3   6
HETATM    6  N   UNL     1     -10.499  14.388  67.010  1.00  0.00    -0.267 N  
HETATM    7  C   UNL     1     -11.833  13.905  66.549  1.00  0.00    -0.414 C  
HETATM    8  C   UNL     1     -11.181  12.556  66.098  1.00  0.00    -0.321 C  
HETATM    9  C   UNL     1      -9.849  13.372  66.134  1.00  0.00    -0.281 C  
BRANCH   8  10
HETATM   10  C   UNL     1     -11.661  11.953  64.785  1.00  0.00    -0.282 C  
BRANCH  10  11
HETATM   11  C   UNL     1     -12.129  13.023  63.811  1.00  0.00    -0.502 C  
HETATM   12  H1  UNL     1     -12.830  14.628  62.350  1.00  0.00     0.000 HD 
HETATM   13  N   UNL     1     -12.516  13.911  63.003  1.00  0.00    -1.009 NA 
HETATM   14  H2  UNL     1     -12.114  14.840  63.133  1.00  0.00     0.000 HD 
ENDBRANCH  10  11
ENDBRANCH   8  10
BRANCH   8  15
HETATM   15  N   UNL     1     -11.310  11.587  67.178  1.00  0.00    -0.414 NA 
HETATM   16  N   UNL     1     -12.120  11.839  68.231  1.00  0.00    -0.506 NA 
HETATM   17  C   UNL     1     -10.647  10.395  67.304  1.00  0.00    -0.267 A  
HETATM   18  C   UNL     1     -11.953  10.783  69.029  1.00  0.00    -0.186 A  
HETATM   19  C   UNL     1     -11.038   9.851  68.508  1.00  0.00    -0.181 A  
BRANCH  19  20
HETATM   20  C   UNL     1     -10.585   8.581  69.011  1.00  0.00    -0.154 A  
HETATM   21  C   UNL     1     -10.682   8.255  70.364  1.00  0.00    -0.239 A  
HETATM   22  C   UNL     1     -11.078   8.884  71.579  1.00  0.00    -0.397 A  
HETATM   23  C   UNL     1     -10.947   7.959  72.592  1.00  0.00    -0.378 A  
HETATM   24  N   UNL     1     -10.464   6.800  72.042  1.00  0.00    -0.201 NA 
HETATM   25  H   UNL     1     -10.271   5.941  72.557  1.00  0.00     0.000 HD 
HETATM   26  C   UNL     1     -10.282   6.971  70.697  1.00  0.00    -0.191 A  
HETATM   27  N   UNL     1      -9.802   6.032  69.867  1.00  0.00    -0.165 NA 
HETATM   28  C   UNL     1      -9.728   6.477  68.601  1.00  0.00    -0.127 A  
HETATM   29  N   UNL     1     -10.083   7.686  68.127  1.00  0.00    -0.179 NA 
ENDBRANCH  19  20
ENDBRANCH   8  15
ENDBRANCH   3   6
ENDBRANCH   2   3
TORSDOF 6
ENDMDL
MODEL       52
REMARK 921   NORMALIZED FREE ENERGY PREDICTED BY IDOCK:   -5.94 KCAL/MOL
REMARK 922        TOTAL FREE ENERGY PREDICTED BY IDOCK:   -8.53 KCAL/MOL
REMARK 923 INTER-LIGAND FREE ENERGY PREDICTED BY IDOCK:   -7.84 KCAL/MOL
REMARK 924 INTRA-LIGAND FREE ENERGY PREDICTED BY IDOCK:   -0.69 KCAL/MOL
REMARK 927      BINDING AFFINITY PREDICTED BY RF-SCORE:    0.00 PKD
ROOT
HETATM    1  C   UNL     1      -7.693  17.732  66.229  1.00  0.00    -0.308 C  
HETATM    2  C   UNL     1      -8.457  18.980  66.618  1.00  0.00    -0.304 C  
ENDROOT
BRANCH   2   3
HETATM    3  S   UNL     1     -10.209  18.668  66.750  1.00  0.00    -0.417 S  
HETATM    4  O   UNL     1     -10.791  19.642  67.643  1.00  0.00    -0.429 OA 
HETATM    5  O   UNL     1     -10.739  18.424  65.426  1.00  0.00    -0.594 OA 
BRANCH   3   6
HETATM    6  N   UNL     1     -10.165  17.192  67.566  1.00  0.00    -0.313 N  
HETATM    7  C   UNL     1      -9.465  16.926  68.856  1.00  0.00    -0.241 C  
HETATM    8  C   UNL     1     -10.422  15.716  69.118  1.00  0.00    -0.236 C  
HETATM    9  C   UNL     1     -11.338  16.418  68.064  1.00  0.00    -0.157 C  
BRANCH   8  10
HETATM   10  C   UNL     1     -10.924  15.520  70.542  1.00  0.00    -0.368 C  
BRANCH  10  11
HETATM   11  C   UNL     1     -12.443  15.499  70.607  1.00  0.00    -0.435 C  
HETATM   12  H1  UNL     1     -14.722  15.469  70.705  1.00  0.00     0.000 HD 
HETATM   13  N   UNL     1     -13.703  15.483  70.662  1.00  0.00    -0.846 NA 
HETATM   14  H2  UNL     1     -14.119  15.877  71.506  1.00  0.00     0.000 HD 
ENDBRANCH  10  11
ENDBRANCH   8  10
BRANCH   8  15
HETATM   15  N   UNL     1      -9.787  14.499  68.632  1.00  0.00    -0.230 NA 
HETATM   16  N   UNL     1      -8.453  14.323  68.764  1.00  0.00    -0.133 NA 
HETATM   17  C   UNL     1     -10.387  13.457  67.977  1.00  0.00    -0.241 A  
HETATM   18  C   UNL     1      -8.220  13.149  68.176  1.00  0.00    -0.160 A  
HETATM   19  C   UNL     1      -9.388  12.563  67.657  1.00  0.00    -0.189 A  
BRANCH  19  20
HETATM   20  C   UNL     1      -9.604  11.313  66.977  1.00  0.00    -0.178 A  
HETATM   21  C   UNL     1      -9.868  11.263  65.608  1.00  0.00    -0.277 A  
HETATM   22  C   UNL     1     -10.087  12.177  64.538  1.00  0.00    -0.286 A  
HETATM   23  C   UNL     1     -10.276  11.439  63.389  1.00  0.00    -0.411 A  
HETATM   24  N   UNL     1     -10.204  10.112  63.726  1.00  0.00    -0.425 NA 
HETATM   25  H   UNL     1     -10.305   9.334  63.074  1.00  0.00     0.000 HD 
HETATM   26  C   UNL     1      -9.976   9.991  65.070  1.00  0.00    -0.250 A  
HETATM   27  N   UNL     1      -9.872   8.824  65.723  1.00  0.00    -0.093 NA 
HETATM   28  C   UNL     1      -9.648   9.006  67.036  1.00  0.00    -0.176 A  
HETATM   29  N   UNL     1      -9.515  10.170  67.698  1.00  0.00    -0.147 NA 
ENDBRANCH  19  20
ENDBRANCH   8  15
ENDBRANCH   3   6
ENDBRANCH   2   3
TORSDOF 6
ENDMDL
MODEL       53
REMARK 921   NORMALIZED FREE ENERGY PREDICTED BY IDOCK:   -5.93 KCAL/MOL
REMARK 922        TOTAL FREE ENERGY PREDICTED BY IDOCK:   -8.52 KCAL/MOL
REMARK 923 INTER-LIGAND FREE ENERGY PREDICTED BY IDOCK:   -8.37 KCAL/MOL
REMARK 924 INTRA-LIGAND FREE ENERGY PREDICTED BY IDOCK:   -0.15 KCAL/MOL
REMARK 927      BINDING AFFINITY PREDICTED BY RF-SCORE:    0.00 PKD
ROOT
HETATM    1  C   UNL     1      -8.613   4.587  74.292  1.00  0.00    -0.103 C  
HETATM    2  C   UNL     1      -9.192   5.701  73.446  1.00  0.00    -0.135 C  
ENDROOT
BRANCH   2   3
HETATM    3  S   UNL     1     -10.543   5.126  72.432  1.00  0.00    -0.215 S  
HETATM    4  O   UNL     1     -10.027   4.211  71.441  1.00  0.00    -0.185 OA 
HETATM    5  O   UNL     1     -11.656   4.785  73.290  1.00  0.00    -0.333 OA 
BRANCH   3   6
HETATM    6  N   UNL     1     -10.926   6.567  71.642  1.00  0.00    -0.240 N  
HETATM    7  C   UNL     1      -9.959   7.630  71.241  1.00  0.00    -0.179 C  
HETATM    8  C   UNL     1     -10.964   8.121  70.146  1.00  0.00    -0.223 C  
HETATM    9  C   UNL     1     -11.596   6.702  70.316  1.00  0.00    -0.395 C  
BRANCH   8  10
HETATM   10  C   UNL     1     -10.382   8.530  68.800  1.00  0.00    -0.233 C  
BRANCH  10  11
HETATM   11  C   UNL     1     -10.600   7.460  67.742  1.00  0.00    -0.210 C  
HETATM   12  H1  UNL     1     -10.928   5.856  66.154  1.00  0.00     0.000 HD 
HETATM   13  N   UNL     1     -10.782   6.574  66.864  1.00  0.00    -0.420 NA 
HETATM   14  H2  UNL     1     -11.141   6.900  65.966  1.00  0.00     0.000 HD 
ENDBRANCH  10  11
ENDBRANCH   8  10
BRANCH   8  15
HETATM   15  N   UNL     1     -11.773   9.199  70.698  1.00  0.00    -0.249 NA 
HETATM   16  N   UNL     1     -12.856   8.920  71.458  1.00  0.00    -0.332 NA 
HETATM   17  C   UNL     1     -11.603  10.544  70.505  1.00  0.00    -0.350 A  
HETATM   18  C   UNL     1     -13.371  10.118  71.740  1.00  0.00    -0.385 A  
HETATM   19  C   UNL     1     -12.637  11.171  71.165  1.00  0.00    -0.513 A  
BRANCH  19  20
HETATM   20  C   UNL     1     -12.814  12.598  71.228  1.00  0.00    -0.250 A  
HETATM   21  C   UNL     1     -12.334  13.438  70.222  1.00  0.00    -0.354 A  
HETATM   22  C   UNL     1     -11.567  13.327  69.027  1.00  0.00    -0.359 A  
HETATM   23  C   UNL     1     -11.473  14.586  68.472  1.00  0.00    -0.301 A  
HETATM   24  N   UNL     1     -12.133  15.459  69.297  1.00  0.00    -0.532 NA 
HETATM   25  H   UNL     1     -12.229  16.461  69.136  1.00  0.00     0.000 HD 
HETATM   26  C   UNL     1     -12.644  14.780  70.370  1.00  0.00    -0.346 A  
HETATM   27  N   UNL     1     -13.329  15.347  71.375  1.00  0.00    -0.492 NA 
HETATM   28  C   UNL     1     -13.708  14.440  72.292  1.00  0.00    -0.471 A  
HETATM   29  N   UNL     1     -13.489  13.112  72.283  1.00  0.00    -0.567 NA 
ENDBRANCH  19  20
ENDBRANCH   8  15
ENDBRANCH   3   6
ENDBRANCH   2   3
TORSDOF 6
ENDMDL
MODEL       54
REMARK 921   NORMALIZED FREE ENERGY PREDICTED BY IDOCK:   -5.93 KCAL/MOL
REMARK 922        TOTAL FREE ENERGY PREDICTED BY IDOCK:   -8.52 KCAL/MOL
REMARK 923 INTER-LIGAND FREE ENERGY PREDICTED BY IDOCK:   -7.65 KCAL/MOL
REMARK 924 INTRA-LIGAND FREE ENERGY PREDICTED BY IDOCK:   -0.87 KCAL/MOL
REMARK 927      BINDING AFFINITY PREDICTED BY RF-SCORE:    0.00 PKD
ROOT
HETATM    1  C   UNL     1      -8.222  20.119  67.318  1.00  0.00    -0.381 C  
HETATM    2  C   UNL     1      -8.065  18.828  68.094  1.00  0.00    -0.299 C  
ENDROOT
BRANCH   2   3
HETATM    3  S   UNL     1      -7.679  17.456  67.021  1.00  0.00    -0.221 S  
HETATM    4  O   UNL     1      -7.749  17.901  65.649  1.00  0.00    -0.541 OA 
HETATM    5  O   UNL     1      -6.524  16.764  67.549  1.00  0.00    -0.129 OA 
BRANCH   3   6
HETATM    6  N   UNL     1      -9.033  16.491  67.311  1.00  0.00    -0.197 N  
HETATM    7  C   UNL     1      -9.395  15.859  68.612  1.00  0.00    -0.212 C  
HETATM    8  C   UNL     1     -10.890  15.790  68.155  1.00  0.00    -0.307 C  
HETATM    9  C   UNL     1     -10.459  16.884  67.125  1.00  0.00    -0.296 C  
BRANCH   8  10
HETATM   10  C   UNL     1     -11.953  16.112  69.196  1.00  0.00    -0.085 C  
BRANCH  10  11
HETATM   11  C   UNL     1     -11.636  15.479  70.541  1.00  0.00    -0.346 C  
HETATM   12  H1  UNL     1     -11.160  14.530  72.560  1.00  0.00     0.000 HD 
HETATM   13  N   UNL     1     -11.373  14.954  71.658  1.00  0.00    -0.546 NA 
HETATM   14  H2  UNL     1     -12.059  14.286  72.010  1.00  0.00     0.000 HD 
ENDBRANCH  10  11
ENDBRANCH   8  10
BRANCH   8  15
HETATM   15  N   UNL     1     -11.141  14.485  67.560  1.00  0.00    -0.297 NA 
HETATM   16  N   UNL     1     -12.156  14.317  66.682  1.00  0.00    -0.436 NA 
HETATM   17  C   UNL     1     -10.474  13.316  67.815  1.00  0.00    -0.239 A  
HETATM   18  C   UNL     1     -12.120  13.016  66.390  1.00  0.00    -0.358 A  
HETATM   19  C   UNL     1     -11.096  12.336  67.074  1.00  0.00    -0.339 A  
BRANCH  19  20
HETATM   20  C   UNL     1     -10.685  10.957  67.042  1.00  0.00    -0.271 A  
HETATM   21  C   UNL     1     -10.825  10.127  68.156  1.00  0.00    -0.310 A  
HETATM   22  C   UNL     1     -11.239  10.240  69.514  1.00  0.00    -0.314 A  
HETATM   23  C   UNL     1     -11.156   8.987  70.082  1.00  0.00    -0.207 A  
HETATM   24  N   UNL     1     -10.685   8.124  69.127  1.00  0.00    -0.380 NA 
HETATM   25  H   UNL     1     -10.524   7.126  69.264  1.00  0.00     0.000 HD 
HETATM   26  C   UNL     1     -10.463   8.805  67.961  1.00  0.00    -0.204 A  
HETATM   27  N   UNL     1      -9.982   8.254  66.836  1.00  0.00    -0.246 NA 
HETATM   28  C   UNL     1      -9.865   9.159  65.849  1.00  0.00    -0.235 A  
HETATM   29  N   UNL     1     -10.180  10.467  65.885  1.00  0.00    -0.256 NA 
ENDBRANCH  19  20
ENDBRANCH   8  15
ENDBRANCH   3   6
ENDBRANCH   2   3
TORSDOF 6
ENDMDL
MODEL       55
REMARK 921   NORMALIZED FREE ENERGY PREDICTED BY IDOCK:   -5.91 KCAL/MOL
REMARK 922        TOTAL FREE ENERGY PREDICTED BY IDOCK:   -8.49 KCAL/MOL
REMARK 923 INTER-LIGAND FREE ENERGY PREDICTED BY IDOCK:   -7.61 KCAL/MOL
REMARK 924 INTRA-LIGAND FREE ENERGY PREDICTED BY IDOCK:   -0.88 KCAL/MOL
REMARK 927      BINDING AFFINITY PREDICTED BY RF-SCORE:    0.00 PKD
ROOT
HETATM    1  C   UNL     1     -10.302  18.573  66.663  1.00  0.00    -0.442 C  
HETATM    2  C   UNL     1      -9.939  17.105  66.582  1.00  0.00    -0.295 C  
ENDROOT
BRANCH   2   3
HETATM    3  S   UNL     1      -9.885  16.348  68.197  1.00  0.00    -0.244 S  
HETATM    4  O   UNL     1      -8.506  16.201  68.598  1.00  0.00    -0.192 OA 
HETATM    5  O   UNL     1     -10.870  16.986  69.042  1.00  0.00    -0.304 OA 
BRANCH   3   6
HETATM    6  N   UNL     1     -10.465  14.814  67.800  1.00  0.00    -0.252 N  
HETATM    7  C   UNL     1     -11.898  14.436  67.631  1.00  0.00    -0.378 C  
HETATM    8  C   UNL     1     -11.467  13.229  66.733  1.00  0.00    -0.350 C  
HETATM    9  C   UNL     1     -10.132  14.028  66.577  1.00  0.00    -0.285 C  
BRANCH   8  10
HETATM   10  C   UNL     1     -12.317  12.936  65.504  1.00  0.00    -0.517 C  
BRANCH  10  11
HETATM   11  C   UNL     1     -12.413  14.141  64.583  1.00  0.00    -0.350 C  
HETATM   12  H1  UNL     1     -12.557  15.950  63.201  1.00  0.00     0.000 HD 
HETATM   13  N   UNL     1     -12.493  15.142  63.819  1.00  0.00    -1.007 NA 
HETATM   14  H2  UNL     1     -13.405  15.597  63.773  1.00  0.00     0.000 HD 
ENDBRANCH  10  11
ENDBRANCH   8  10
BRANCH   8  15
HETATM   15  N   UNL     1     -11.350  12.040  67.565  1.00  0.00    -0.296 NA 
HETATM   16  N   UNL     1     -12.277  11.774  68.512  1.00  0.00    -0.372 NA 
HETATM   17  C   UNL     1     -10.341  11.114  67.549  1.00  0.00    -0.196 A  
HETATM   18  C   UNL     1     -11.832  10.662  69.099  1.00  0.00    -0.215 A  
HETATM   19  C   UNL     1     -10.622  10.206  68.547  1.00  0.00    -0.245 A  
BRANCH  19  20
HETATM   20  C   UNL     1      -9.813   9.055  68.848  1.00  0.00    -0.175 A  
HETATM   21  C   UNL     1      -9.943   7.863  68.134  1.00  0.00    -0.210 A  
HETATM   22  C   UNL     1     -10.775   7.330  67.108  1.00  0.00    -0.413 A  
HETATM   23  C   UNL     1     -10.336   6.052  66.835  1.00  0.00    -0.244 A  
HETATM   24  N   UNL     1      -9.285   5.782  67.672  1.00  0.00    -0.106 NA 
HETATM   25  H   UNL     1      -8.758   4.909  67.691  1.00  0.00     0.000 HD 
HETATM   26  C   UNL     1      -9.048   6.864  68.476  1.00  0.00    -0.127 A  
HETATM   27  N   UNL     1      -8.097   6.917  69.422  1.00  0.00    -0.125 NA 
HETATM   28  C   UNL     1      -8.094   8.101  70.058  1.00  0.00    -0.114 A  
HETATM   29  N   UNL     1      -8.891   9.162  69.834  1.00  0.00    -0.155 NA 
ENDBRANCH  19  20
ENDBRANCH   8  15
ENDBRANCH   3   6
ENDBRANCH   2   3
TORSDOF 6
ENDMDL
MODEL       56
REMARK 921   NORMALIZED FREE ENERGY PREDICTED BY IDOCK:   -5.90 KCAL/MOL
REMARK 922        TOTAL FREE ENERGY PREDICTED BY IDOCK:   -8.48 KCAL/MOL
REMARK 923 INTER-LIGAND FREE ENERGY PREDICTED BY IDOCK:   -8.36 KCAL/MOL
REMARK 924 INTRA-LIGAND FREE ENERGY PREDICTED BY IDOCK:   -0.13 KCAL/MOL
REMARK 927      BINDING AFFINITY PREDICTED BY RF-SCORE:    0.00 PKD
ROOT
HETATM    1  C   UNL     1     -10.414  19.016  66.278  1.00  0.00    -0.534 C  
HETATM    2  C   UNL     1     -10.528  17.518  66.083  1.00  0.00    -0.288 C  
ENDROOT
BRANCH   2   3
HETATM    3  S   UNL     1      -9.208  16.644  66.907  1.00  0.00    -0.238 S  
HETATM    4  O   UNL     1      -8.084  16.539  66.006  1.00  0.00    -0.301 OA 
HETATM    5  O   UNL     1      -9.074  17.163  68.250  1.00  0.00    -0.242 OA 
BRANCH   3   6
HETATM    6  N   UNL     1      -9.916  15.116  67.015  1.00  0.00    -0.239 N  
HETATM    7  C   UNL     1     -11.265  14.738  66.500  1.00  0.00    -0.342 C  
HETATM    8  C   UNL     1     -10.811  13.241  66.433  1.00  0.00    -0.288 C  
HETATM    9  C   UNL     1      -9.369  13.843  66.465  1.00  0.00    -0.247 C  
BRANCH   8  10
HETATM   10  C   UNL     1     -11.263  12.429  65.227  1.00  0.00    -0.359 C  
BRANCH  10  11
HETATM   11  C   UNL     1     -11.852  13.314  64.139  1.00  0.00    -0.443 C  
HETATM   12  H1  UNL     1     -12.736  14.641  62.508  1.00  0.00     0.000 HD 
HETATM   13  N   UNL     1     -12.341  14.048  63.238  1.00  0.00    -1.145 NA 
HETATM   14  H2  UNL     1     -13.114  14.649  63.522  1.00  0.00     0.000 HD 
ENDBRANCH  10  11
ENDBRANCH   8  10
BRANCH   8  15
HETATM   15  N   UNL     1     -11.201  12.575  67.668  1.00  0.00    -0.264 NA 
HETATM   16  N   UNL     1     -11.886  13.246  68.621  1.00  0.00    -0.336 NA 
HETATM   17  C   UNL     1     -10.912  11.289  68.041  1.00  0.00    -0.247 A  
HETATM   18  C   UNL     1     -12.022  12.359  69.608  1.00  0.00    -0.274 A  
HETATM   19  C   UNL     1     -11.427  11.121  69.308  1.00  0.00    -0.363 A  
BRANCH  19  20
HETATM   20  C   UNL     1     -11.356   9.894  70.057  1.00  0.00    -0.249 A  
HETATM   21  C   UNL     1     -10.819   8.730  69.504  1.00  0.00    -0.151 A  
HETATM   22  C   UNL     1     -10.312   8.293  68.247  1.00  0.00    -0.242 A  
HETATM   23  C   UNL     1      -9.906   6.983  68.393  1.00  0.00    -0.146 A  
HETATM   24  N   UNL     1     -10.170   6.604  69.683  1.00  0.00    -0.181 NA 
HETATM   25  H   UNL     1      -9.971   5.684  70.078  1.00  0.00     0.000 HD 
HETATM   26  C   UNL     1     -10.740   7.646  70.362  1.00  0.00    -0.236 A  
HETATM   27  N   UNL     1     -11.137   7.596  71.643  1.00  0.00    -0.236 NA 
HETATM   28  C   UNL     1     -11.663   8.765  72.047  1.00  0.00    -0.372 A  
HETATM   29  N   UNL     1     -11.800   9.900  71.337  1.00  0.00    -0.391 NA 
ENDBRANCH  19  20
ENDBRANCH   8  15
ENDBRANCH   3   6
ENDBRANCH   2   3
TORSDOF 6
ENDMDL
MODEL       57
REMARK 921   NORMALIZED FREE ENERGY PREDICTED BY IDOCK:   -5.84 KCAL/MOL
REMARK 922        TOTAL FREE ENERGY PREDICTED BY IDOCK:   -8.40 KCAL/MOL
REMARK 923 INTER-LIGAND FREE ENERGY PREDICTED BY IDOCK:   -7.67 KCAL/MOL
REMARK 924 INTRA-LIGAND FREE ENERGY PREDICTED BY IDOCK:   -0.73 KCAL/MOL
REMARK 927      BINDING AFFINITY PREDICTED BY RF-SCORE:    0.00 PKD
ROOT
HETATM    1  C   UNL     1     -11.283   6.007  71.745  1.00  0.00    -0.333 C  
HETATM    2  C   UNL     1     -11.981   7.194  71.114  1.00  0.00    -0.342 C  
ENDROOT
BRANCH   2   3
HETATM    3  S   UNL     1     -11.120   8.721  71.449  1.00  0.00    -0.319 S  
HETATM    4  O   UNL     1     -12.089   9.784  71.579  1.00  0.00    -0.363 OA 
HETATM    5  O   UNL     1     -10.108   8.474  72.452  1.00  0.00    -0.305 OA 
BRANCH   3   6
HETATM    6  N   UNL     1     -10.338   8.926  69.969  1.00  0.00    -0.197 N  
HETATM    7  C   UNL     1      -8.863   9.027  69.764  1.00  0.00    -0.153 C  
HETATM    8  C   UNL     1      -9.044   8.559  68.282  1.00  0.00    -0.138 C  
HETATM    9  C   UNL     1     -10.421   8.020  68.787  1.00  0.00    -0.173 C  
BRANCH   8  10
HETATM   10  C   UNL     1      -8.011   7.587  67.727  1.00  0.00    -0.118 C  
BRANCH  10  11
HETATM   11  C   UNL     1      -8.553   6.803  66.542  1.00  0.00    -0.128 C  
HETATM   12  H1  UNL     1      -9.366   5.627  64.765  1.00  0.00     0.000 HD 
HETATM   13  N   UNL     1      -9.003   6.153  65.560  1.00  0.00    -0.339 NA 
HETATM   14  H2  UNL     1      -9.185   5.162  65.726  1.00  0.00     0.000 HD 
ENDBRANCH  10  11
ENDBRANCH   8  10
BRANCH   8  15
HETATM   15  N   UNL     1      -9.147   9.733  67.426  1.00  0.00    -0.134 NA 
HETATM   16  N   UNL     1      -8.096  10.572  67.285  1.00  0.00    -0.114 NA 
HETATM   17  C   UNL     1     -10.249  10.156  66.731  1.00  0.00    -0.228 A  
HETATM   18  C   UNL     1      -8.557  11.538  66.489  1.00  0.00    -0.172 A  
HETATM   19  C   UNL     1      -9.898  11.338  66.117  1.00  0.00    -0.262 A  
BRANCH  19  20
HETATM   20  C   UNL     1     -10.772  12.102  65.266  1.00  0.00    -0.288 A  
HETATM   21  C   UNL     1     -10.758  13.498  65.269  1.00  0.00    -0.328 A  
HETATM   22  C   UNL     1     -10.115  14.548  65.985  1.00  0.00    -0.336 A  
HETATM   23  C   UNL     1     -10.545  15.744  65.450  1.00  0.00    -0.421 A  
HETATM   24  N   UNL     1     -11.441  15.459  64.453  1.00  0.00    -0.697 NA 
HETATM   25  H   UNL     1     -11.921  16.152  63.878  1.00  0.00     0.000 HD 
HETATM   26  C   UNL     1     -11.593  14.103  64.344  1.00  0.00    -0.362 A  
HETATM   27  N   UNL     1     -12.415  13.495  63.475  1.00  0.00    -0.748 NA 
HETATM   28  C   UNL     1     -12.361  12.157  63.593  1.00  0.00    -0.568 A  
HETATM   29  N   UNL     1     -11.600  11.430  64.432  1.00  0.00    -0.103 NA 
ENDBRANCH  19  20
ENDBRANCH   8  15
ENDBRANCH   3   6
ENDBRANCH   2   3
TORSDOF 6
ENDMDL
MODEL       58
REMARK 921   NORMALIZED FREE ENERGY PREDICTED BY IDOCK:   -5.81 KCAL/MOL
REMARK 922        TOTAL FREE ENERGY PREDICTED BY IDOCK:   -8.36 KCAL/MOL
REMARK 923 INTER-LIGAND FREE ENERGY PREDICTED BY IDOCK:   -7.50 KCAL/MOL
REMARK 924 INTRA-LIGAND FREE ENERGY PREDICTED BY IDOCK:   -0.86 KCAL/MOL
REMARK 927      BINDING AFFINITY PREDICTED BY RF-SCORE:    0.00 PKD
ROOT
HETATM    1  C   UNL     1     -10.004   8.666  67.017  1.00  0.00    -0.317 C  
HETATM    2  C   UNL     1      -9.095   7.460  67.138  1.00  0.00    -0.130 C  
ENDROOT
BRANCH   2   3
HETATM    3  S   UNL     1      -9.837   6.172  68.126  1.00  0.00    -0.139 S  
HETATM    4  O   UNL     1     -10.983   5.645  67.422  1.00  0.00    -0.199 OA 
HETATM    5  O   UNL     1      -8.788   5.317  68.638  1.00  0.00    -0.097 OA 
BRANCH   3   6
HETATM    6  N   UNL     1     -10.413   7.105  69.408  1.00  0.00    -0.216 N  
HETATM    7  C   UNL     1     -11.461   6.694  70.387  1.00  0.00    -0.386 C  
HETATM    8  C   UNL     1     -10.894   7.729  71.416  1.00  0.00    -0.228 C  
HETATM    9  C   UNL     1      -9.608   7.664  70.531  1.00  0.00    -0.167 C  
BRANCH   8  10
HETATM   10  C   UNL     1     -10.829   7.297  72.875  1.00  0.00    -0.380 C  
BRANCH  10  11
HETATM   11  C   UNL     1     -11.197   5.832  73.047  1.00  0.00    -0.246 C  
HETATM   12  H1  UNL     1     -11.749   3.634  73.306  1.00  0.00     0.000 HD 
HETATM   13  N   UNL     1     -11.502   4.617  73.191  1.00  0.00    -0.270 NA 
HETATM   14  H2  UNL     1     -11.894   4.359  74.097  1.00  0.00     0.000 HD 
ENDBRANCH  10  11
ENDBRANCH   8  10
BRANCH   8  15
HETATM   15  N   UNL     1     -11.637   8.976  71.288  1.00  0.00    -0.294 NA 
HETATM   16  N   UNL     1     -12.934   9.041  71.665  1.00  0.00    -0.343 NA 
HETATM   17  C   UNL     1     -11.185  10.158  70.765  1.00  0.00    -0.336 A  
HETATM   18  C   UNL     1     -13.295  10.290  71.365  1.00  0.00    -0.304 A  
HETATM   19  C   UNL     1     -12.249  11.034  70.792  1.00  0.00    -0.480 A  
BRANCH  19  20
HETATM   20  C   UNL     1     -12.186  12.401  70.348  1.00  0.00    -0.287 A  
HETATM   21  C   UNL     1     -11.873  12.726  69.027  1.00  0.00    -0.344 A  
HETATM   22  C   UNL     1     -11.479  12.052  67.836  1.00  0.00    -0.396 A  
HETATM   23  C   UNL     1     -11.349  12.998  66.842  1.00  0.00    -0.311 A  
HETATM   24  N   UNL     1     -11.626  14.223  67.392  1.00  0.00    -0.350 NA 
HETATM   25  H   UNL     1     -11.611  15.110  66.888  1.00  0.00     0.000 HD 
HETATM   26  C   UNL     1     -11.927  14.075  68.718  1.00  0.00    -0.347 A  
HETATM   27  N   UNL     1     -12.226  15.085  69.550  1.00  0.00    -0.266 NA 
HETATM   28  C   UNL     1     -12.477  14.646  70.795  1.00  0.00    -0.340 A  
HETATM   29  N   UNL     1     -12.470  13.377  71.243  1.00  0.00    -0.324 NA 
ENDBRANCH  19  20
ENDBRANCH   8  15
ENDBRANCH   3   6
ENDBRANCH   2   3
TORSDOF 6
ENDMDL
MODEL       59
REMARK 921   NORMALIZED FREE ENERGY PREDICTED BY IDOCK:   -5.79 KCAL/MOL
REMARK 922        TOTAL FREE ENERGY PREDICTED BY IDOCK:   -8.33 KCAL/MOL
REMARK 923 INTER-LIGAND FREE ENERGY PREDICTED BY IDOCK:   -7.97 KCAL/MOL
REMARK 924 INTRA-LIGAND FREE ENERGY PREDICTED BY IDOCK:   -0.37 KCAL/MOL
REMARK 927      BINDING AFFINITY PREDICTED BY RF-SCORE:    0.00 PKD
ROOT
HETATM    1  C   UNL     1      -8.221   6.028  72.416  1.00  0.00    -0.109 C  
HETATM    2  C   UNL     1      -9.460   6.514  71.692  1.00  0.00    -0.156 C  
ENDROOT
BRANCH   2   3
HETATM    3  S   UNL     1      -9.870   8.192  72.141  1.00  0.00    -0.275 S  
HETATM    4  O   UNL     1     -11.132   8.192  72.844  1.00  0.00    -0.373 OA 
HETATM    5  O   UNL     1      -8.689   8.832  72.677  1.00  0.00    -0.408 OA 
BRANCH   3   6
HETATM    6  N   UNL     1     -10.147   8.828  70.603  1.00  0.00    -0.193 N  
HETATM    7  C   UNL     1      -9.101   9.153  69.589  1.00  0.00    -0.160 C  
HETATM    8  C   UNL     1     -10.172   9.022  68.455  1.00  0.00    -0.201 C  
HETATM    9  C   UNL     1     -10.977   8.218  69.526  1.00  0.00    -0.041 C  
BRANCH   8  10
HETATM   10  C   UNL     1      -9.741   8.338  67.164  1.00  0.00    -0.255 C  
BRANCH  10  11
HETATM   11  C   UNL     1     -10.540   7.072  66.903  1.00  0.00    -0.301 C  
HETATM   12  H1  UNL     1     -11.739   5.172  66.510  1.00  0.00     0.000 HD 
HETATM   13  N   UNL     1     -11.203   6.021  66.686  1.00  0.00    -0.742 NA 
HETATM   14  H2  UNL     1     -11.743   5.663  67.475  1.00  0.00     0.000 HD 
ENDBRANCH  10  11
ENDBRANCH   8  10
BRANCH   8  15
HETATM   15  N   UNL     1     -10.721  10.341  68.171  1.00  0.00    -0.227 NA 
HETATM   16  N   UNL     1     -11.310  11.062  69.151  1.00  0.00    -0.254 NA 
HETATM   17  C   UNL     1     -10.764  10.977  66.959  1.00  0.00    -0.270 A  
HETATM   18  C   UNL     1     -11.731  12.166  68.533  1.00  0.00    -0.330 A  
HETATM   19  C   UNL     1     -11.427  12.168  67.160  1.00  0.00    -0.413 A  
BRANCH  19  20
HETATM   20  C   UNL     1     -11.666  13.148  66.134  1.00  0.00    -0.381 A  
HETATM   21  C   UNL     1     -11.117  14.429  66.206  1.00  0.00    -0.331 A  
HETATM   22  C   UNL     1     -10.347  15.201  67.123  1.00  0.00    -0.263 A  
HETATM   23  C   UNL     1     -10.117  16.431  66.545  1.00  0.00    -0.295 A  
HETATM   24  N   UNL     1     -10.738  16.443  65.323  1.00  0.00    -0.555 NA 
HETATM   25  H   UNL     1     -10.734  17.226  64.669  1.00  0.00     0.000 HD 
HETATM   26  C   UNL     1     -11.363  15.243  65.113  1.00  0.00    -0.321 A  
HETATM   27  N   UNL     1     -12.078  14.937  64.020  1.00  0.00    -0.502 NA 
HETATM   28  C   UNL     1     -12.578  13.691  64.085  1.00  0.00    -0.108 A  
HETATM   29  N   UNL     1     -12.421  12.788  65.070  1.00  0.00    -0.506 NA 
ENDBRANCH  19  20
ENDBRANCH   8  15
ENDBRANCH   3   6
ENDBRANCH   2   3
TORSDOF 6
ENDMDL
MODEL       60
REMARK 921   NORMALIZED FREE ENERGY PREDICTED BY IDOCK:   -5.79 KCAL/MOL
REMARK 922        TOTAL FREE ENERGY PREDICTED BY IDOCK:   -8.33 KCAL/MOL
REMARK 923 INTER-LIGAND FREE ENERGY PREDICTED BY IDOCK:   -7.49 KCAL/MOL
REMARK 924 INTRA-LIGAND FREE ENERGY PREDICTED BY IDOCK:   -0.84 KCAL/MOL
REMARK 927      BINDING AFFINITY PREDICTED BY RF-SCORE:    0.00 PKD
ROOT
HETATM    1  C   UNL     1     -10.310   8.595  67.425  1.00  0.00    -0.353 C  
HETATM    2  C   UNL     1      -9.161   9.580  67.490  1.00  0.00    -0.126 C  
ENDROOT
BRANCH   2   3
HETATM    3  S   UNL     1      -9.025  10.536  65.990  1.00  0.00    -0.173 S  
HETATM    4  O   UNL     1      -7.630  10.811  65.736  1.00  0.00    -0.145 OA 
HETATM    5  O   UNL     1      -9.890   9.953  64.987  1.00  0.00    -0.317 OA 
BRANCH   3   6
HETATM    6  N   UNL     1      -9.739  11.972  66.513  1.00  0.00    -0.211 N  
HETATM    7  C   UNL     1     -11.198  12.281  66.496  1.00  0.00    -0.324 C  
HETATM    8  C   UNL     1     -10.980  13.341  67.627  1.00  0.00    -0.262 C  
HETATM    9  C   UNL     1      -9.648  12.562  67.879  1.00  0.00    -0.206 C  
BRANCH   8  10
HETATM   10  C   UNL     1     -12.031  13.413  68.727  1.00  0.00    -0.359 C  
BRANCH  10  11
HETATM   11  C   UNL     1     -11.881  12.278  69.727  1.00  0.00    -0.318 C  
HETATM   12  H1  UNL     1     -11.656  10.575  71.227  1.00  0.00     0.000 HD 
HETATM   13  N   UNL     1     -11.757  11.336  70.556  1.00  0.00    -0.450 NA 
HETATM   14  H2  UNL     1     -12.623  10.885  70.852  1.00  0.00     0.000 HD 
ENDBRANCH  10  11
ENDBRANCH   8  10
BRANCH   8  15
HETATM   15  N   UNL     1     -10.792  14.650  67.017  1.00  0.00    -0.298 NA 
HETATM   16  N   UNL     1     -11.186  14.873  65.743  1.00  0.00    -0.338 NA 
HETATM   17  C   UNL     1     -10.194  15.747  67.578  1.00  0.00    -0.265 A  
HETATM   18  C   UNL     1     -10.820  16.134  65.507  1.00  0.00    -0.270 A  
HETATM   19  C   UNL     1     -10.188  16.730  66.613  1.00  0.00    -0.310 A  
BRANCH  19  20
HETATM   20  C   UNL     1      -9.664  18.056  66.808  1.00  0.00    -0.323 A  
HETATM   21  C   UNL     1      -8.373  18.398  66.404  1.00  0.00    -0.272 A  
HETATM   22  C   UNL     1      -7.233  17.752  65.846  1.00  0.00    -0.260 A  
HETATM   23  C   UNL     1      -6.257  18.709  65.663  1.00  0.00    -0.253 A  
HETATM   24  N   UNL     1      -6.754  19.905  66.112  1.00  0.00    -0.216 NA 
HETATM   25  H   UNL     1      -6.251  20.793  66.098  1.00  0.00     0.000 HD 
HETATM   26  C   UNL     1      -8.028  19.728  66.580  1.00  0.00    -0.310 A  
HETATM   27  N   UNL     1      -8.788  20.699  67.108  1.00  0.00    -0.283 NA 
HETATM   28  C   UNL     1      -9.993  20.238  67.485  1.00  0.00    -0.416 A  
HETATM   29  N   UNL     1     -10.471  18.985  67.374  1.00  0.00    -0.430 NA 
ENDBRANCH  19  20
ENDBRANCH   8  15
ENDBRANCH   3   6
ENDBRANCH   2   3
TORSDOF 6
ENDMDL
MODEL       61
REMARK 921   NORMALIZED FREE ENERGY PREDICTED BY IDOCK:   -5.78 KCAL/MOL
REMARK 922        TOTAL FREE ENERGY PREDICTED BY IDOCK:   -8.32 KCAL/MOL
REMARK 923 INTER-LIGAND FREE ENERGY PREDICTED BY IDOCK:   -7.46 KCAL/MOL
REMARK 924 INTRA-LIGAND FREE ENERGY PREDICTED BY IDOCK:   -0.87 KCAL/MOL
REMARK 927      BINDING AFFINITY PREDICTED BY RF-SCORE:    0.00 PKD
ROOT
HETATM    1  C   UNL     1     -12.251   7.781  71.561  1.00  0.00    -0.344 C  
HETATM    2  C   UNL     1     -10.782   7.468  71.365  1.00  0.00    -0.223 C  
ENDROOT
BRANCH   2   3
HETATM    3  S   UNL     1     -10.452   6.857  69.721  1.00  0.00    -0.227 S  
HETATM    4  O   UNL     1      -9.139   6.254  69.702  1.00  0.00    -0.140 OA 
HETATM    5  O   UNL     1     -11.625   6.162  69.238  1.00  0.00    -0.329 OA 
BRANCH   3   6
HETATM    6  N   UNL     1     -10.348   8.325  68.897  1.00  0.00    -0.217 N  
HETATM    7  C   UNL     1      -9.206   9.283  68.955  1.00  0.00    -0.143 C  
HETATM    8  C   UNL     1      -9.635   9.868  67.568  1.00  0.00    -0.157 C  
HETATM    9  C   UNL     1     -10.413   8.521  67.420  1.00  0.00    -0.280 C  
BRANCH   8  10
HETATM   10  C   UNL     1      -8.526  10.210  66.582  1.00  0.00    -0.127 C  
BRANCH  10  11
HETATM   11  C   UNL     1      -8.615   9.370  65.319  1.00  0.00    -0.162 C  
HETATM   12  H1  UNL     1      -8.749   8.109  63.422  1.00  0.00     0.000 HD 
HETATM   13  N   UNL     1      -8.690   8.672  64.270  1.00  0.00    -0.407 NA 
HETATM   14  H2  UNL     1      -9.320   7.871  64.311  1.00  0.00     0.000 HD 
ENDBRANCH  10  11
ENDBRANCH   8  10
BRANCH   8  15
HETATM   15  N   UNL     1     -10.492  11.024  67.789  1.00  0.00    -0.189 NA 
HETATM   16  N   UNL     1     -11.327  11.453  66.817  1.00  0.00    -0.405 NA 
HETATM   17  C   UNL     1     -10.542  11.817  68.906  1.00  0.00    -0.180 A  
HETATM   18  C   UNL     1     -11.905  12.536  67.339  1.00  0.00    -0.312 A  
HETATM   19  C   UNL     1     -11.448  12.819  68.638  1.00  0.00    -0.341 A  
BRANCH  19  20
HETATM   20  C   UNL     1     -11.810  13.856  69.568  1.00  0.00    -0.329 A  
HETATM   21  C   UNL     1     -12.511  13.573  70.741  1.00  0.00    -0.428 A  
HETATM   22  C   UNL     1     -13.120  12.446  71.364  1.00  0.00    -0.299 A  
HETATM   23  C   UNL     1     -13.640  12.865  72.570  1.00  0.00    -0.358 A  
HETATM   24  N   UNL     1     -13.390  14.207  72.691  1.00  0.00    -0.514 NA 
HETATM   25  H   UNL     1     -13.659  14.786  73.487  1.00  0.00     0.000 HD 
HETATM   26  C   UNL     1     -12.723  14.653  71.583  1.00  0.00    -0.331 A  
HETATM   27  N   UNL     1     -12.346  15.924  71.379  1.00  0.00    -0.443 NA 
HETATM   28  C   UNL     1     -11.710  16.073  70.204  1.00  0.00    -0.281 A  
HETATM   29  N   UNL     1     -11.427  15.125  69.291  1.00  0.00    -0.290 NA 
ENDBRANCH  19  20
ENDBRANCH   8  15
ENDBRANCH   3   6
ENDBRANCH   2   3
TORSDOF 6
ENDMDL
MODEL       62
REMARK 921   NORMALIZED FREE ENERGY PREDICTED BY IDOCK:   -5.78 KCAL/MOL
REMARK 922        TOTAL FREE ENERGY PREDICTED BY IDOCK:   -8.32 KCAL/MOL
REMARK 923 INTER-LIGAND FREE ENERGY PREDICTED BY IDOCK:   -7.80 KCAL/MOL
REMARK 924 INTRA-LIGAND FREE ENERGY PREDICTED BY IDOCK:   -0.52 KCAL/MOL
REMARK 927      BINDING AFFINITY PREDICTED BY RF-SCORE:    0.00 PKD
ROOT
HETATM    1  C   UNL     1      -7.386   7.893  66.475  1.00  0.00    -0.087 C  
HETATM    2  C   UNL     1      -8.313   9.062  66.736  1.00  0.00    -0.115 C  
ENDROOT
BRANCH   2   3
HETATM    3  S   UNL     1      -8.070  10.375  65.552  1.00  0.00    -0.152 S  
HETATM    4  O   UNL     1      -6.814  11.031  65.834  1.00  0.00    -0.078 OA 
HETATM    5  O   UNL     1      -8.402   9.880  64.234  1.00  0.00    -0.144 OA 
BRANCH   3   6
HETATM    6  N   UNL     1      -9.306  11.415  66.037  1.00  0.00    -0.213 N  
HETATM    7  C   UNL     1      -9.618  12.745  65.436  1.00  0.00     0.061 C  
HETATM    8  C   UNL     1     -11.085  12.634  65.969  1.00  0.00    -0.287 C  
HETATM    9  C   UNL     1     -10.765  11.107  66.067  1.00  0.00    -0.211 C  
BRANCH   8  10
HETATM   10  C   UNL     1     -12.200  13.113  65.049  1.00  0.00    -0.488 C  
BRANCH  10  11
HETATM   11  C   UNL     1     -11.922  14.504  64.503  1.00  0.00    -0.468 C  
HETATM   12  H1  UNL     1     -11.506  16.592  63.683  1.00  0.00     0.000 HD 
HETATM   13  N   UNL     1     -11.692  15.659  64.050  1.00  0.00    -0.945 NA 
HETATM   14  H2  UNL     1     -12.401  16.366  64.248  1.00  0.00     0.000 HD 
ENDBRANCH  10  11
ENDBRANCH   8  10
BRANCH   8  15
HETATM   15  N   UNL     1     -11.169  13.304  67.259  1.00  0.00    -0.282 NA 
HETATM   16  N   UNL     1     -10.381  14.368  67.530  1.00  0.00    -0.250 NA 
HETATM   17  C   UNL     1     -11.959  12.956  68.323  1.00  0.00    -0.254 A  
HETATM   18  C   UNL     1     -10.685  14.685  68.790  1.00  0.00    -0.249 A  
HETATM   19  C   UNL     1     -11.658  13.833  69.342  1.00  0.00    -0.365 A  
BRANCH  19  20
HETATM   20  C   UNL     1     -12.289  13.823  70.635  1.00  0.00    -0.375 A  
HETATM   21  C   UNL     1     -12.228  14.927  71.487  1.00  0.00    -0.402 A  
HETATM   22  C   UNL     1     -11.603  16.207  71.517  1.00  0.00    -0.502 A  
HETATM   23  C   UNL     1     -11.992  16.835  72.681  1.00  0.00    -0.009 A  
HETATM   24  N   UNL     1     -12.809  15.976  73.368  1.00  0.00    -0.528 NA 
HETATM   25  H   UNL     1     -13.248  16.175  74.267  1.00  0.00     0.000 HD 
HETATM   26  C   UNL     1     -12.945  14.809  72.666  1.00  0.00    -0.426 A  
HETATM   27  N   UNL     1     -13.665  13.753  73.073  1.00  0.00    -0.429 NA 
HETATM   28  C   UNL     1     -13.619  12.747  72.184  1.00  0.00    -0.451 A  
HETATM   29  N   UNL     1     -12.976  12.715  71.002  1.00  0.00    -0.148 NA 
ENDBRANCH  19  20
ENDBRANCH   8  15
ENDBRANCH   3   6
ENDBRANCH   2   3
TORSDOF 6
ENDMDL
MODEL       63
REMARK 921   NORMALIZED FREE ENERGY PREDICTED BY IDOCK:   -5.78 KCAL/MOL
REMARK 922        TOTAL FREE ENERGY PREDICTED BY IDOCK:   -8.31 KCAL/MOL
REMARK 923 INTER-LIGAND FREE ENERGY PREDICTED BY IDOCK:   -7.41 KCAL/MOL
REMARK 924 INTRA-LIGAND FREE ENERGY PREDICTED BY IDOCK:   -0.90 KCAL/MOL
REMARK 927      BINDING AFFINITY PREDICTED BY RF-SCORE:    0.00 PKD
ROOT
HETATM    1  C   UNL     1     -11.630   8.600  71.502  1.00  0.00    -0.368 C  
HETATM    2  C   UNL     1     -10.312   7.886  71.289  1.00  0.00    -0.191 C  
ENDROOT
BRANCH   2   3
HETATM    3  S   UNL     1     -10.239   7.094  69.692  1.00  0.00    -0.214 S  
HETATM    4  O   UNL     1      -8.983   6.390  69.576  1.00  0.00    -0.135 OA 
HETATM    5  O   UNL     1     -11.509   6.452  69.433  1.00  0.00    -0.401 OA 
BRANCH   3   6
HETATM    6  N   UNL     1     -10.146   8.463  68.710  1.00  0.00    -0.192 N  
HETATM    7  C   UNL     1      -8.955   9.347  68.551  1.00  0.00    -0.128 C  
HETATM    8  C   UNL     1      -9.498   9.817  67.160  1.00  0.00    -0.154 C  
HETATM    9  C   UNL     1     -10.359   8.514  67.235  1.00  0.00    -0.302 C  
BRANCH   8  10
HETATM   10  C   UNL     1      -8.485   9.987  66.036  1.00  0.00    -0.137 C  
BRANCH  10  11
HETATM   11  C   UNL     1      -9.145   9.932  64.668  1.00  0.00    -0.242 C  
HETATM   12  H1  UNL     1     -10.137   9.850  62.615  1.00  0.00     0.000 HD 
HETATM   13  N   UNL     1      -9.694   9.887  63.533  1.00  0.00    -0.498 NA 
HETATM   14  H2  UNL     1     -10.712   9.811  63.531  1.00  0.00     0.000 HD 
ENDBRANCH  10  11
ENDBRANCH   8  10
BRANCH   8  15
HETATM   15  N   UNL     1     -10.264  11.042  67.343  1.00  0.00    -0.189 NA 
HETATM   16  N   UNL     1     -11.515  11.149  66.842  1.00  0.00    -0.399 NA 
HETATM   17  C   UNL     1      -9.848  12.194  67.957  1.00  0.00    -0.202 A  
HETATM   18  C   UNL     1     -11.882  12.394  67.148  1.00  0.00    -0.291 A  
HETATM   19  C   UNL     1     -10.879  13.100  67.837  1.00  0.00    -0.260 A  
BRANCH  19  20
HETATM   20  C   UNL     1     -10.854  14.436  68.371  1.00  0.00    -0.248 A  
HETATM   21  C   UNL     1     -11.501  14.757  69.565  1.00  0.00    -0.331 A  
HETATM   22  C   UNL     1     -12.345  14.117  70.517  1.00  0.00    -0.434 A  
HETATM   23  C   UNL     1     -12.620  15.029  71.513  1.00  0.00    -0.340 A  
HETATM   24  N   UNL     1     -11.993  16.204  71.190  1.00  0.00    -0.588 NA 
HETATM   25  H   UNL     1     -12.019  17.057  71.749  1.00  0.00     0.000 HD 
HETATM   26  C   UNL     1     -11.327  16.060  70.003  1.00  0.00    -0.352 A  
HETATM   27  N   UNL     1     -10.628  17.031  69.398  1.00  0.00    -0.310 NA 
HETATM   28  C   UNL     1     -10.081  16.607  68.246  1.00  0.00    -0.268 A  
HETATM   29  N   UNL     1     -10.155  15.380  67.698  1.00  0.00    -0.234 NA 
ENDBRANCH  19  20
ENDBRANCH   8  15
ENDBRANCH   3   6
ENDBRANCH   2   3
TORSDOF 6
ENDMDL
MODEL       64
REMARK 921   NORMALIZED FREE ENERGY PREDICTED BY IDOCK:   -5.78 KCAL/MOL
REMARK 922        TOTAL FREE ENERGY PREDICTED BY IDOCK:   -8.31 KCAL/MOL
REMARK 923 INTER-LIGAND FREE ENERGY PREDICTED BY IDOCK:   -8.28 KCAL/MOL
REMARK 924 INTRA-LIGAND FREE ENERGY PREDICTED BY IDOCK:   -0.03 KCAL/MOL
REMARK 927      BINDING AFFINITY PREDICTED BY RF-SCORE:    0.00 PKD
ROOT
HETATM    1  C   UNL     1     -10.183  20.405  67.593  1.00  0.00    -0.410 C  
HETATM    2  C   UNL     1      -9.977  19.182  68.461  1.00  0.00    -0.425 C  
ENDROOT
BRANCH   2   3
HETATM    3  S   UNL     1      -9.105  17.892  67.588  1.00  0.00    -0.253 S  
HETATM    4  O   UNL     1      -9.440  17.969  66.186  1.00  0.00    -0.460 OA 
HETATM    5  O   UNL     1      -7.736  17.860  68.053  1.00  0.00    -0.230 OA 
BRANCH   3   6
HETATM    6  N   UNL     1      -9.896  16.546  68.226  1.00  0.00    -0.236 N  
HETATM    7  C   UNL     1      -9.526  15.825  69.479  1.00  0.00    -0.248 C  
HETATM    8  C   UNL     1     -10.991  15.286  69.594  1.00  0.00    -0.284 C  
HETATM    9  C   UNL     1     -11.331  16.465  68.626  1.00  0.00    -0.289 C  
BRANCH   8  10
HETATM   10  C   UNL     1     -11.613  15.248  70.983  1.00  0.00    -0.399 C  
BRANCH  10  11
HETATM   11  C   UNL     1     -13.128  15.365  70.926  1.00  0.00    -0.468 C  
HETATM   12  H1  UNL     1     -15.400  15.541  70.841  1.00  0.00     0.000 HD 
HETATM   13  N   UNL     1     -14.384  15.462  70.880  1.00  0.00    -0.853 NA 
HETATM   14  H2  UNL     1     -14.896  15.014  71.641  1.00  0.00     0.000 HD 
ENDBRANCH  10  11
ENDBRANCH   8  10
BRANCH   8  15
HETATM   15  N   UNL     1     -11.060  13.971  68.970  1.00  0.00    -0.257 NA 
HETATM   16  N   UNL     1     -11.743  12.967  69.564  1.00  0.00    -0.312 NA 
HETATM   17  C   UNL     1     -10.451  13.573  67.809  1.00  0.00    -0.240 A  
HETATM   18  C   UNL     1     -11.552  11.923  68.757  1.00  0.00    -0.309 A  
HETATM   19  C   UNL     1     -10.746  12.236  67.648  1.00  0.00    -0.250 A  
BRANCH  19  20
HETATM   20  C   UNL     1     -10.312  11.438  66.533  1.00  0.00    -0.236 A  
HETATM   21  C   UNL     1      -9.976  10.092  66.684  1.00  0.00    -0.274 A  
HETATM   22  C   UNL     1      -9.847   9.146  67.742  1.00  0.00    -0.214 A  
HETATM   23  C   UNL     1      -9.493   7.937  67.182  1.00  0.00    -0.159 A  
HETATM   24  N   UNL     1      -9.380   8.120  65.828  1.00  0.00    -0.415 NA 
HETATM   25  H   UNL     1      -9.132   7.394  65.156  1.00  0.00     0.000 HD 
HETATM   26  C   UNL     1      -9.652   9.424  65.515  1.00  0.00    -0.258 A  
HETATM   27  N   UNL     1      -9.610   9.936  64.276  1.00  0.00    -0.236 NA 
HETATM   28  C   UNL     1      -9.922  11.243  64.266  1.00  0.00    -0.297 A  
HETATM   29  N   UNL     1     -10.262  12.020  65.311  1.00  0.00    -0.264 NA 
ENDBRANCH  19  20
ENDBRANCH   8  15
ENDBRANCH   3   6
ENDBRANCH   2   3
TORSDOF 6
ENDMDL
MODEL       65
REMARK 921   NORMALIZED FREE ENERGY PREDICTED BY IDOCK:   -5.77 KCAL/MOL
REMARK 922        TOTAL FREE ENERGY PREDICTED BY IDOCK:   -8.30 KCAL/MOL
REMARK 923 INTER-LIGAND FREE ENERGY PREDICTED BY IDOCK:   -7.65 KCAL/MOL
REMARK 924 INTRA-LIGAND FREE ENERGY PREDICTED BY IDOCK:   -0.66 KCAL/MOL
REMARK 927      BINDING AFFINITY PREDICTED BY RF-SCORE:    0.00 PKD
ROOT
HETATM    1  C   UNL     1      -5.641  20.469  70.615  1.00  0.00    -0.288 C  
HETATM    2  C   UNL     1      -5.895  19.067  70.101  1.00  0.00    -0.232 C  
ENDROOT
BRANCH   2   3
HETATM    3  S   UNL     1      -6.717  19.084  68.517  1.00  0.00    -0.277 S  
HETATM    4  O   UNL     1      -7.992  19.747  68.660  1.00  0.00    -0.318 OA 
HETATM    5  O   UNL     1      -5.761  19.464  67.500  1.00  0.00    -0.179 OA 
BRANCH   3   6
HETATM    6  N   UNL     1      -7.021  17.433  68.347  1.00  0.00    -0.193 N  
HETATM    7  C   UNL     1      -6.358  16.517  67.374  1.00  0.00    -0.167 C  
HETATM    8  C   UNL     1      -6.703  15.300  68.295  1.00  0.00    -0.121 C  
HETATM    9  C   UNL     1      -6.873  16.390  69.402  1.00  0.00    -0.217 C  
BRANCH   8  10
HETATM   10  C   UNL     1      -5.640  14.222  68.455  1.00  0.00    -0.107 C  
BRANCH  10  11
HETATM   11  C   UNL     1      -5.837  13.084  67.466  1.00  0.00    -0.092 C  
HETATM   12  H1  UNL     1      -6.132  11.376  65.983  1.00  0.00     0.000 HD 
HETATM   13  N   UNL     1      -6.000  12.140  66.646  1.00  0.00    -0.499 NA 
HETATM   14  H2  UNL     1      -6.398  11.280  67.027  1.00  0.00     0.000 HD 
ENDBRANCH  10  11
ENDBRANCH   8  10
BRANCH   8  15
HETATM   15  N   UNL     1      -7.959  14.712  67.847  1.00  0.00    -0.132 NA 
HETATM   16  N   UNL     1      -8.657  13.888  68.661  1.00  0.00    -0.125 NA 
HETATM   17  C   UNL     1      -8.548  14.854  66.619  1.00  0.00    -0.172 A  
HETATM   18  C   UNL     1      -9.699  13.508  67.921  1.00  0.00    -0.225 A  
HETATM   19  C   UNL     1      -9.682  14.071  66.632  1.00  0.00    -0.296 A  
BRANCH  19  20
HETATM   20  C   UNL     1     -10.603  13.957  65.532  1.00  0.00    -0.311 A  
HETATM   21  C   UNL     1     -10.647  12.814  64.732  1.00  0.00    -0.348 A  
HETATM   22  C   UNL     1      -9.933  11.589  64.597  1.00  0.00    -0.305 A  
HETATM   23  C   UNL     1     -10.530  10.866  63.586  1.00  0.00    -0.232 A  
HETATM   24  N   UNL     1     -11.564  11.617  63.088  1.00  0.00    -0.861 NA 
HETATM   25  H   UNL     1     -12.186  11.331  62.332  1.00  0.00     0.000 HD 
HETATM   26  C   UNL     1     -11.634  12.806  63.761  1.00  0.00    -0.481 A  
HETATM   27  N   UNL     1     -12.524  13.776  63.503  1.00  0.00    -0.813 NA 
HETATM   28  C   UNL     1     -12.359  14.833  64.318  1.00  0.00    -0.320 A  
HETATM   29  N   UNL     1     -11.457  14.983  65.305  1.00  0.00    -0.336 NA 
ENDBRANCH  19  20
ENDBRANCH   8  15
ENDBRANCH   3   6
ENDBRANCH   2   3
TORSDOF 6
ENDMDL
MODEL       66
REMARK 921   NORMALIZED FREE ENERGY PREDICTED BY IDOCK:   -5.73 KCAL/MOL
REMARK 922        TOTAL FREE ENERGY PREDICTED BY IDOCK:   -8.26 KCAL/MOL
REMARK 923 INTER-LIGAND FREE ENERGY PREDICTED BY IDOCK:   -7.59 KCAL/MOL
REMARK 924 INTRA-LIGAND FREE ENERGY PREDICTED BY IDOCK:   -0.67 KCAL/MOL
REMARK 927      BINDING AFFINITY PREDICTED BY RF-SCORE:    0.00 PKD
ROOT
HETATM    1  C   UNL     1      -5.730   9.168  70.388  1.00  0.00    -0.035 C  
HETATM    2  C   UNL     1      -6.219   9.678  71.728  1.00  0.00     0.201 C  
ENDROOT
BRANCH   2   3
HETATM    3  S   UNL     1      -6.976   8.381  72.692  1.00  0.00    -0.038 S  
HETATM    4  O   UNL     1      -6.464   7.107  72.244  1.00  0.00    -0.051 OA 
HETATM    5  O   UNL     1      -6.964   8.770  74.085  1.00  0.00    -0.339 OA 
BRANCH   3   6
HETATM    6  N   UNL     1      -8.563   8.514  72.135  1.00  0.00    -0.187 N  
HETATM    7  C   UNL     1      -9.092   7.956  70.856  1.00  0.00    -0.151 C  
HETATM    8  C   UNL     1     -10.536   7.964  71.459  1.00  0.00    -0.222 C  
HETATM    9  C   UNL     1      -9.792   8.036  72.831  1.00  0.00    -0.287 C  
BRANCH   8  10
HETATM   10  C   UNL     1     -11.429   6.770  71.147  1.00  0.00    -0.361 C  
BRANCH  10  11
HETATM   11  C   UNL     1     -10.623   5.573  70.669  1.00  0.00    -0.259 C  
HETATM   12  H1  UNL     1      -9.415   3.777  69.951  1.00  0.00     0.000 HD 
HETATM   13  N   UNL     1      -9.955   4.580  70.272  1.00  0.00    -0.233 NA 
HETATM   14  H2  UNL     1     -10.497   3.776  69.950  1.00  0.00     0.000 HD 
ENDBRANCH  10  11
ENDBRANCH   8  10
BRANCH   8  15
HETATM   15  N   UNL     1     -11.198   9.205  71.080  1.00  0.00    -0.286 NA 
HETATM   16  N   UNL     1     -12.220   9.689  71.820  1.00  0.00    -0.388 NA 
HETATM   17  C   UNL     1     -10.939   9.979  69.980  1.00  0.00    -0.300 A  
HETATM   18  C   UNL     1     -12.606  10.784  71.164  1.00  0.00    -0.428 A  
HETATM   19  C   UNL     1     -11.849  11.013  70.001  1.00  0.00    -0.435 A  
BRANCH  19  20
HETATM   20  C   UNL     1     -11.902  12.068  69.025  1.00  0.00    -0.315 A  
HETATM   21  C   UNL     1     -12.004  13.408  69.402  1.00  0.00    -0.369 A  
HETATM   22  C   UNL     1     -12.158  14.161  70.601  1.00  0.00    -0.421 A  
HETATM   23  C   UNL     1     -12.165  15.497  70.260  1.00  0.00    -0.400 A  
HETATM   24  N   UNL     1     -12.045  15.581  68.897  1.00  0.00    -0.595 NA 
HETATM   25  H   UNL     1     -12.018  16.449  68.362  1.00  0.00     0.000 HD 
HETATM   26  C   UNL     1     -11.965  14.323  68.363  1.00  0.00    -0.309 A  
HETATM   27  N   UNL     1     -11.860  14.057  67.052  1.00  0.00    -0.406 NA 
HETATM   28  C   UNL     1     -11.802  12.735  66.817  1.00  0.00    -0.382 A  
HETATM   29  N   UNL     1     -11.822  11.732  67.715  1.00  0.00    -0.592 NA 
ENDBRANCH  19  20
ENDBRANCH   8  15
ENDBRANCH   3   6
ENDBRANCH   2   3
TORSDOF 6
ENDMDL
MODEL       67
REMARK 921   NORMALIZED FREE ENERGY PREDICTED BY IDOCK:   -5.72 KCAL/MOL
REMARK 922        TOTAL FREE ENERGY PREDICTED BY IDOCK:   -8.23 KCAL/MOL
REMARK 923 INTER-LIGAND FREE ENERGY PREDICTED BY IDOCK:   -7.80 KCAL/MOL
REMARK 924 INTRA-LIGAND FREE ENERGY PREDICTED BY IDOCK:   -0.44 KCAL/MOL
REMARK 927      BINDING AFFINITY PREDICTED BY RF-SCORE:    0.00 PKD
ROOT
HETATM    1  C   UNL     1     -10.755   7.092  73.506  1.00  0.00    -0.368 C  
HETATM    2  C   UNL     1      -9.582   7.829  72.895  1.00  0.00    -0.242 C  
ENDROOT
BRANCH   2   3
HETATM    3  S   UNL     1      -8.980   7.012  71.427  1.00  0.00    -0.139 S  
HETATM    4  O   UNL     1      -7.549   7.189  71.347  1.00  0.00    -0.086 OA 
HETATM    5  O   UNL     1      -9.602   5.710  71.331  1.00  0.00    -0.150 OA 
BRANCH   3   6
HETATM    6  N   UNL     1      -9.680   8.003  70.254  1.00  0.00    -0.175 N  
HETATM    7  C   UNL     1      -8.953   8.715  69.162  1.00  0.00    -0.142 C  
HETATM    8  C   UNL     1     -10.276   8.768  68.327  1.00  0.00    -0.201 C  
HETATM    9  C   UNL     1     -10.732   7.611  69.274  1.00  0.00    -0.161 C  
BRANCH   8  10
HETATM   10  C   UNL     1     -10.165   8.517  66.829  1.00  0.00    -0.370 C  
BRANCH  10  11
HETATM   11  C   UNL     1     -10.148   7.032  66.505  1.00  0.00    -0.079 C  
HETATM   12  H1  UNL     1     -10.122   4.804  66.019  1.00  0.00     0.000 HD 
HETATM   13  N   UNL     1     -10.134   5.800  66.236  1.00  0.00    -0.357 NA 
HETATM   14  H2  UNL     1     -10.423   5.546  65.291  1.00  0.00     0.000 HD 
ENDBRANCH  10  11
ENDBRANCH   8  10
BRANCH   8  15
HETATM   15  N   UNL     1     -10.943  10.038  68.581  1.00  0.00    -0.223 NA 
HETATM   16  N   UNL     1     -11.310  10.835  67.553  1.00  0.00    -0.456 NA 
HETATM   17  C   UNL     1     -11.231  10.592  69.800  1.00  0.00    -0.297 A  
HETATM   18  C   UNL     1     -11.833  11.909  68.147  1.00  0.00    -0.270 A  
HETATM   19  C   UNL     1     -11.804  11.820  69.550  1.00  0.00    -0.402 A  
BRANCH  19  20
HETATM   20  C   UNL     1     -12.275  12.719  70.569  1.00  0.00    -0.307 A  
HETATM   21  C   UNL     1     -11.929  14.071  70.568  1.00  0.00    -0.390 A  
HETATM   22  C   UNL     1     -11.095  14.948  69.818  1.00  0.00    -0.300 A  
HETATM   23  C   UNL     1     -11.234  16.213  70.348  1.00  0.00    -0.381 A  
HETATM   24  N   UNL     1     -12.102  16.131  71.406  1.00  0.00    -0.609 NA 
HETATM   25  H   UNL     1     -12.395  16.916  71.988  1.00  0.00     0.000 HD 
HETATM   26  C   UNL     1     -12.516  14.836  71.562  1.00  0.00    -0.339 A  
HETATM   27  N   UNL     1     -13.355  14.414  72.520  1.00  0.00    -0.448 NA 
HETATM   28  C   UNL     1     -13.585  13.093  72.433  1.00  0.00    -0.567 A  
HETATM   29  N   UNL     1     -13.096  12.226  71.527  1.00  0.00    -0.341 NA 
ENDBRANCH  19  20
ENDBRANCH   8  15
ENDBRANCH   3   6
ENDBRANCH   2   3
TORSDOF 6
ENDMDL
MODEL       68
REMARK 921   NORMALIZED FREE ENERGY PREDICTED BY IDOCK:   -5.72 KCAL/MOL
REMARK 922        TOTAL FREE ENERGY PREDICTED BY IDOCK:   -8.23 KCAL/MOL
REMARK 923 INTER-LIGAND FREE ENERGY PREDICTED BY IDOCK:   -7.40 KCAL/MOL
REMARK 924 INTRA-LIGAND FREE ENERGY PREDICTED BY IDOCK:   -0.84 KCAL/MOL
REMARK 927      BINDING AFFINITY PREDICTED BY RF-SCORE:    0.00 PKD
ROOT
HETATM    1  C   UNL     1     -12.259  13.212  63.709  1.00  0.00    -0.528 C  
HETATM    2  C   UNL     1     -12.510  13.339  65.197  1.00  0.00    -0.470 C  
ENDROOT
BRANCH   2   3
HETATM    3  S   UNL     1     -11.122  14.078  66.040  1.00  0.00    -0.307 S  
HETATM    4  O   UNL     1     -10.251  14.687  65.061  1.00  0.00    -0.401 OA 
HETATM    5  O   UNL     1     -11.610  14.803  67.193  1.00  0.00    -0.370 OA 
BRANCH   3   6
HETATM    6  N   UNL     1     -10.361  12.679  66.596  1.00  0.00    -0.235 N  
HETATM    7  C   UNL     1      -9.644  11.678  65.754  1.00  0.00    -0.232 C  
HETATM    8  C   UNL     1      -8.821  11.225  67.005  1.00  0.00    -0.153 C  
HETATM    9  C   UNL     1      -9.253  12.607  67.592  1.00  0.00    -0.191 C  
BRANCH   8  10
HETATM   10  C   UNL     1      -7.343  10.923  66.796  1.00  0.00    -0.134 C  
BRANCH  10  11
HETATM   11  C   UNL     1      -7.037  10.578  65.348  1.00  0.00    -0.072 C  
HETATM   12  H1  UNL     1      -6.577  10.059  63.175  1.00  0.00     0.000 HD 
HETATM   13  N   UNL     1      -6.783  10.291  64.146  1.00  0.00    -0.267 NA 
HETATM   14  H2  UNL     1      -7.582  10.013  63.575  1.00  0.00     0.000 HD 
ENDBRANCH  10  11
ENDBRANCH   8  10
BRANCH   8  15
HETATM   15  N   UNL     1      -9.489  10.086  67.621  1.00  0.00    -0.143 NA 
HETATM   16  N   UNL     1     -10.007   9.100  66.855  1.00  0.00    -0.216 NA 
HETATM   17  C   UNL     1      -9.718   9.884  68.956  1.00  0.00    -0.193 A  
HETATM   18  C   UNL     1     -10.572   8.271  67.733  1.00  0.00    -0.168 A  
HETATM   19  C   UNL     1     -10.433   8.711  69.061  1.00  0.00    -0.216 A  
BRANCH  19  20
HETATM   20  C   UNL     1     -10.858   8.128  70.306  1.00  0.00    -0.244 A  
HETATM   21  C   UNL     1     -11.837   8.730  71.098  1.00  0.00    -0.345 A  
HETATM   22  C   UNL     1     -12.604   9.930  71.102  1.00  0.00    -0.464 A  
HETATM   23  C   UNL     1     -13.437   9.890  72.200  1.00  0.00    -0.356 A  
HETATM   24  N   UNL     1     -13.186   8.724  72.875  1.00  0.00    -0.793 NA 
HETATM   25  H   UNL     1     -13.658   8.425  73.728  1.00  0.00     0.000 HD 
HETATM   26  C   UNL     1     -12.206   8.020  72.229  1.00  0.00    -0.318 A  
HETATM   27  N   UNL     1     -11.715   6.842  72.642  1.00  0.00    -0.145 NA 
HETATM   28  C   UNL     1     -10.761   6.383  71.814  1.00  0.00    -0.233 A  
HETATM   29  N   UNL     1     -10.303   6.952  70.683  1.00  0.00    -0.199 NA 
ENDBRANCH  19  20
ENDBRANCH   8  15
ENDBRANCH   3   6
ENDBRANCH   2   3
TORSDOF 6
ENDMDL
MODEL       69
REMARK 921   NORMALIZED FREE ENERGY PREDICTED BY IDOCK:   -5.70 KCAL/MOL
REMARK 922        TOTAL FREE ENERGY PREDICTED BY IDOCK:   -8.21 KCAL/MOL
REMARK 923 INTER-LIGAND FREE ENERGY PREDICTED BY IDOCK:   -7.83 KCAL/MOL
REMARK 924 INTRA-LIGAND FREE ENERGY PREDICTED BY IDOCK:   -0.37 KCAL/MOL
REMARK 927      BINDING AFFINITY PREDICTED BY RF-SCORE:    0.00 PKD
ROOT
HETATM    1  C   UNL     1     -10.178   6.225  71.661  1.00  0.00    -0.225 C  
HETATM    2  C   UNL     1     -11.057   7.269  71.006  1.00  0.00    -0.258 C  
ENDROOT
BRANCH   2   3
HETATM    3  S   UNL     1     -10.639   8.918  71.546  1.00  0.00    -0.354 S  
HETATM    4  O   UNL     1     -11.855   9.625  71.874  1.00  0.00    -0.367 OA 
HETATM    5  O   UNL     1      -9.523   8.838  72.463  1.00  0.00    -0.290 OA 
BRANCH   3   6
HETATM    6  N   UNL     1     -10.064   9.547  70.090  1.00  0.00    -0.231 N  
HETATM    7  C   UNL     1      -8.693   9.355  69.534  1.00  0.00    -0.161 C  
HETATM    8  C   UNL     1      -9.242   9.644  68.097  1.00  0.00    -0.125 C  
HETATM    9  C   UNL     1     -10.629   9.301  68.732  1.00  0.00    -0.193 C  
BRANCH   8  10
HETATM   10  C   UNL     1      -8.702   8.789  66.959  1.00  0.00    -0.131 C  
BRANCH  10  11
HETATM   11  C   UNL     1      -9.640   7.642  66.621  1.00  0.00    -0.206 C  
HETATM   12  H1  UNL     1     -11.048   5.920  66.113  1.00  0.00     0.000 HD 
HETATM   13  N   UNL     1     -10.418   6.689  66.340  1.00  0.00    -0.473 NA 
HETATM   14  H2  UNL     1      -9.975   5.788  66.159  1.00  0.00     0.000 HD 
ENDBRANCH  10  11
ENDBRANCH   8  10
BRANCH   8  15
HETATM   15  N   UNL     1      -9.062  11.058  67.799  1.00  0.00    -0.145 NA 
HETATM   16  N   UNL     1      -8.088  11.768  68.412  1.00  0.00    -0.146 NA 
HETATM   17  C   UNL     1      -9.820  11.830  66.960  1.00  0.00    -0.197 A  
HETATM   18  C   UNL     1      -8.248  13.007  67.946  1.00  0.00    -0.166 A  
HETATM   19  C   UNL     1      -9.320  13.111  67.042  1.00  0.00    -0.238 A  
BRANCH  19  20
HETATM   20  C   UNL     1      -9.826  14.230  66.292  1.00  0.00    -0.307 A  
HETATM   21  C   UNL     1     -10.765  14.063  65.273  1.00  0.00    -0.367 A  
HETATM   22  C   UNL     1     -11.420  12.989  64.605  1.00  0.00    -0.374 A  
HETATM   23  C   UNL     1     -12.279  13.536  63.676  1.00  0.00    -0.375 A  
HETATM   24  N   UNL     1     -12.152  14.900  63.739  1.00  0.00    -0.919 NA 
HETATM   25  H   UNL     1     -12.670  15.566  63.166  1.00  0.00     0.000 HD 
HETATM   26  C   UNL     1     -11.224  15.232  64.690  1.00  0.00    -0.356 A  
HETATM   27  N   UNL     1     -10.852  16.486  64.986  1.00  0.00    -0.648 NA 
HETATM   28  C   UNL     1      -9.924  16.512  65.958  1.00  0.00    -0.337 A  
HETATM   29  N   UNL     1      -9.389  15.469  66.620  1.00  0.00    -0.246 NA 
ENDBRANCH  19  20
ENDBRANCH   8  15
ENDBRANCH   3   6
ENDBRANCH   2   3
TORSDOF 6
ENDMDL
MODEL       70
REMARK 921   NORMALIZED FREE ENERGY PREDICTED BY IDOCK:   -5.68 KCAL/MOL
REMARK 922        TOTAL FREE ENERGY PREDICTED BY IDOCK:   -8.19 KCAL/MOL
REMARK 923 INTER-LIGAND FREE ENERGY PREDICTED BY IDOCK:   -7.70 KCAL/MOL
REMARK 924 INTRA-LIGAND FREE ENERGY PREDICTED BY IDOCK:   -0.48 KCAL/MOL
REMARK 927      BINDING AFFINITY PREDICTED BY RF-SCORE:    0.00 PKD
ROOT
HETATM    1  C   UNL     1      -9.464   6.390  66.615  1.00  0.00    -0.191 C  
HETATM    2  C   UNL     1      -8.853   7.549  65.856  1.00  0.00    -0.126 C  
ENDROOT
BRANCH   2   3
HETATM    3  S   UNL     1      -7.911   8.619  66.929  1.00  0.00    -0.095 S  
HETATM    4  O   UNL     1      -7.980   8.106  68.278  1.00  0.00    -0.119 OA 
HETATM    5  O   UNL     1      -6.653   8.931  66.287  1.00  0.00    -0.064 OA 
BRANCH   3   6
HETATM    6  N   UNL     1      -8.880   9.998  66.861  1.00  0.00    -0.131 N  
HETATM    7  C   UNL     1      -8.510  11.298  66.228  1.00  0.00    -0.156 C  
HETATM    8  C   UNL     1     -10.027  11.643  66.065  1.00  0.00    -0.228 C  
HETATM    9  C   UNL     1     -10.233  10.104  66.243  1.00  0.00    -0.219 C  
BRANCH   8  10
HETATM   10  C   UNL     1     -10.454  12.316  64.768  1.00  0.00    -0.328 C  
BRANCH  10  11
HETATM   11  C   UNL     1     -10.332  11.377  63.578  1.00  0.00    -0.423 C  
HETATM   12  H1  UNL     1     -10.148   9.968  61.794  1.00  0.00     0.000 HD 
HETATM   13  N   UNL     1     -10.229  10.598  62.592  1.00  0.00    -0.757 NA 
HETATM   14  H2  UNL     1      -9.498   9.889  62.656  1.00  0.00     0.000 HD 
ENDBRANCH  10  11
ENDBRANCH   8  10
BRANCH   8  15
HETATM   15  N   UNL     1     -10.457  12.432  67.212  1.00  0.00    -0.221 NA 
HETATM   16  N   UNL     1     -10.066  13.720  67.341  1.00  0.00    -0.242 NA 
HETATM   17  C   UNL     1     -11.218  12.010  68.269  1.00  0.00    -0.261 A  
HETATM   18  C   UNL     1     -10.592  14.104  68.504  1.00  0.00    -0.252 A  
HETATM   19  C   UNL     1     -11.316  13.077  69.136  1.00  0.00    -0.328 A  
BRANCH  19  20
HETATM   20  C   UNL     1     -12.055  13.055  70.370  1.00  0.00    -0.314 A  
HETATM   21  C   UNL     1     -12.204  14.200  71.153  1.00  0.00    -0.435 A  
HETATM   22  C   UNL     1     -11.742  15.548  71.155  1.00  0.00    -0.439 A  
HETATM   23  C   UNL     1     -12.306  16.182  72.241  1.00  0.00    -0.463 A  
HETATM   24  N   UNL     1     -13.074  15.265  72.911  1.00  0.00    -0.443 NA 
HETATM   25  H   UNL     1     -13.614  15.454  73.755  1.00  0.00     0.000 HD 
HETATM   26  C   UNL     1     -13.006  14.055  72.273  1.00  0.00    -0.373 A  
HETATM   27  N   UNL     1     -13.629  12.941  72.684  1.00  0.00    -0.516 NA 
HETATM   28  C   UNL     1     -13.383  11.903  71.866  1.00  0.00    -0.300 A  
HETATM   29  N   UNL     1     -12.636  11.891  70.747  1.00  0.00    -0.280 NA 
ENDBRANCH  19  20
ENDBRANCH   8  15
ENDBRANCH   3   6
ENDBRANCH   2   3
TORSDOF 6
ENDMDL
MODEL       71
REMARK 921   NORMALIZED FREE ENERGY PREDICTED BY IDOCK:   -5.65 KCAL/MOL
REMARK 922        TOTAL FREE ENERGY PREDICTED BY IDOCK:   -8.14 KCAL/MOL
REMARK 923 INTER-LIGAND FREE ENERGY PREDICTED BY IDOCK:   -7.66 KCAL/MOL
REMARK 924 INTRA-LIGAND FREE ENERGY PREDICTED BY IDOCK:   -0.48 KCAL/MOL
REMARK 927      BINDING AFFINITY PREDICTED BY RF-SCORE:    0.00 PKD
ROOT
HETATM    1  C   UNL     1      -8.730   6.476  65.755  1.00  0.00    -0.129 C  
HETATM    2  C   UNL     1      -8.296   7.812  66.321  1.00  0.00    -0.131 C  
ENDROOT
BRANCH   2   3
HETATM    3  S   UNL     1      -7.855   7.687  68.046  1.00  0.00    -0.123 S  
HETATM    4  O   UNL     1      -8.201   6.368  68.522  1.00  0.00    -0.112 OA 
HETATM    5  O   UNL     1      -6.535   8.251  68.230  1.00  0.00    -0.056 OA 
BRANCH   3   6
HETATM    6  N   UNL     1      -8.972   8.770  68.695  1.00  0.00    -0.138 N  
HETATM    7  C   UNL     1     -10.383   8.456  69.068  1.00  0.00    -0.218 C  
HETATM    8  C   UNL     1     -10.383   9.666  70.059  1.00  0.00    -0.257 C  
HETATM    9  C   UNL     1      -8.828   9.541  69.964  1.00  0.00    -0.223 C  
BRANCH   8  10
HETATM   10  C   UNL     1     -11.075   9.468  71.401  1.00  0.00    -0.438 C  
BRANCH  10  11
HETATM   11  C   UNL     1     -12.288   8.560  71.282  1.00  0.00    -0.271 C  
HETATM   12  H1  UNL     1     -14.108   7.196  71.104  1.00  0.00     0.000 HD 
HETATM   13  N   UNL     1     -13.294   7.806  71.183  1.00  0.00    -0.565 NA 
HETATM   14  H2  UNL     1     -13.348   7.241  70.334  1.00  0.00     0.000 HD 
ENDBRANCH  10  11
ENDBRANCH   8  10
BRANCH   8  15
HETATM   15  N   UNL     1     -10.924  10.834  69.377  1.00  0.00    -0.237 NA 
HETATM   16  N   UNL     1     -11.674  11.735  70.052  1.00  0.00    -0.323 NA 
HETATM   17  C   UNL     1     -10.807  11.145  68.048  1.00  0.00    -0.225 A  
HETATM   18  C   UNL     1     -12.032  12.621  69.122  1.00  0.00    -0.243 A  
HETATM   19  C   UNL     1     -11.528  12.302  67.848  1.00  0.00    -0.390 A  
BRANCH  19  20
HETATM   20  C   UNL     1     -11.643  12.979  66.584  1.00  0.00    -0.359 A  
HETATM   21  C   UNL     1     -11.104  14.251  66.385  1.00  0.00    -0.325 A  
HETATM   22  C   UNL     1     -10.448  15.254  67.154  1.00  0.00    -0.280 A  
HETATM   23  C   UNL     1     -10.149  16.301  66.308  1.00  0.00    -0.324 A  
HETATM   24  N   UNL     1     -10.620  15.981  65.062  1.00  0.00    -0.606 NA 
HETATM   25  H   UNL     1     -10.538  16.570  64.233  1.00  0.00     0.000 HD 
HETATM   26  C   UNL     1     -11.218  14.750  65.098  1.00  0.00    -0.382 A  
HETATM   27  N   UNL     1     -11.798  14.153  64.046  1.00  0.00    -0.329 NA 
HETATM   28  C   UNL     1     -12.304  12.952  64.373  1.00  0.00    -0.398 A  
HETATM   29  N   UNL     1     -12.267  12.335  65.569  1.00  0.00    -0.578 NA 
ENDBRANCH  19  20
ENDBRANCH   8  15
ENDBRANCH   3   6
ENDBRANCH   2   3
TORSDOF 6
ENDMDL
MODEL       72
REMARK 921   NORMALIZED FREE ENERGY PREDICTED BY IDOCK:   -5.63 KCAL/MOL
REMARK 922        TOTAL FREE ENERGY PREDICTED BY IDOCK:   -8.12 KCAL/MOL
REMARK 923 INTER-LIGAND FREE ENERGY PREDICTED BY IDOCK:   -7.46 KCAL/MOL
REMARK 924 INTRA-LIGAND FREE ENERGY PREDICTED BY IDOCK:   -0.66 KCAL/MOL
REMARK 927      BINDING AFFINITY PREDICTED BY RF-SCORE:    0.00 PKD
ROOT
HETATM    1  C   UNL     1     -12.353  15.623  74.110  1.00  0.00    -0.799 C  
HETATM    2  C   UNL     1     -12.050  15.637  72.626  1.00  0.00    -0.460 C  
ENDROOT
BRANCH   2   3
HETATM    3  S   UNL     1     -13.327  14.820  71.684  1.00  0.00    -0.394 S  
HETATM    4  O   UNL     1     -13.622  13.548  72.302  1.00  0.00    -0.499 OA 
HETATM    5  O   UNL     1     -14.361  15.782  71.370  1.00  0.00    -0.467 OA 
BRANCH   3   6
HETATM    6  N   UNL     1     -12.467  14.508  70.267  1.00  0.00    -0.347 N  
HETATM    7  C   UNL     1     -12.739  15.107  68.928  1.00  0.00     0.558 C  
HETATM    8  C   UNL     1     -11.258  14.824  68.508  1.00  0.00    -0.276 C  
HETATM    9  C   UNL     1     -11.008  14.727  70.047  1.00  0.00    -0.156 C  
BRANCH   8  10
HETATM   10  C   UNL     1     -10.547  15.897  67.695  1.00  0.00    -0.307 C  
BRANCH  10  11
HETATM   11  C   UNL     1     -10.348  17.174  68.496  1.00  0.00    -0.364 C  
HETATM   12  H1  UNL     1     -10.049  19.089  69.699  1.00  0.00     0.000 HD 
HETATM   13  N   UNL     1     -10.183  18.233  69.161  1.00  0.00    -0.418 NA 
HETATM   14  H2  UNL     1     -10.848  18.984  68.977  1.00  0.00     0.000 HD 
ENDBRANCH  10  11
ENDBRANCH   8  10
BRANCH   8  15
HETATM   15  N   UNL     1     -11.201  13.543  67.817  1.00  0.00    -0.271 NA 
HETATM   16  N   UNL     1     -11.818  13.379  66.626  1.00  0.00    -0.376 NA 
HETATM   17  C   UNL     1     -10.603  12.392  68.258  1.00  0.00    -0.222 A  
HETATM   18  C   UNL     1     -11.603  12.098  66.323  1.00  0.00    -0.360 A  
HETATM   19  C   UNL     1     -10.857  11.427  67.308  1.00  0.00    -0.311 A  
BRANCH  19  20
HETATM   20  C   UNL     1     -10.382  10.071  67.380  1.00  0.00    -0.238 A  
HETATM   21  C   UNL     1     -10.538   9.303  68.535  1.00  0.00    -0.222 A  
HETATM   22  C   UNL     1     -11.024   9.475  69.863  1.00  0.00    -0.263 A  
HETATM   23  C   UNL     1     -10.912   8.264  70.511  1.00  0.00    -0.242 A  
HETATM   24  N   UNL     1     -10.355   7.370  69.634  1.00  0.00    -0.217 NA 
HETATM   25  H   UNL     1     -10.156   6.390  69.840  1.00  0.00     0.000 HD 
HETATM   26  C   UNL     1     -10.107   7.990  68.440  1.00  0.00    -0.195 A  
HETATM   27  N   UNL     1      -9.546   7.398  67.375  1.00  0.00    -0.142 NA 
HETATM   28  C   UNL     1      -9.422   8.247  66.341  1.00  0.00    -0.221 A  
HETATM   29  N   UNL     1      -9.797   9.538  66.281  1.00  0.00    -0.246 NA 
ENDBRANCH  19  20
ENDBRANCH   8  15
ENDBRANCH   3   6
ENDBRANCH   2   3
TORSDOF 6
ENDMDL
MODEL       73
REMARK 921   NORMALIZED FREE ENERGY PREDICTED BY IDOCK:   -5.61 KCAL/MOL
REMARK 922        TOTAL FREE ENERGY PREDICTED BY IDOCK:   -8.09 KCAL/MOL
REMARK 923 INTER-LIGAND FREE ENERGY PREDICTED BY IDOCK:   -7.80 KCAL/MOL
REMARK 924 INTRA-LIGAND FREE ENERGY PREDICTED BY IDOCK:   -0.29 KCAL/MOL
REMARK 927      BINDING AFFINITY PREDICTED BY RF-SCORE:    0.00 PKD
ROOT
HETATM    1  C   UNL     1      -7.791   8.161  63.209  1.00  0.00    -0.149 C  
HETATM    2  C   UNL     1      -8.003   7.998  64.700  1.00  0.00    -0.151 C  
ENDROOT
BRANCH   2   3
HETATM    3  S   UNL     1      -7.276   9.342  65.621  1.00  0.00    -0.093 S  
HETATM    4  O   UNL     1      -6.590   8.802  66.772  1.00  0.00    -0.059 OA 
HETATM    5  O   UNL     1      -6.630  10.246  64.694  1.00  0.00    -0.131 OA 
BRANCH   3   6
HETATM    6  N   UNL     1      -8.683  10.091  66.173  1.00  0.00    -0.138 N  
HETATM    7  C   UNL     1      -8.968  11.554  66.136  1.00  0.00    -0.197 C  
HETATM    8  C   UNL     1     -10.503  11.250  66.183  1.00  0.00    -0.254 C  
HETATM    9  C   UNL     1     -10.073   9.826  65.701  1.00  0.00    -0.212 C  
BRANCH   8  10
HETATM   10  C   UNL     1     -11.410  12.101  65.305  1.00  0.00    -0.386 C  
BRANCH  10  11
HETATM   11  C   UNL     1     -10.717  13.372  64.843  1.00  0.00    -0.369 C  
HETATM   12  H1  UNL     1      -9.678  15.280  64.149  1.00  0.00     0.000 HD 
HETATM   13  N   UNL     1     -10.143  14.427  64.458  1.00  0.00    -0.629 NA 
HETATM   14  H2  UNL     1     -10.253  14.663  63.472  1.00  0.00     0.000 HD 
ENDBRANCH  10  11
ENDBRANCH   8  10
BRANCH   8  15
HETATM   15  N   UNL     1     -10.950  11.294  67.569  1.00  0.00    -0.247 NA 
HETATM   16  N   UNL     1     -11.023  10.159  68.300  1.00  0.00    -0.255 NA 
HETATM   17  C   UNL     1     -11.375  12.393  68.267  1.00  0.00    -0.284 A  
HETATM   18  C   UNL     1     -11.508  10.562  69.476  1.00  0.00    -0.272 A  
HETATM   19  C   UNL     1     -11.756  11.946  69.513  1.00  0.00    -0.410 A  
BRANCH  19  20
HETATM   20  C   UNL     1     -12.247  12.796  70.565  1.00  0.00    -0.307 A  
HETATM   21  C   UNL     1     -11.925  14.153  70.619  1.00  0.00    -0.385 A  
HETATM   22  C   UNL     1     -11.104  15.074  69.907  1.00  0.00    -0.298 A  
HETATM   23  C   UNL     1     -11.268  16.314  70.486  1.00  0.00    -0.309 A  
HETATM   24  N   UNL     1     -12.138  16.175  71.536  1.00  0.00    -0.616 NA 
HETATM   25  H   UNL     1     -12.448  16.931  72.147  1.00  0.00     0.000 HD 
HETATM   26  C   UNL     1     -12.530  14.868  71.639  1.00  0.00    -0.331 A  
HETATM   27  N   UNL     1     -13.364  14.393  72.576  1.00  0.00    -0.448 NA 
HETATM   28  C   UNL     1     -13.570  13.072  72.436  1.00  0.00    -0.529 A  
HETATM   29  N   UNL     1     -13.062  12.251  71.499  1.00  0.00    -0.341 NA 
ENDBRANCH  19  20
ENDBRANCH   8  15
ENDBRANCH   3   6
ENDBRANCH   2   3
TORSDOF 6
ENDMDL
MODEL       74
REMARK 921   NORMALIZED FREE ENERGY PREDICTED BY IDOCK:   -5.60 KCAL/MOL
REMARK 922        TOTAL FREE ENERGY PREDICTED BY IDOCK:   -8.07 KCAL/MOL
REMARK 923 INTER-LIGAND FREE ENERGY PREDICTED BY IDOCK:   -7.31 KCAL/MOL
REMARK 924 INTRA-LIGAND FREE ENERGY PREDICTED BY IDOCK:   -0.76 KCAL/MOL
REMARK 927      BINDING AFFINITY PREDICTED BY RF-SCORE:    0.00 PKD
ROOT
HETATM    1  C   UNL     1      -8.773   5.103  73.899  1.00  0.00    -0.118 C  
HETATM    2  C   UNL     1      -8.526   6.000  72.704  1.00  0.00    -0.118 C  
ENDROOT
BRANCH   2   3
HETATM    3  S   UNL     1      -9.403   7.547  72.847  1.00  0.00    -0.203 S  
HETATM    4  O   UNL     1     -10.634   7.322  73.568  1.00  0.00    -0.368 OA 
HETATM    5  O   UNL     1      -8.464   8.580  73.229  1.00  0.00    -0.372 OA 
BRANCH   3   6
HETATM    6  N   UNL     1      -9.801   7.789  71.226  1.00  0.00    -0.171 N  
HETATM    7  C   UNL     1      -9.185   7.091  70.060  1.00  0.00    -0.148 C  
HETATM    8  C   UNL     1     -10.465   7.393  69.212  1.00  0.00    -0.220 C  
HETATM    9  C   UNL     1     -11.144   7.604  70.604  1.00  0.00    -0.257 C  
BRANCH   8  10
HETATM   10  C   UNL     1     -10.966   6.290  68.289  1.00  0.00    -0.408 C  
BRANCH  10  11
HETATM   11  C   UNL     1     -10.289   6.342  66.929  1.00  0.00    -0.244 C  
HETATM   12  H1  UNL     1      -9.273   6.419  64.888  1.00  0.00     0.000 HD 
HETATM   13  N   UNL     1      -9.727   6.385  65.800  1.00  0.00    -0.329 NA 
HETATM   14  H2  UNL     1     -10.161   6.997  65.108  1.00  0.00     0.000 HD 
ENDBRANCH  10  11
ENDBRANCH   8  10
BRANCH   8  15
HETATM   15  N   UNL     1     -10.256   8.625  68.464  1.00  0.00    -0.192 NA 
HETATM   16  N   UNL     1      -9.056   8.888  67.901  1.00  0.00    -0.139 NA 
HETATM   17  C   UNL     1     -11.155   9.641  68.275  1.00  0.00    -0.046 A  
HETATM   18  C   UNL     1      -9.211  10.095  67.355  1.00  0.00    -0.141 A  
HETATM   19  C   UNL     1     -10.498  10.621  67.563  1.00  0.00    -0.272 A  
BRANCH  19  20
HETATM   20  C   UNL     1     -11.100  11.857  67.137  1.00  0.00    -0.293 A  
HETATM   21  C   UNL     1     -11.426  12.088  65.799  1.00  0.00    -0.377 A  
HETATM   22  C   UNL     1     -11.273  11.431  64.545  1.00  0.00    -0.251 A  
HETATM   23  C   UNL     1     -11.863  12.224  63.583  1.00  0.00    -0.522 A  
HETATM   24  N   UNL     1     -12.346  13.346  64.204  1.00  0.00    -0.621 NA 
HETATM   25  H   UNL     1     -12.836  14.110  63.738  1.00  0.00     0.000 HD 
HETATM   26  C   UNL     1     -12.072  13.286  65.543  1.00  0.00    -0.435 A  
HETATM   27  N   UNL     1     -12.395  14.238  66.431  1.00  0.00    -0.424 NA 
HETATM   28  C   UNL     1     -12.002  13.912  67.675  1.00  0.00    -0.368 A  
HETATM   29  N   UNL     1     -11.375  12.792  68.077  1.00  0.00    -0.271 NA 
ENDBRANCH  19  20
ENDBRANCH   8  15
ENDBRANCH   3   6
ENDBRANCH   2   3
TORSDOF 6
ENDMDL
MODEL       75
REMARK 921   NORMALIZED FREE ENERGY PREDICTED BY IDOCK:   -5.59 KCAL/MOL
REMARK 922        TOTAL FREE ENERGY PREDICTED BY IDOCK:   -8.06 KCAL/MOL
REMARK 923 INTER-LIGAND FREE ENERGY PREDICTED BY IDOCK:   -7.45 KCAL/MOL
REMARK 924 INTRA-LIGAND FREE ENERGY PREDICTED BY IDOCK:   -0.61 KCAL/MOL
REMARK 927      BINDING AFFINITY PREDICTED BY RF-SCORE:    0.00 PKD
ROOT
HETATM    1  C   UNL     1      -5.800   8.890  66.875  1.00  0.00    -0.049 C  
HETATM    2  C   UNL     1      -7.284   8.647  66.696  1.00  0.00    -0.081 C  
ENDROOT
BRANCH   2   3
HETATM    3  S   UNL     1      -7.900   9.398  65.199  1.00  0.00    -0.115 S  
HETATM    4  O   UNL     1      -6.890  10.285  64.672  1.00  0.00    -0.128 OA 
HETATM    5  O   UNL     1      -8.526   8.375  64.390  1.00  0.00    -0.139 OA 
BRANCH   3   6
HETATM    6  N   UNL     1      -9.124  10.355  65.856  1.00  0.00    -0.159 N  
HETATM    7  C   UNL     1      -9.048  11.824  66.105  1.00  0.00    -0.185 C  
HETATM    8  C   UNL     1     -10.610  11.907  66.054  1.00  0.00    -0.265 C  
HETATM    9  C   UNL     1     -10.499  10.538  65.308  1.00  0.00    -0.162 C  
BRANCH   8  10
HETATM   10  C   UNL     1     -11.222  13.106  65.342  1.00  0.00    -0.315 C  
BRANCH  10  11
HETATM   11  C   UNL     1     -12.076  12.683  64.157  1.00  0.00    -0.439 C  
HETATM   12  H1  UNL     1     -13.358  12.049  62.380  1.00  0.00     0.000 HD 
HETATM   13  N   UNL     1     -12.785  12.333  63.175  1.00  0.00    -0.797 NA 
HETATM   14  H2  UNL     1     -13.606  11.767  63.395  1.00  0.00     0.000 HD 
ENDBRANCH  10  11
ENDBRANCH   8  10
BRANCH   8  15
HETATM   15  N   UNL     1     -11.132  11.800  67.409  1.00  0.00    -0.263 NA 
HETATM   16  N   UNL     1     -11.513  12.908  68.085  1.00  0.00    -0.292 NA 
HETATM   17  C   UNL     1     -11.261  10.662  68.160  1.00  0.00    -0.302 A  
HETATM   18  C   UNL     1     -11.881  12.447  69.281  1.00  0.00    -0.304 A  
HETATM   19  C   UNL     1     -11.738  11.053  69.392  1.00  0.00    -0.394 A  
BRANCH  19  20
HETATM   20  C   UNL     1     -12.033  10.149  70.472  1.00  0.00    -0.311 A  
HETATM   21  C   UNL     1     -11.021   9.475  71.158  1.00  0.00    -0.438 A  
HETATM   22  C   UNL     1      -9.607   9.325  71.077  1.00  0.00    -0.329 A  
HETATM   23  C   UNL     1      -9.213   8.506  72.114  1.00  0.00    -0.266 A  
HETATM   24  N   UNL     1     -10.337   8.135  72.805  1.00  0.00    -0.326 NA 
HETATM   25  H   UNL     1     -10.349   7.530  73.626  1.00  0.00     0.000 HD 
HETATM   26  C   UNL     1     -11.441   8.700  72.226  1.00  0.00    -0.353 A  
HETATM   27  N   UNL     1     -12.701   8.520  72.649  1.00  0.00    -0.278 NA 
HETATM   28  C   UNL     1     -13.582   9.194  71.891  1.00  0.00    -0.432 A  
HETATM   29  N   UNL     1     -13.328   9.987  70.834  1.00  0.00    -0.325 NA 
ENDBRANCH  19  20
ENDBRANCH   8  15
ENDBRANCH   3   6
ENDBRANCH   2   3
TORSDOF 6
ENDMDL
MODEL       76
REMARK 921   NORMALIZED FREE ENERGY PREDICTED BY IDOCK:   -5.58 KCAL/MOL
REMARK 922        TOTAL FREE ENERGY PREDICTED BY IDOCK:   -8.05 KCAL/MOL
REMARK 923 INTER-LIGAND FREE ENERGY PREDICTED BY IDOCK:   -7.23 KCAL/MOL
REMARK 924 INTRA-LIGAND FREE ENERGY PREDICTED BY IDOCK:   -0.82 KCAL/MOL
REMARK 927      BINDING AFFINITY PREDICTED BY RF-SCORE:    0.00 PKD
ROOT
HETATM    1  C   UNL     1      -7.434  11.805  67.124  1.00  0.00    -0.149 C  
HETATM    2  C   UNL     1      -6.154  11.041  66.860  1.00  0.00    -0.089 C  
ENDROOT
BRANCH   2   3
HETATM    3  S   UNL     1      -6.346   9.297  67.186  1.00  0.00    -0.063 S  
HETATM    4  O   UNL     1      -6.348   8.585  65.930  1.00  0.00    -0.051 OA 
HETATM    5  O   UNL     1      -5.473   8.929  68.279  1.00  0.00    -0.037 OA 
BRANCH   3   6
HETATM    6  N   UNL     1      -7.928   9.300  67.771  1.00  0.00    -0.100 N  
HETATM    7  C   UNL     1      -9.113   8.696  67.094  1.00  0.00    -0.133 C  
HETATM    8  C   UNL     1      -9.839   8.589  68.476  1.00  0.00    -0.173 C  
HETATM    9  C   UNL     1      -8.398   8.725  69.065  1.00  0.00    -0.129 C  
BRANCH   8  10
HETATM   10  C   UNL     1     -10.646   7.326  68.744  1.00  0.00    -0.202 C  
BRANCH  10  11
HETATM   11  C   UNL     1     -10.973   6.582  67.459  1.00  0.00    -0.359 C  
HETATM   12  H1  UNL     1     -11.463   5.466  65.531  1.00  0.00     0.000 HD 
HETATM   13  N   UNL     1     -11.245   5.965  66.393  1.00  0.00    -0.739 NA 
HETATM   14  H2  UNL     1     -12.220   5.995  66.095  1.00  0.00     0.000 HD 
ENDBRANCH  10  11
ENDBRANCH   8  10
BRANCH   8  15
HETATM   15  N   UNL     1     -10.669   9.771  68.666  1.00  0.00    -0.223 NA 
HETATM   16  N   UNL     1     -11.175  10.430  67.600  1.00  0.00    -0.348 NA 
HETATM   17  C   UNL     1     -10.995  10.372  69.853  1.00  0.00    -0.305 A  
HETATM   18  C   UNL     1     -11.824  11.464  68.136  1.00  0.00    -0.218 A  
HETATM   19  C   UNL     1     -11.741  11.487  69.540  1.00  0.00    -0.413 A  
BRANCH  19  20
HETATM   20  C   UNL     1     -12.302  12.388  70.511  1.00  0.00    -0.262 A  
HETATM   21  C   UNL     1     -12.103  13.767  70.428  1.00  0.00    -0.421 A  
HETATM   22  C   UNL     1     -11.372  14.684  69.620  1.00  0.00    -0.317 A  
HETATM   23  C   UNL     1     -11.645  15.956  70.078  1.00  0.00    -0.344 A  
HETATM   24  N   UNL     1     -12.494  15.843  71.148  1.00  0.00    -0.537 NA 
HETATM   25  H   UNL     1     -12.868  16.624  71.687  1.00  0.00     0.000 HD 
HETATM   26  C   UNL     1     -12.765  14.522  71.382  1.00  0.00    -0.337 A  
HETATM   27  N   UNL     1     -13.549  14.068  72.372  1.00  0.00    -0.512 NA 
HETATM   28  C   UNL     1     -13.635  12.727  72.364  1.00  0.00    -0.407 A  
HETATM   29  N   UNL     1     -13.060  11.866  71.504  1.00  0.00    -0.363 NA 
ENDBRANCH  19  20
ENDBRANCH   8  15
ENDBRANCH   3   6
ENDBRANCH   2   3
TORSDOF 6
ENDMDL
MODEL       77
REMARK 921   NORMALIZED FREE ENERGY PREDICTED BY IDOCK:   -5.58 KCAL/MOL
REMARK 922        TOTAL FREE ENERGY PREDICTED BY IDOCK:   -8.05 KCAL/MOL
REMARK 923 INTER-LIGAND FREE ENERGY PREDICTED BY IDOCK:   -7.34 KCAL/MOL
REMARK 924 INTRA-LIGAND FREE ENERGY PREDICTED BY IDOCK:   -0.71 KCAL/MOL
REMARK 927      BINDING AFFINITY PREDICTED BY RF-SCORE:    0.00 PKD
ROOT
HETATM    1  C   UNL     1      -7.437   6.174  66.052  1.00  0.00    -0.082 C  
HETATM    2  C   UNL     1      -8.806   6.219  66.699  1.00  0.00    -0.132 C  
ENDROOT
BRANCH   2   3
HETATM    3  S   UNL     1      -8.797   7.191  68.196  1.00  0.00    -0.125 S  
HETATM    4  O   UNL     1      -9.851   6.721  69.064  1.00  0.00    -0.147 OA 
HETATM    5  O   UNL     1      -7.431   7.334  68.649  1.00  0.00    -0.097 OA 
BRANCH   3   6
HETATM    6  N   UNL     1      -9.286   8.676  67.562  1.00  0.00    -0.135 N  
HETATM    7  C   UNL     1      -8.384   9.778  67.118  1.00  0.00    -0.121 C  
HETATM    8  C   UNL     1      -9.521  10.327  66.194  1.00  0.00    -0.181 C  
HETATM    9  C   UNL     1     -10.118   8.891  66.343  1.00  0.00    -0.263 C  
BRANCH   8  10
HETATM   10  C   UNL     1      -9.117  10.836  64.817  1.00  0.00    -0.222 C  
BRANCH  10  11
HETATM   11  C   UNL     1     -10.327  11.114  63.940  1.00  0.00    -0.380 C  
HETATM   12  H1  UNL     1     -12.143  11.530  62.624  1.00  0.00     0.000 HD 
HETATM   13  N   UNL     1     -11.331  11.344  63.212  1.00  0.00    -0.848 NA 
HETATM   14  H2  UNL     1     -12.205  11.535  63.704  1.00  0.00     0.000 HD 
ENDBRANCH  10  11
ENDBRANCH   8  10
BRANCH   8  15
HETATM   15  N   UNL     1     -10.262  11.353  66.916  1.00  0.00    -0.213 NA 
HETATM   16  N   UNL     1     -11.542  11.135  67.292  1.00  0.00    -0.511 NA 
HETATM   17  C   UNL     1      -9.826  12.607  67.252  1.00  0.00    -0.206 A  
HETATM   18  C   UNL     1     -11.910  12.279  67.870  1.00  0.00    -0.293 A  
HETATM   19  C   UNL     1     -10.883  13.241  67.868  1.00  0.00    -0.260 A  
BRANCH  19  20
HETATM   20  C   UNL     1     -10.832  14.578  68.396  1.00  0.00    -0.243 A  
HETATM   21  C   UNL     1     -11.413  14.902  69.624  1.00  0.00    -0.325 A  
HETATM   22  C   UNL     1     -12.201  14.262  70.623  1.00  0.00    -0.427 A  
HETATM   23  C   UNL     1     -12.422  15.176  71.630  1.00  0.00    -0.350 A  
HETATM   24  N   UNL     1     -11.819  16.352  71.269  1.00  0.00    -0.628 NA 
HETATM   25  H   UNL     1     -11.817  17.207  71.826  1.00  0.00     0.000 HD 
HETATM   26  C   UNL     1     -11.220  16.206  70.047  1.00  0.00    -0.357 A  
HETATM   27  N   UNL     1     -10.559  17.178  69.401  1.00  0.00    -0.268 NA 
HETATM   28  C   UNL     1     -10.075  16.752  68.222  1.00  0.00    -0.274 A  
HETATM   29  N   UNL     1     -10.175  15.523  67.682  1.00  0.00    -0.252 NA 
ENDBRANCH  19  20
ENDBRANCH   8  15
ENDBRANCH   3   6
ENDBRANCH   2   3
TORSDOF 6
ENDMDL
MODEL       78
REMARK 921   NORMALIZED FREE ENERGY PREDICTED BY IDOCK:   -5.54 KCAL/MOL
REMARK 922        TOTAL FREE ENERGY PREDICTED BY IDOCK:   -7.99 KCAL/MOL
REMARK 923 INTER-LIGAND FREE ENERGY PREDICTED BY IDOCK:   -7.43 KCAL/MOL
REMARK 924 INTRA-LIGAND FREE ENERGY PREDICTED BY IDOCK:   -0.56 KCAL/MOL
REMARK 927      BINDING AFFINITY PREDICTED BY RF-SCORE:    0.00 PKD
ROOT
HETATM    1  C   UNL     1     -11.330  15.413  64.488  1.00  0.00    -0.321 C  
HETATM    2  C   UNL     1     -11.512  14.058  63.837  1.00  0.00     0.050 C  
ENDROOT
BRANCH   2   3
HETATM    3  S   UNL     1     -12.683  13.048  64.728  1.00  0.00    -0.268 S  
HETATM    4  O   UNL     1     -13.558  13.910  65.489  1.00  0.00    -0.579 OA 
HETATM    5  O   UNL     1     -13.192  12.029  63.836  1.00  0.00    -0.705 OA 
BRANCH   3   6
HETATM    6  N   UNL     1     -11.632  12.302  65.816  1.00  0.00    -0.380 N  
HETATM    7  C   UNL     1     -10.237  11.862  65.523  1.00  0.00    -0.254 C  
HETATM    8  C   UNL     1      -9.900  11.939  67.050  1.00  0.00    -0.192 C  
HETATM    9  C   UNL     1     -11.165  12.854  67.120  1.00  0.00    -0.289 C  
BRANCH   8  10
HETATM   10  C   UNL     1      -8.540  12.503  67.436  1.00  0.00    -0.187 C  
BRANCH  10  11
HETATM   11  C   UNL     1      -8.667  13.688  68.379  1.00  0.00    -0.153 C  
HETATM   12  H1  UNL     1      -8.858  15.467  69.794  1.00  0.00     0.000 HD 
HETATM   13  N   UNL     1      -8.772  14.672  69.162  1.00  0.00    -0.362 NA 
HETATM   14  H2  UNL     1      -7.924  14.936  69.664  1.00  0.00     0.000 HD 
ENDBRANCH  10  11
ENDBRANCH   8  10
BRANCH   8  15
HETATM   15  N   UNL     1     -10.090  10.621  67.641  1.00  0.00    -0.172 NA 
HETATM   16  N   UNL     1      -9.727   9.509  66.965  1.00  0.00    -0.167 NA 
HETATM   17  C   UNL     1     -10.664  10.332  68.851  1.00  0.00    -0.227 A  
HETATM   18  C   UNL     1     -10.086   8.508  67.770  1.00  0.00    -0.211 A  
HETATM   19  C   UNL     1     -10.685   8.959  68.959  1.00  0.00    -0.148 A  
BRANCH  19  20
HETATM   20  C   UNL     1     -11.191   8.242  70.100  1.00  0.00    -0.132 A  
HETATM   21  C   UNL     1     -12.121   8.814  70.969  1.00  0.00    -0.262 A  
HETATM   22  C   UNL     1     -12.767  10.071  71.149  1.00  0.00    -0.484 A  
HETATM   23  C   UNL     1     -13.622   9.952  72.224  1.00  0.00    -0.242 A  
HETATM   24  N   UNL     1     -13.501   8.679  72.717  1.00  0.00    -0.701 NA 
HETATM   25  H   UNL     1     -14.017   8.306  73.513  1.00  0.00     0.000 HD 
HETATM   26  C   UNL     1     -12.582   7.985  71.977  1.00  0.00    -0.312 A  
HETATM   27  N   UNL     1     -12.217   6.715  72.212  1.00  0.00    -0.207 NA 
HETATM   28  C   UNL     1     -11.296   6.291  71.329  1.00  0.00    -0.297 A  
HETATM   29  N   UNL     1     -10.761   6.973  70.300  1.00  0.00    -0.233 NA 
ENDBRANCH  19  20
ENDBRANCH   8  15
ENDBRANCH   3   6
ENDBRANCH   2   3
TORSDOF 6
ENDMDL
MODEL       79
REMARK 921   NORMALIZED FREE ENERGY PREDICTED BY IDOCK:   -5.53 KCAL/MOL
REMARK 922        TOTAL FREE ENERGY PREDICTED BY IDOCK:   -7.97 KCAL/MOL
REMARK 923 INTER-LIGAND FREE ENERGY PREDICTED BY IDOCK:   -6.92 KCAL/MOL
REMARK 924 INTRA-LIGAND FREE ENERGY PREDICTED BY IDOCK:   -1.05 KCAL/MOL
REMARK 927      BINDING AFFINITY PREDICTED BY RF-SCORE:    0.00 PKD
ROOT
HETATM    1  C   UNL     1     -12.410  10.535  70.265  1.00  0.00    -0.377 C  
HETATM    2  C   UNL     1     -12.654   9.980  71.653  1.00  0.00    -0.427 C  
ENDROOT
BRANCH   2   3
HETATM    3  S   UNL     1     -12.266   8.240  71.746  1.00  0.00    -0.345 S  
HETATM    4  O   UNL     1     -11.548   7.987  72.973  1.00  0.00    -0.346 OA 
HETATM    5  O   UNL     1     -13.438   7.482  71.369  1.00  0.00    -0.359 OA 
BRANCH   3   6
HETATM    6  N   UNL     1     -11.157   8.138  70.479  1.00  0.00    -0.255 N  
HETATM    7  C   UNL     1      -9.678   8.000  70.618  1.00  0.00    -0.173 C  
HETATM    8  C   UNL     1      -9.608   7.374  69.186  1.00  0.00    -0.156 C  
HETATM    9  C   UNL     1     -11.133   7.108  69.401  1.00  0.00    -0.110 C  
BRANCH   8  10
HETATM   10  C   UNL     1      -8.660   6.201  68.983  1.00  0.00    -0.121 C  
BRANCH  10  11
HETATM   11  C   UNL     1      -8.467   5.402  70.262  1.00  0.00    -0.119 C  
HETATM   12  H1  UNL     1      -8.179   4.204  72.181  1.00  0.00     0.000 HD 
HETATM   13  N   UNL     1      -8.307   4.739  71.323  1.00  0.00    -0.104 NA 
HETATM   14  H2  UNL     1      -7.394   4.299  71.442  1.00  0.00     0.000 HD 
ENDBRANCH  10  11
ENDBRANCH   8  10
BRANCH   8  15
HETATM   15  N   UNL     1      -9.323   8.430  68.224  1.00  0.00    -0.135 NA 
HETATM   16  N   UNL     1      -8.140   9.083  68.255  1.00  0.00    -0.108 NA 
HETATM   17  C   UNL     1     -10.160   8.914  67.253  1.00  0.00    -0.239 A  
HETATM   18  C   UNL     1      -8.247   9.994  67.287  1.00  0.00    -0.117 A  
HETATM   19  C   UNL     1      -9.489   9.944  66.631  1.00  0.00    -0.220 A  
BRANCH  19  20
HETATM   20  C   UNL     1     -10.016  10.709  65.532  1.00  0.00    -0.272 A  
HETATM   21  C   UNL     1     -10.906  11.764  65.736  1.00  0.00    -0.341 A  
HETATM   22  C   UNL     1     -11.604  12.364  66.823  1.00  0.00    -0.444 A  
HETATM   23  C   UNL     1     -12.328  13.424  66.322  1.00  0.00    -0.349 A  
HETATM   24  N   UNL     1     -12.115  13.475  64.969  1.00  0.00    -0.376 NA 
HETATM   25  H   UNL     1     -12.523  14.162  64.335  1.00  0.00     0.000 HD 
HETATM   26  C   UNL     1     -11.270  12.464  64.598  1.00  0.00    -0.312 A  
HETATM   27  N   UNL     1     -10.876  12.224  63.339  1.00  0.00    -0.445 NA 
HETATM   28  C   UNL     1     -10.048  11.167  63.270  1.00  0.00    -0.380 A  
HETATM   29  N   UNL     1      -9.602  10.398  64.280  1.00  0.00    -0.294 NA 
ENDBRANCH  19  20
ENDBRANCH   8  15
ENDBRANCH   3   6
ENDBRANCH   2   3
TORSDOF 6
ENDMDL
MODEL       80
REMARK 921   NORMALIZED FREE ENERGY PREDICTED BY IDOCK:   -5.52 KCAL/MOL
REMARK 922        TOTAL FREE ENERGY PREDICTED BY IDOCK:   -7.97 KCAL/MOL
REMARK 923 INTER-LIGAND FREE ENERGY PREDICTED BY IDOCK:   -7.43 KCAL/MOL
REMARK 924 INTRA-LIGAND FREE ENERGY PREDICTED BY IDOCK:   -0.54 KCAL/MOL
REMARK 927      BINDING AFFINITY PREDICTED BY RF-SCORE:    0.00 PKD
ROOT
HETATM    1  C   UNL     1      -7.493  10.695  69.564  1.00  0.00    -0.132 C  
HETATM    2  C   UNL     1      -7.194   9.554  70.513  1.00  0.00    -0.135 C  
ENDROOT
BRANCH   2   3
HETATM    3  S   UNL     1      -8.499   8.337  70.515  1.00  0.00    -0.135 S  
HETATM    4  O   UNL     1      -7.954   7.069  70.941  1.00  0.00    -0.096 OA 
HETATM    5  O   UNL     1      -9.674   8.916  71.129  1.00  0.00    -0.223 OA 
BRANCH   3   6
HETATM    6  N   UNL     1      -8.783   8.235  68.855  1.00  0.00    -0.136 N  
HETATM    7  C   UNL     1      -7.789   7.826  67.821  1.00  0.00    -0.123 C  
HETATM    8  C   UNL     1      -8.960   7.418  66.866  1.00  0.00    -0.135 C  
HETATM    9  C   UNL     1      -9.807   7.388  68.180  1.00  0.00    -0.156 C  
BRANCH   8  10
HETATM   10  C   UNL     1      -8.785   6.143  66.053  1.00  0.00    -0.157 C  
BRANCH  10  11
HETATM   11  C   UNL     1     -10.100   5.402  65.874  1.00  0.00    -0.002 C  
HETATM   12  H1  UNL     1     -12.074   4.291  65.605  1.00  0.00     0.000 HD 
HETATM   13  N   UNL     1     -11.192   4.788  65.726  1.00  0.00    -0.851 NA 
HETATM   14  H2  UNL     1     -11.557   4.319  66.555  1.00  0.00     0.000 HD 
ENDBRANCH  10  11
ENDBRANCH   8  10
BRANCH   8  15
HETATM   15  N   UNL     1      -9.268   8.541  65.991  1.00  0.00    -0.206 NA 
HETATM   16  N   UNL     1      -8.486   8.808  64.921  1.00  0.00    -0.173 NA 
HETATM   17  C   UNL     1     -10.283   9.449  66.135  1.00  0.00    -0.194 A  
HETATM   18  C   UNL     1      -9.025   9.908  64.392  1.00  0.00    -0.239 A  
HETATM   19  C   UNL     1     -10.145  10.361  65.111  1.00  0.00    -0.379 A  
BRANCH  19  20
HETATM   20  C   UNL     1     -11.031  11.473  64.890  1.00  0.00    -0.254 A  
HETATM   21  C   UNL     1     -11.395  12.335  65.925  1.00  0.00    -0.406 A  
HETATM   22  C   UNL     1     -11.195  12.443  67.331  1.00  0.00    -0.351 A  
HETATM   23  C   UNL     1     -11.832  13.589  67.758  1.00  0.00    -0.362 A  
HETATM   24  N   UNL     1     -12.430  14.166  66.668  1.00  0.00    -0.548 NA 
HETATM   25  H   UNL     1     -12.972  15.030  66.684  1.00  0.00     0.000 HD 
HETATM   26  C   UNL     1     -12.189  13.408  65.555  1.00  0.00    -0.455 A  
HETATM   27  N   UNL     1     -12.651  13.687  64.327  1.00  0.00    -0.664 NA 
HETATM   28  C   UNL     1     -12.259  12.769  63.427  1.00  0.00    -0.504 A  
HETATM   29  N   UNL     1     -11.488  11.685  63.633  1.00  0.00    -0.416 NA 
ENDBRANCH  19  20
ENDBRANCH   8  15
ENDBRANCH   3   6
ENDBRANCH   2   3
TORSDOF 6
ENDMDL
MODEL       81
REMARK 921   NORMALIZED FREE ENERGY PREDICTED BY IDOCK:   -5.52 KCAL/MOL
REMARK 922        TOTAL FREE ENERGY PREDICTED BY IDOCK:   -7.97 KCAL/MOL
REMARK 923 INTER-LIGAND FREE ENERGY PREDICTED BY IDOCK:   -7.17 KCAL/MOL
REMARK 924 INTRA-LIGAND FREE ENERGY PREDICTED BY IDOCK:   -0.79 KCAL/MOL
REMARK 927      BINDING AFFINITY PREDICTED BY RF-SCORE:    0.00 PKD
ROOT
HETATM    1  C   UNL     1      -7.887   8.159  67.623  1.00  0.00    -0.114 C  
HETATM    2  C   UNL     1      -8.172   9.437  66.862  1.00  0.00    -0.116 C  
ENDROOT
BRANCH   2   3
HETATM    3  S   UNL     1      -9.891   9.560  66.398  1.00  0.00    -0.267 S  
HETATM    4  O   UNL     1      -9.991   9.496  64.958  1.00  0.00    -0.138 OA 
HETATM    5  O   UNL     1     -10.669   8.701  67.263  1.00  0.00    -0.271 OA 
BRANCH   3   6
HETATM    6  N   UNL     1     -10.186  11.156  66.857  1.00  0.00    -0.214 N  
HETATM    7  C   UNL     1     -11.526  11.806  66.951  1.00  0.00    -0.293 C  
HETATM    8  C   UNL     1     -10.940  12.851  67.958  1.00  0.00    -0.247 C  
HETATM    9  C   UNL     1      -9.806  11.792  68.151  1.00  0.00    -0.190 C  
BRANCH   8  10
HETATM   10  C   UNL     1     -11.813  13.245  69.142  1.00  0.00    -0.378 C  
BRANCH  10  11
HETATM   11  C   UNL     1     -11.907  12.129  70.170  1.00  0.00    -0.287 C  
HETATM   12  H1  UNL     1     -12.048  10.454  71.712  1.00  0.00     0.000 HD 
HETATM   13  N   UNL     1     -11.985  11.203  71.023  1.00  0.00    -0.283 NA 
HETATM   14  H2  UNL     1     -11.730  11.454  71.979  1.00  0.00     0.000 HD 
ENDBRANCH  10  11
ENDBRANCH   8  10
BRANCH   8  15
HETATM   15  N   UNL     1     -10.523  14.035  67.219  1.00  0.00    -0.267 NA 
HETATM   16  N   UNL     1     -11.091  14.335  66.030  1.00  0.00    -0.314 NA 
HETATM   17  C   UNL     1      -9.539  14.923  67.565  1.00  0.00    -0.204 A  
HETATM   18  C   UNL     1     -10.444  15.429  65.628  1.00  0.00    -0.372 A  
HETATM   19  C   UNL     1      -9.456  15.840  66.540  1.00  0.00    -0.298 A  
BRANCH  19  20
HETATM   20  C   UNL     1      -8.553  16.960  66.524  1.00  0.00    -0.270 A  
HETATM   21  C   UNL     1      -9.020  18.275  66.560  1.00  0.00    -0.285 A  
HETATM   22  C   UNL     1     -10.271  18.954  66.540  1.00  0.00    -0.470 A  
HETATM   23  C   UNL     1     -10.015  20.306  66.630  1.00  0.00    -0.426 A  
HETATM   24  N   UNL     1      -8.656  20.473  66.679  1.00  0.00    -0.549 NA 
HETATM   25  H   UNL     1      -8.176  21.370  66.751  1.00  0.00     0.000 HD 
HETATM   26  C   UNL     1      -8.040  19.252  66.620  1.00  0.00    -0.289 A  
HETATM   27  N   UNL     1      -6.711  19.067  66.627  1.00  0.00    -0.191 NA 
HETATM   28  C   UNL     1      -6.390  17.764  66.557  1.00  0.00    -0.203 A  
HETATM   29  N   UNL     1      -7.223  16.708  66.501  1.00  0.00    -0.239 NA 
ENDBRANCH  19  20
ENDBRANCH   8  15
ENDBRANCH   3   6
ENDBRANCH   2   3
TORSDOF 6
ENDMDL
MODEL       82
REMARK 921   NORMALIZED FREE ENERGY PREDICTED BY IDOCK:   -5.51 KCAL/MOL
REMARK 922        TOTAL FREE ENERGY PREDICTED BY IDOCK:   -7.95 KCAL/MOL
REMARK 923 INTER-LIGAND FREE ENERGY PREDICTED BY IDOCK:   -7.09 KCAL/MOL
REMARK 924 INTRA-LIGAND FREE ENERGY PREDICTED BY IDOCK:   -0.86 KCAL/MOL
REMARK 927      BINDING AFFINITY PREDICTED BY RF-SCORE:    0.00 PKD
ROOT
HETATM    1  C   UNL     1      -8.190   6.056  65.359  1.00  0.00    -0.141 C  
HETATM    2  C   UNL     1      -7.705   5.405  66.638  1.00  0.00    -0.100 C  
ENDROOT
BRANCH   2   3
HETATM    3  S   UNL     1      -9.058   5.001  67.728  1.00  0.00    -0.117 S  
HETATM    4  O   UNL     1     -10.200   4.614  66.932  1.00  0.00    -0.213 OA 
HETATM    5  O   UNL     1      -8.556   4.177  68.806  1.00  0.00    -0.085 OA 
BRANCH   3   6
HETATM    6  N   UNL     1      -9.373   6.534  68.357  1.00  0.00    -0.123 N  
HETATM    7  C   UNL     1     -10.668   6.992  68.939  1.00  0.00    -0.200 C  
HETATM    8  C   UNL     1      -9.906   8.093  69.749  1.00  0.00    -0.187 C  
HETATM    9  C   UNL     1      -8.653   7.198  69.481  1.00  0.00    -0.134 C  
BRANCH   8  10
HETATM   10  C   UNL     1     -10.359   8.346  71.181  1.00  0.00    -0.264 C  
BRANCH  10  11
HETATM   11  C   UNL     1     -11.786   7.875  71.412  1.00  0.00    -0.299 C  
HETATM   12  H1  UNL     1     -13.927   7.169  71.759  1.00  0.00     0.000 HD 
HETATM   13  N   UNL     1     -12.970   7.485  71.604  1.00  0.00    -0.352 NA 
HETATM   14  H2  UNL     1     -13.581   8.137  72.098  1.00  0.00     0.000 HD 
ENDBRANCH  10  11
ENDBRANCH   8  10
BRANCH   8  15
HETATM   15  N   UNL     1      -9.919   9.334  68.986  1.00  0.00    -0.176 NA 
HETATM   16  N   UNL     1      -9.128  10.369  69.349  1.00  0.00    -0.184 NA 
HETATM   17  C   UNL     1     -10.706   9.633  67.905  1.00  0.00    -0.247 A  
HETATM   18  C   UNL     1      -9.434  11.331  68.477  1.00  0.00    -0.191 A  
HETATM   19  C   UNL     1     -10.419  10.934  67.556  1.00  0.00    -0.252 A  
BRANCH  19  20
HETATM   20  C   UNL     1     -11.020  11.629  66.448  1.00  0.00    -0.295 A  
HETATM   21  C   UNL     1     -10.649  11.360  65.130  1.00  0.00    -0.352 A  
HETATM   22  C   UNL     1      -9.693  10.559  64.442  1.00  0.00    -0.388 A  
HETATM   23  C   UNL     1      -9.885  10.747  63.090  1.00  0.00    -0.334 A  
HETATM   24  N   UNL     1     -10.904  11.650  62.932  1.00  0.00    -0.647 NA 
HETATM   25  H   UNL     1     -11.266  11.979  62.037  1.00  0.00     0.000 HD 
HETATM   26  C   UNL     1     -11.364  12.043  64.160  1.00  0.00    -0.382 A  
HETATM   27  N   UNL     1     -12.346  12.936  64.356  1.00  0.00    -0.518 NA 
HETATM   28  C   UNL     1     -12.588  13.130  65.664  1.00  0.00    -0.351 A  
HETATM   29  N   UNL     1     -11.986  12.540  66.713  1.00  0.00    -0.559 NA 
ENDBRANCH  19  20
ENDBRANCH   8  15
ENDBRANCH   3   6
ENDBRANCH   2   3
TORSDOF 6
ENDMDL
MODEL       83
REMARK 921   NORMALIZED FREE ENERGY PREDICTED BY IDOCK:   -5.51 KCAL/MOL
REMARK 922        TOTAL FREE ENERGY PREDICTED BY IDOCK:   -7.95 KCAL/MOL
REMARK 923 INTER-LIGAND FREE ENERGY PREDICTED BY IDOCK:   -7.29 KCAL/MOL
REMARK 924 INTRA-LIGAND FREE ENERGY PREDICTED BY IDOCK:   -0.66 KCAL/MOL
REMARK 927      BINDING AFFINITY PREDICTED BY RF-SCORE:    0.00 PKD
ROOT
HETATM    1  C   UNL     1     -10.312  17.342  68.013  1.00  0.00    -0.353 C  
HETATM    2  C   UNL     1     -11.386  16.275  68.049  1.00  0.00    -0.205 C  
ENDROOT
BRANCH   2   3
HETATM    3  S   UNL     1     -11.448  15.453  69.631  1.00  0.00    -0.348 S  
HETATM    4  O   UNL     1     -10.425  16.008  70.486  1.00  0.00    -0.141 OA 
HETATM    5  O   UNL     1     -12.830  15.351  70.048  1.00  0.00    -0.238 OA 
BRANCH   3   6
HETATM    6  N   UNL     1     -10.938  13.915  69.162  1.00  0.00    -0.241 N  
HETATM    7  C   UNL     1     -11.824  12.784  68.758  1.00  0.00    -0.307 C  
HETATM    8  C   UNL     1     -10.637  12.148  67.961  1.00  0.00    -0.210 C  
HETATM    9  C   UNL     1     -10.033  13.588  68.023  1.00  0.00    -0.248 C  
BRANCH   8  10
HETATM   10  C   UNL     1     -10.958  11.524  66.610  1.00  0.00    -0.349 C  
BRANCH  10  11
HETATM   11  C   UNL     1     -10.425  12.361  65.459  1.00  0.00    -0.275 C  
HETATM   12  H1  UNL     1      -9.624  13.619  63.733  1.00  0.00     0.000 HD 
HETATM   13  N   UNL     1      -9.983  13.057  64.505  1.00  0.00    -0.609 NA 
HETATM   14  H2  UNL     1     -10.461  13.943  64.337  1.00  0.00     0.000 HD 
ENDBRANCH  10  11
ENDBRANCH   8  10
BRANCH   8  15
HETATM   15  N   UNL     1      -9.957  11.185  68.816  1.00  0.00    -0.201 NA 
HETATM   16  N   UNL     1      -8.692  10.796  68.539  1.00  0.00    -0.142 NA 
HETATM   17  C   UNL     1     -10.471  10.543  69.912  1.00  0.00    -0.164 A  
HETATM   18  C   UNL     1      -8.417   9.891  69.479  1.00  0.00    -0.176 A  
HETATM   19  C   UNL     1      -9.492   9.684  70.361  1.00  0.00    -0.280 A  
BRANCH  19  20
HETATM   20  C   UNL     1      -9.625   8.834  71.515  1.00  0.00    -0.284 A  
HETATM   21  C   UNL     1     -10.714   7.975  71.668  1.00  0.00    -0.284 A  
HETATM   22  C   UNL     1     -11.931   7.678  70.990  1.00  0.00    -0.296 A  
HETATM   23  C   UNL     1     -12.563   6.670  71.687  1.00  0.00    -0.264 A  
HETATM   24  N   UNL     1     -11.788   6.362  72.775  1.00  0.00    -0.499 NA 
HETATM   25  H   UNL     1     -12.007   5.649  73.470  1.00  0.00     0.000 HD 
HETATM   26  C   UNL     1     -10.674   7.158  72.786  1.00  0.00    -0.288 A  
HETATM   27  N   UNL     1      -9.721   7.122  73.729  1.00  0.00    -0.261 NA 
HETATM   28  C   UNL     1      -8.746   8.015  73.486  1.00  0.00    -0.266 A  
HETATM   29  N   UNL     1      -8.644   8.866  72.448  1.00  0.00    -0.363 NA 
ENDBRANCH  19  20
ENDBRANCH   8  15
ENDBRANCH   3   6
ENDBRANCH   2   3
TORSDOF 6
ENDMDL
MODEL       84
REMARK 921   NORMALIZED FREE ENERGY PREDICTED BY IDOCK:   -5.50 KCAL/MOL
REMARK 922        TOTAL FREE ENERGY PREDICTED BY IDOCK:   -7.94 KCAL/MOL
REMARK 923 INTER-LIGAND FREE ENERGY PREDICTED BY IDOCK:   -7.54 KCAL/MOL
REMARK 924 INTRA-LIGAND FREE ENERGY PREDICTED BY IDOCK:   -0.39 KCAL/MOL
REMARK 927      BINDING AFFINITY PREDICTED BY RF-SCORE:    0.00 PKD
ROOT
HETATM    1  C   UNL     1      -6.131  19.238  69.079  1.00  0.00    -0.277 C  
HETATM    2  C   UNL     1      -6.286  18.946  67.601  1.00  0.00    -0.205 C  
ENDROOT
BRANCH   2   3
HETATM    3  S   UNL     1      -7.993  19.030  67.087  1.00  0.00    -0.260 S  
HETATM    4  O   UNL     1      -8.703  19.926  67.969  1.00  0.00    -0.310 OA 
HETATM    5  O   UNL     1      -8.039  19.168  65.648  1.00  0.00    -0.413 OA 
BRANCH   3   6
HETATM    6  N   UNL     1      -8.472  17.458  67.467  1.00  0.00    -0.212 N  
HETATM    7  C   UNL     1      -8.600  16.324  66.506  1.00  0.00    -0.297 C  
HETATM    8  C   UNL     1      -8.426  15.312  67.687  1.00  0.00    -0.161 C  
HETATM    9  C   UNL     1      -7.810  16.537  68.436  1.00  0.00    -0.187 C  
BRANCH   8  10
HETATM   10  C   UNL     1      -7.571  14.079  67.428  1.00  0.00    -0.167 C  
BRANCH  10  11
HETATM   11  C   UNL     1      -8.418  12.826  67.277  1.00  0.00    -0.194 C  
HETATM   12  H1  UNL     1      -9.690  10.946  67.050  1.00  0.00     0.000 HD 
HETATM   13  N   UNL     1      -9.121  11.786  67.152  1.00  0.00    -0.170 NA 
HETATM   14  H2  UNL     1      -9.379  11.314  68.019  1.00  0.00     0.000 HD 
ENDBRANCH  10  11
ENDBRANCH   8  10
BRANCH   8  15
HETATM   15  N   UNL     1      -9.743  14.923  68.172  1.00  0.00    -0.211 NA 
HETATM   16  N   UNL     1     -10.816  14.970  67.351  1.00  0.00    -0.298 NA 
HETATM   17  C   UNL     1     -10.075  14.532  69.442  1.00  0.00     0.005 A  
HETATM   18  C   UNL     1     -11.836  14.603  68.129  1.00  0.00    -0.298 A  
HETATM   19  C   UNL     1     -11.437  14.325  69.449  1.00  0.00    -0.337 A  
BRANCH  19  20
HETATM   20  C   UNL     1     -12.186  13.882  70.594  1.00  0.00    -0.373 A  
HETATM   21  C   UNL     1     -12.426  14.724  71.681  1.00  0.00    -0.398 A  
HETATM   22  C   UNL     1     -12.065  16.035  72.104  1.00  0.00    -0.611 A  
HETATM   23  C   UNL     1     -12.685  16.272  73.311  1.00  0.00    -0.423 A  
HETATM   24  N   UNL     1     -13.390  15.145  73.648  1.00  0.00    -0.581 NA 
HETATM   25  H   UNL     1     -13.952  15.034  74.493  1.00  0.00     0.000 HD 
HETATM   26  C   UNL     1     -13.228  14.193  72.679  1.00  0.00    -0.518 A  
HETATM   27  N   UNL     1     -13.771  12.967  72.715  1.00  0.00    -0.510 NA 
HETATM   28  C   UNL     1     -13.441  12.245  71.631  1.00  0.00    -0.005 A  
HETATM   29  N   UNL     1     -12.683  12.622  70.584  1.00  0.00    -0.132 NA 
ENDBRANCH  19  20
ENDBRANCH   8  15
ENDBRANCH   3   6
ENDBRANCH   2   3
TORSDOF 6
ENDMDL
MODEL       85
REMARK 921   NORMALIZED FREE ENERGY PREDICTED BY IDOCK:   -5.50 KCAL/MOL
REMARK 922        TOTAL FREE ENERGY PREDICTED BY IDOCK:   -7.94 KCAL/MOL
REMARK 923 INTER-LIGAND FREE ENERGY PREDICTED BY IDOCK:   -7.08 KCAL/MOL
REMARK 924 INTRA-LIGAND FREE ENERGY PREDICTED BY IDOCK:   -0.86 KCAL/MOL
REMARK 927      BINDING AFFINITY PREDICTED BY RF-SCORE:    0.00 PKD
ROOT
HETATM    1  C   UNL     1     -10.406  19.392  68.427  1.00  0.00    -0.461 C  
HETATM    2  C   UNL     1     -10.483  18.396  67.289  1.00  0.00    -0.405 C  
ENDROOT
BRANCH   2   3
HETATM    3  S   UNL     1      -9.055  17.326  67.248  1.00  0.00    -0.231 S  
HETATM    4  O   UNL     1      -8.584  17.228  65.887  1.00  0.00    -0.528 OA 
HETATM    5  O   UNL     1      -8.179  17.679  68.344  1.00  0.00    -0.271 OA 
BRANCH   3   6
HETATM    6  N   UNL     1      -9.798  15.862  67.635  1.00  0.00    -0.232 N  
HETATM    7  C   UNL     1      -9.384  14.931  68.725  1.00  0.00    -0.203 C  
HETATM    8  C   UNL     1     -10.832  14.338  68.758  1.00  0.00    -0.253 C  
HETATM    9  C   UNL     1     -11.221  15.666  68.033  1.00  0.00    -0.339 C  
BRANCH   8  10
HETATM   10  C   UNL     1     -11.425  14.023  70.125  1.00  0.00    -0.199 C  
BRANCH  10  11
HETATM   11  C   UNL     1     -12.691  14.822  70.388  1.00  0.00    -0.316 C  
HETATM   12  H1  UNL     1     -14.590  16.022  70.783  1.00  0.00     0.000 HD 
HETATM   13  N   UNL     1     -13.741  15.485  70.606  1.00  0.00    -0.846 NA 
HETATM   14  H2  UNL     1     -14.321  15.686  69.791  1.00  0.00     0.000 HD 
ENDBRANCH  10  11
ENDBRANCH   8  10
BRANCH   8  15
HETATM   15  N   UNL     1     -10.878  13.161  67.901  1.00  0.00    -0.237 NA 
HETATM   16  N   UNL     1     -11.760  13.094  66.878  1.00  0.00    -0.367 NA 
HETATM   17  C   UNL     1     -10.132  12.018  68.022  1.00  0.00    -0.198 A  
HETATM   18  C   UNL     1     -11.559  11.883  66.356  1.00  0.00    -0.243 A  
HETATM   19  C   UNL     1     -10.561  11.160  67.033  1.00  0.00    -0.295 A  
BRANCH  19  20
HETATM   20  C   UNL     1     -10.013   9.850  66.801  1.00  0.00    -0.214 A  
HETATM   21  C   UNL     1      -8.763   9.677  66.205  1.00  0.00    -0.152 A  
HETATM   22  C   UNL     1      -7.750  10.487  65.615  1.00  0.00    -0.139 A  
HETATM   23  C   UNL     1      -6.721   9.655  65.229  1.00  0.00    -0.088 A  
HETATM   24  N   UNL     1      -7.082   8.369  65.539  1.00  0.00    -0.073 NA 
HETATM   25  H   UNL     1      -6.511   7.541  65.369  1.00  0.00     0.000 HD 
HETATM   26  C   UNL     1      -8.324   8.366  66.114  1.00  0.00    -0.125 A  
HETATM   27  N   UNL     1      -8.975   7.265  66.518  1.00  0.00    -0.146 NA 
HETATM   28  C   UNL     1     -10.175   7.561  67.044  1.00  0.00    -0.298 A  
HETATM   29  N   UNL     1     -10.732   8.776  67.204  1.00  0.00    -0.221 NA 
ENDBRANCH  19  20
ENDBRANCH   8  15
ENDBRANCH   3   6
ENDBRANCH   2   3
TORSDOF 6
ENDMDL
MODEL       86
REMARK 921   NORMALIZED FREE ENERGY PREDICTED BY IDOCK:   -5.49 KCAL/MOL
REMARK 922        TOTAL FREE ENERGY PREDICTED BY IDOCK:   -7.93 KCAL/MOL
REMARK 923 INTER-LIGAND FREE ENERGY PREDICTED BY IDOCK:   -7.47 KCAL/MOL
REMARK 924 INTRA-LIGAND FREE ENERGY PREDICTED BY IDOCK:   -0.46 KCAL/MOL
REMARK 927      BINDING AFFINITY PREDICTED BY RF-SCORE:    0.00 PKD
ROOT
HETATM    1  C   UNL     1      -7.194   7.403  74.353  1.00  0.00    -0.128 C  
HETATM    2  C   UNL     1      -8.035   8.148  73.338  1.00  0.00    -0.183 C  
ENDROOT
BRANCH   2   3
HETATM    3  S   UNL     1      -7.188   8.322  71.777  1.00  0.00    -0.094 S  
HETATM    4  O   UNL     1      -6.562   9.622  71.728  1.00  0.00    -0.300 OA 
HETATM    5  O   UNL     1      -6.457   7.103  71.507  1.00  0.00    -0.041 OA 
BRANCH   3   6
HETATM    6  N   UNL     1      -8.521   8.361  70.744  1.00  0.00    -0.129 N  
HETATM    7  C   UNL     1      -8.925   7.283  69.794  1.00  0.00    -0.142 C  
HETATM    8  C   UNL     1     -10.393   7.825  69.814  1.00  0.00    -0.221 C  
HETATM    9  C   UNL     1      -9.949   8.520  71.142  1.00  0.00    -0.207 C  
BRANCH   8  10
HETATM   10  C   UNL     1     -11.516   6.797  69.839  1.00  0.00    -0.355 C  
BRANCH  10  11
HETATM   11  C   UNL     1     -12.196   6.738  71.197  1.00  0.00    -0.360 C  
HETATM   12  H1  UNL     1     -13.218   6.649  73.235  1.00  0.00     0.000 HD 
HETATM   13  N   UNL     1     -12.761   6.689  72.324  1.00  0.00    -0.551 NA 
HETATM   14  H2  UNL     1     -13.712   6.318  72.331  1.00  0.00     0.000 HD 
ENDBRANCH  10  11
ENDBRANCH   8  10
BRANCH   8  15
HETATM   15  N   UNL     1     -10.571   8.744  68.698  1.00  0.00    -0.181 NA 
HETATM   16  N   UNL     1     -10.120   8.420  67.466  1.00  0.00    -0.199 NA 
HETATM   17  C   UNL     1     -11.132   9.994  68.736  1.00  0.00    -0.173 A  
HETATM   18  C   UNL     1     -10.404   9.491  66.724  1.00  0.00    -0.228 A  
HETATM   19  C   UNL     1     -11.028  10.511  67.463  1.00  0.00    -0.365 A  
BRANCH  19  20
HETATM   20  C   UNL     1     -11.521  11.805  67.070  1.00  0.00    -0.298 A  
HETATM   21  C   UNL     1     -11.721  12.825  68.002  1.00  0.00    -0.405 A  
HETATM   22  C   UNL     1     -11.646  12.997  69.414  1.00  0.00    -0.360 A  
HETATM   23  C   UNL     1     -11.959  14.310  69.692  1.00  0.00    -0.336 A  
HETATM   24  N   UNL     1     -12.244  14.934  68.506  1.00  0.00    -0.597 NA 
HETATM   25  H   UNL     1     -12.507  15.915  68.405  1.00  0.00     0.000 HD 
HETATM   26  C   UNL     1     -12.122  14.041  67.476  1.00  0.00    -0.326 A  
HETATM   27  N   UNL     1     -12.352  14.329  66.186  1.00  0.00    -0.425 NA 
HETATM   28  C   UNL     1     -12.155  13.260  65.395  1.00  0.00    -0.422 A  
HETATM   29  N   UNL     1     -11.763  12.025  65.756  1.00  0.00    -0.442 NA 
ENDBRANCH  19  20
ENDBRANCH   8  15
ENDBRANCH   3   6
ENDBRANCH   2   3
TORSDOF 6
ENDMDL
MODEL       87
REMARK 921   NORMALIZED FREE ENERGY PREDICTED BY IDOCK:   -5.49 KCAL/MOL
REMARK 922        TOTAL FREE ENERGY PREDICTED BY IDOCK:   -7.92 KCAL/MOL
REMARK 923 INTER-LIGAND FREE ENERGY PREDICTED BY IDOCK:   -7.47 KCAL/MOL
REMARK 924 INTRA-LIGAND FREE ENERGY PREDICTED BY IDOCK:   -0.45 KCAL/MOL
REMARK 927      BINDING AFFINITY PREDICTED BY RF-SCORE:    0.00 PKD
ROOT
HETATM    1  C   UNL     1      -6.063   9.495  69.298  1.00  0.00    -0.037 C  
HETATM    2  C   UNL     1      -6.358   9.794  70.753  1.00  0.00    -0.095 C  
ENDROOT
BRANCH   2   3
HETATM    3  S   UNL     1      -7.239   8.454  71.537  1.00  0.00    -0.095 S  
HETATM    4  O   UNL     1      -6.970   7.233  70.815  1.00  0.00    -0.055 OA 
HETATM    5  O   UNL     1      -7.063   8.558  72.969  1.00  0.00    -0.244 OA 
BRANCH   3   6
HETATM    6  N   UNL     1      -8.820   8.918  71.178  1.00  0.00    -0.220 N  
HETATM    7  C   UNL     1      -9.699   8.304  70.141  1.00  0.00    -0.176 C  
HETATM    8  C   UNL     1     -10.959   8.823  70.911  1.00  0.00    -0.262 C  
HETATM    9  C   UNL     1      -9.976   8.936  72.121  1.00  0.00    -0.204 C  
BRANCH   8  10
HETATM   10  C   UNL     1     -12.157   7.887  70.999  1.00  0.00    -0.246 C  
BRANCH  10  11
HETATM   11  C   UNL     1     -13.267   8.470  71.858  1.00  0.00    -0.369 C  
HETATM   12  H1  UNL     1     -14.933   9.346  73.148  1.00  0.00     0.000 HD 
HETATM   13  N   UNL     1     -14.188   8.954  72.571  1.00  0.00    -0.781 NA 
HETATM   14  H2  UNL     1     -15.082   9.108  72.103  1.00  0.00     0.000 HD 
ENDBRANCH  10  11
ENDBRANCH   8  10
BRANCH   8  15
HETATM   15  N   UNL     1     -11.358  10.107  70.352  1.00  0.00    -0.303 NA 
HETATM   16  N   UNL     1     -12.106  10.967  71.079  1.00  0.00    -0.330 NA 
HETATM   17  C   UNL     1     -11.099  10.577  69.092  1.00  0.00    -0.250 A  
HETATM   18  C   UNL     1     -12.318  11.991  70.251  1.00  0.00    -0.195 A  
HETATM   19  C   UNL     1     -11.722  11.802  68.992  1.00  0.00    -0.390 A  
BRANCH  19  20
HETATM   20  C   UNL     1     -11.675  12.644  67.826  1.00  0.00    -0.356 A  
HETATM   21  C   UNL     1     -11.250  13.972  67.900  1.00  0.00    -0.295 A  
HETATM   22  C   UNL     1     -10.858  14.903  68.904  1.00  0.00    -0.253 A  
HETATM   23  C   UNL     1     -10.524  16.082  68.273  1.00  0.00    -0.269 A  
HETATM   24  N   UNL     1     -10.722  15.909  66.928  1.00  0.00    -0.315 NA 
HETATM   25  H   UNL     1     -10.554  16.617  66.213  1.00  0.00     0.000 HD 
HETATM   26  C   UNL     1     -11.179  14.641  66.689  1.00  0.00    -0.349 A  
HETATM   27  N   UNL     1     -11.490  14.158  65.477  1.00  0.00    -0.317 NA 
HETATM   28  C   UNL     1     -11.914  12.885  65.543  1.00  0.00    -0.436 A  
HETATM   29  N   UNL     1     -12.030  12.106  66.635  1.00  0.00    -0.629 NA 
ENDBRANCH  19  20
ENDBRANCH   8  15
ENDBRANCH   3   6
ENDBRANCH   2   3
TORSDOF 6
ENDMDL
MODEL       88
REMARK 921   NORMALIZED FREE ENERGY PREDICTED BY IDOCK:   -5.48 KCAL/MOL
REMARK 922        TOTAL FREE ENERGY PREDICTED BY IDOCK:   -7.92 KCAL/MOL
REMARK 923 INTER-LIGAND FREE ENERGY PREDICTED BY IDOCK:   -7.18 KCAL/MOL
REMARK 924 INTRA-LIGAND FREE ENERGY PREDICTED BY IDOCK:   -0.74 KCAL/MOL
REMARK 927      BINDING AFFINITY PREDICTED BY RF-SCORE:    0.00 PKD
ROOT
HETATM    1  C   UNL     1     -11.052  15.439  64.736  1.00  0.00    -0.416 C  
HETATM    2  C   UNL     1     -11.286  13.997  64.338  1.00  0.00    -0.306 C  
ENDROOT
BRANCH   2   3
HETATM    3  S   UNL     1     -12.698  13.301  65.177  1.00  0.00    -0.305 S  
HETATM    4  O   UNL     1     -13.633  14.360  65.476  1.00  0.00    -0.390 OA 
HETATM    5  O   UNL     1     -13.098  12.092  64.490  1.00  0.00    -0.720 OA 
BRANCH   3   6
HETATM    6  N   UNL     1     -11.963  12.849  66.626  1.00  0.00    -0.397 N  
HETATM    7  C   UNL     1     -10.578  12.314  66.776  1.00  0.00    -0.224 C  
HETATM    8  C   UNL     1     -10.563  12.789  68.267  1.00  0.00    -0.238 C  
HETATM    9  C   UNL     1     -11.736  13.718  67.816  1.00  0.00    -0.358 C  
BRANCH   8  10
HETATM   10  C   UNL     1      -9.272  13.404  68.790  1.00  0.00     0.106 C  
BRANCH  10  11
HETATM   11  C   UNL     1      -8.655  14.362  67.784  1.00  0.00    -0.171 C  
HETATM   12  H1  UNL     1      -7.729  15.799  66.274  1.00  0.00     0.000 HD 
HETATM   13  N   UNL     1      -8.143  15.156  66.949  1.00  0.00    -0.294 NA 
HETATM   14  H2  UNL     1      -8.428  15.028  65.977  1.00  0.00     0.000 HD 
ENDBRANCH  10  11
ENDBRANCH   8  10
BRANCH   8  15
HETATM   15  N   UNL     1     -10.980  11.683  69.118  1.00  0.00    -0.231 NA 
HETATM   16  N   UNL     1     -11.883  11.881  70.105  1.00  0.00    -0.330 NA 
HETATM   17  C   UNL     1     -10.521  10.393  69.083  1.00  0.00    -0.227 A  
HETATM   18  C   UNL     1     -11.983  10.690  70.696  1.00  0.00    -0.367 A  
HETATM   19  C   UNL     1     -11.151   9.722  70.108  1.00  0.00    -0.335 A  
BRANCH  19  20
HETATM   20  C   UNL     1     -10.961   8.326  70.402  1.00  0.00    -0.239 A  
HETATM   21  C   UNL     1     -10.764   7.386  69.389  1.00  0.00    -0.220 A  
HETATM   22  C   UNL     1     -10.755   7.351  67.966  1.00  0.00    -0.191 A  
HETATM   23  C   UNL     1     -10.462   6.061  67.580  1.00  0.00    -0.235 A  
HETATM   24  N   UNL     1     -10.317   5.307  68.716  1.00  0.00    -0.167 NA 
HETATM   25  H   UNL     1     -10.094   4.311  68.736  1.00  0.00     0.000 HD 
HETATM   26  C   UNL     1     -10.516   6.093  69.818  1.00  0.00    -0.239 A  
HETATM   27  N   UNL     1     -10.464   5.656  71.086  1.00  0.00    -0.231 NA 
HETATM   28  C   UNL     1     -10.700   6.646  71.963  1.00  0.00    -0.219 A  
HETATM   29  N   UNL     1     -10.949   7.942  71.701  1.00  0.00    -0.233 NA 
ENDBRANCH  19  20
ENDBRANCH   8  15
ENDBRANCH   3   6
ENDBRANCH   2   3
TORSDOF 6
ENDMDL
MODEL       89
REMARK 921   NORMALIZED FREE ENERGY PREDICTED BY IDOCK:   -5.48 KCAL/MOL
REMARK 922        TOTAL FREE ENERGY PREDICTED BY IDOCK:   -7.91 KCAL/MOL
REMARK 923 INTER-LIGAND FREE ENERGY PREDICTED BY IDOCK:   -7.11 KCAL/MOL
REMARK 924 INTRA-LIGAND FREE ENERGY PREDICTED BY IDOCK:   -0.80 KCAL/MOL
REMARK 927      BINDING AFFINITY PREDICTED BY RF-SCORE:    0.00 PKD
ROOT
HETATM    1  C   UNL     1     -10.701  16.314  65.301  1.00  0.00    -0.349 C  
HETATM    2  C   UNL     1     -11.848  15.807  64.452  1.00  0.00    -0.148 C  
ENDROOT
BRANCH   2   3
HETATM    3  S   UNL     1     -12.132  14.062  64.698  1.00  0.00    -0.444 S  
HETATM    4  O   UNL     1     -13.383  13.887  65.398  1.00  0.00    -0.710 OA 
HETATM    5  O   UNL     1     -11.833  13.365  63.467  1.00  0.00    -0.444 OA 
BRANCH   3   6
HETATM    6  N   UNL     1     -10.889  13.733  65.790  1.00  0.00    -0.275 N  
HETATM    7  C   UNL     1     -11.005  13.740  67.277  1.00  0.00    -0.292 C  
HETATM    8  C   UNL     1      -9.766  12.790  67.372  1.00  0.00    -0.197 C  
HETATM    9  C   UNL     1     -10.093  12.475  65.877  1.00  0.00    -0.254 C  
BRANCH   8  10
HETATM   10  C   UNL     1      -9.820  11.674  68.407  1.00  0.00    -0.202 C  
BRANCH  10  11
HETATM   11  C   UNL     1     -11.224  11.111  68.557  1.00  0.00    -0.258 C  
HETATM   12  H1  UNL     1     -13.331  10.266  68.782  1.00  0.00     0.000 HD 
HETATM   13  N   UNL     1     -12.389  10.644  68.682  1.00  0.00    -0.765 NA 
HETATM   14  H2  UNL     1     -13.058  11.237  69.174  1.00  0.00     0.000 HD 
ENDBRANCH  10  11
ENDBRANCH   8  10
BRANCH   8  15
HETATM   15  N   UNL     1      -8.567  13.596  67.558  1.00  0.00    -0.184 NA 
HETATM   16  N   UNL     1      -7.342  13.051  67.383  1.00  0.00    -0.142 NA 
HETATM   17  C   UNL     1      -8.503  14.906  67.952  1.00  0.00    -0.153 A  
HETATM   18  C   UNL     1      -6.501  14.042  67.679  1.00  0.00    -0.140 A  
HETATM   19  C   UNL     1      -7.166  15.224  68.051  1.00  0.00    -0.138 A  
BRANCH  19  20
HETATM   20  C   UNL     1      -6.665  16.521  68.419  1.00  0.00    -0.143 A  
HETATM   21  C   UNL     1      -6.700  17.598  67.531  1.00  0.00    -0.178 A  
HETATM   22  C   UNL     1      -7.062  17.838  66.174  1.00  0.00    -0.347 A  
HETATM   23  C   UNL     1      -6.871  19.180  65.922  1.00  0.00    -0.267 A  
HETATM   24  N   UNL     1      -6.385  19.757  67.066  1.00  0.00    -0.187 NA 
HETATM   25  H   UNL     1      -6.152  20.744  67.174  1.00  0.00     0.000 HD 
HETATM   26  C   UNL     1      -6.259  18.806  68.043  1.00  0.00    -0.204 A  
HETATM   27  N   UNL     1      -5.792  19.040  69.279  1.00  0.00    -0.225 NA 
HETATM   28  C   UNL     1      -5.778  17.922  70.025  1.00  0.00    -0.241 A  
HETATM   29  N   UNL     1      -6.178  16.686  69.672  1.00  0.00    -0.222 NA 
ENDBRANCH  19  20
ENDBRANCH   8  15
ENDBRANCH   3   6
ENDBRANCH   2   3
TORSDOF 6
ENDMDL
MODEL       90
REMARK 921   NORMALIZED FREE ENERGY PREDICTED BY IDOCK:   -5.46 KCAL/MOL
REMARK 922        TOTAL FREE ENERGY PREDICTED BY IDOCK:   -7.89 KCAL/MOL
REMARK 923 INTER-LIGAND FREE ENERGY PREDICTED BY IDOCK:   -7.27 KCAL/MOL
REMARK 924 INTRA-LIGAND FREE ENERGY PREDICTED BY IDOCK:   -0.62 KCAL/MOL
REMARK 927      BINDING AFFINITY PREDICTED BY RF-SCORE:    0.00 PKD
ROOT
HETATM    1  C   UNL     1     -10.493   5.425  66.393  1.00  0.00    -0.324 C  
HETATM    2  C   UNL     1      -9.169   6.134  66.198  1.00  0.00    -0.131 C  
ENDROOT
BRANCH   2   3
HETATM    3  S   UNL     1      -8.664   7.005  67.672  1.00  0.00    -0.120 S  
HETATM    4  O   UNL     1      -9.553   6.649  68.753  1.00  0.00    -0.132 OA 
HETATM    5  O   UNL     1      -7.226   6.915  67.796  1.00  0.00    -0.085 OA 
BRANCH   3   6
HETATM    6  N   UNL     1      -9.042   8.581  67.203  1.00  0.00    -0.138 N  
HETATM    7  C   UNL     1      -8.104   9.555  66.573  1.00  0.00    -0.112 C  
HETATM    8  C   UNL     1      -9.323  10.324  65.963  1.00  0.00    -0.180 C  
HETATM    9  C   UNL     1     -10.093   8.989  66.227  1.00  0.00    -0.241 C  
BRANCH   8  10
HETATM   10  C   UNL     1      -9.179  10.841  64.538  1.00  0.00    -0.250 C  
BRANCH  10  11
HETATM   11  C   UNL     1     -10.530  11.136  63.906  1.00  0.00    -0.381 C  
HETATM   12  H1  UNL     1     -12.557  11.579  62.957  1.00  0.00     0.000 HD 
HETATM   13  N   UNL     1     -11.650  11.382  63.381  1.00  0.00    -0.785 NA 
HETATM   14  H2  UNL     1     -11.897  12.368  63.293  1.00  0.00     0.000 HD 
ENDBRANCH  10  11
ENDBRANCH   8  10
BRANCH   8  15
HETATM   15  N   UNL     1      -9.695  11.408  66.862  1.00  0.00    -0.190 NA 
HETATM   16  N   UNL     1      -8.922  12.512  66.958  1.00  0.00    -0.206 NA 
HETATM   17  C   UNL     1     -10.769  11.447  67.711  1.00  0.00    -0.211 A  
HETATM   18  C   UNL     1      -9.526  13.251  67.890  1.00  0.00    -0.214 A  
HETATM   19  C   UNL     1     -10.680  12.635  68.404  1.00  0.00    -0.260 A  
BRANCH  19  20
HETATM   20  C   UNL     1     -11.635  13.074  69.387  1.00  0.00    -0.299 A  
HETATM   21  C   UNL     1     -12.147  12.203  70.349  1.00  0.00    -0.395 A  
HETATM   22  C   UNL     1     -12.067  10.818  70.672  1.00  0.00    -0.467 A  
HETATM   23  C   UNL     1     -12.826  10.606  71.802  1.00  0.00    -0.444 A  
HETATM   24  N   UNL     1     -13.384  11.806  72.163  1.00  0.00    -0.551 NA 
HETATM   25  H   UNL     1     -13.994  11.952  72.967  1.00  0.00     0.000 HD 
HETATM   26  C   UNL     1     -12.996  12.777  71.281  1.00  0.00    -0.220 A  
HETATM   27  N   UNL     1     -13.383  14.060  71.341  1.00  0.00    -0.335 NA 
HETATM   28  C   UNL     1     -12.848  14.788  70.345  1.00  0.00    -0.274 A  
HETATM   29  N   UNL     1     -12.009  14.376  69.377  1.00  0.00    -0.319 NA 
ENDBRANCH  19  20
ENDBRANCH   8  15
ENDBRANCH   3   6
ENDBRANCH   2   3
TORSDOF 6
ENDMDL
MODEL       91
REMARK 921   NORMALIZED FREE ENERGY PREDICTED BY IDOCK:   -5.46 KCAL/MOL
REMARK 922        TOTAL FREE ENERGY PREDICTED BY IDOCK:   -7.89 KCAL/MOL
REMARK 923 INTER-LIGAND FREE ENERGY PREDICTED BY IDOCK:   -7.69 KCAL/MOL
REMARK 924 INTRA-LIGAND FREE ENERGY PREDICTED BY IDOCK:   -0.19 KCAL/MOL
REMARK 927      BINDING AFFINITY PREDICTED BY RF-SCORE:    0.00 PKD
ROOT
HETATM    1  C   UNL     1     -12.162  15.019  64.059  1.00  0.00    -0.117 C  
HETATM    2  C   UNL     1     -11.982  13.772  63.218  1.00  0.00     0.149 C  
ENDROOT
BRANCH   2   3
HETATM    3  S   UNL     1     -12.116  12.288  64.199  1.00  0.00    -0.442 S  
HETATM    4  O   UNL     1     -13.514  11.971  64.378  1.00  0.00    -0.591 OA 
HETATM    5  O   UNL     1     -11.163  11.317  63.707  1.00  0.00    -0.359 OA 
BRANCH   3   6
HETATM    6  N   UNL     1     -11.537  12.877  65.670  1.00  0.00    -0.343 N  
HETATM    7  C   UNL     1     -12.369  13.385  66.799  1.00  0.00    -0.231 C  
HETATM    8  C   UNL     1     -11.198  13.079  67.791  1.00  0.00    -0.279 C  
HETATM    9  C   UNL     1     -10.690  12.139  66.650  1.00  0.00    -0.246 C  
BRANCH   8  10
HETATM   10  C   UNL     1     -11.568  12.488  69.145  1.00  0.00    -0.375 C  
BRANCH  10  11
HETATM   11  C   UNL     1     -11.408  10.977  69.165  1.00  0.00    -0.280 C  
HETATM   12  H1  UNL     1     -11.167   8.709  69.195  1.00  0.00     0.000 HD 
HETATM   13  N   UNL     1     -11.275   9.723  69.182  1.00  0.00    -0.427 NA 
HETATM   14  H2  UNL     1     -11.561   9.255  70.043  1.00  0.00     0.000 HD 
ENDBRANCH  10  11
ENDBRANCH   8  10
BRANCH   8  15
HETATM   15  N   UNL     1     -10.399  14.284  67.964  1.00  0.00    -0.226 NA 
HETATM   16  N   UNL     1      -9.269  14.255  68.704  1.00  0.00    -0.193 NA 
HETATM   17  C   UNL     1     -10.676  15.537  67.483  1.00  0.00    -0.300 A  
HETATM   18  C   UNL     1      -8.837  15.517  68.686  1.00  0.00    -0.193 A  
HETATM   19  C   UNL     1      -9.679  16.367  67.946  1.00  0.00    -0.235 A  
BRANCH  19  20
HETATM   20  C   UNL     1      -9.587  17.771  67.647  1.00  0.00    -0.266 A  
HETATM   21  C   UNL     1      -8.477  18.528  68.027  1.00  0.00    -0.302 A  
HETATM   22  C   UNL     1      -7.277  18.345  68.772  1.00  0.00    -0.300 A  
HETATM   23  C   UNL     1      -6.582  19.535  68.743  1.00  0.00    -0.295 A  
HETATM   24  N   UNL     1      -7.325  20.438  68.029  1.00  0.00    -0.256 NA 
HETATM   25  H   UNL     1      -7.056  21.404  67.841  1.00  0.00     0.000 HD 
HETATM   26  C   UNL     1      -8.484  19.847  67.605  1.00  0.00    -0.326 A  
HETATM   27  N   UNL     1      -9.441  20.465  66.896  1.00  0.00    -0.387 NA 
HETATM   28  C   UNL     1     -10.467  19.641  66.620  1.00  0.00    -0.497 A  
HETATM   29  N   UNL     1     -10.599  18.345  66.954  1.00  0.00    -0.377 NA 
ENDBRANCH  19  20
ENDBRANCH   8  15
ENDBRANCH   3   6
ENDBRANCH   2   3
TORSDOF 6
ENDMDL
MODEL       92
REMARK 921   NORMALIZED FREE ENERGY PREDICTED BY IDOCK:   -5.46 KCAL/MOL
REMARK 922        TOTAL FREE ENERGY PREDICTED BY IDOCK:   -7.88 KCAL/MOL
REMARK 923 INTER-LIGAND FREE ENERGY PREDICTED BY IDOCK:   -7.26 KCAL/MOL
REMARK 924 INTRA-LIGAND FREE ENERGY PREDICTED BY IDOCK:   -0.62 KCAL/MOL
REMARK 927      BINDING AFFINITY PREDICTED BY RF-SCORE:    0.00 PKD
ROOT
HETATM    1  C   UNL     1     -10.526  19.616  66.487  1.00  0.00    -0.612 C  
HETATM    2  C   UNL     1     -10.445  18.219  65.907  1.00  0.00    -0.307 C  
ENDROOT
BRANCH   2   3
HETATM    3  S   UNL     1      -9.273  17.204  66.792  1.00  0.00    -0.264 S  
HETATM    4  O   UNL     1      -8.039  17.155  66.043  1.00  0.00    -0.465 OA 
HETATM    5  O   UNL     1      -9.311  17.563  68.192  1.00  0.00    -0.260 OA 
BRANCH   3   6
HETATM    6  N   UNL     1     -10.028  15.704  66.625  1.00  0.00    -0.249 N  
HETATM    7  C   UNL     1     -11.407  15.363  67.081  1.00  0.00    -0.203 C  
HETATM    8  C   UNL     1     -11.456  14.198  66.037  1.00  0.00    -0.342 C  
HETATM    9  C   UNL     1     -10.289  14.978  65.349  1.00  0.00    -0.383 C  
BRANCH   8  10
HETATM   10  C   UNL     1     -12.765  13.986  65.288  1.00  0.00    -0.468 C  
BRANCH  10  11
HETATM   11  C   UNL     1     -12.650  12.878  64.254  1.00  0.00    -0.286 C  
HETATM   12  H1  UNL     1     -12.478  11.216  62.701  1.00  0.00     0.000 HD 
HETATM   13  N   UNL     1     -12.555  11.959  63.395  1.00  0.00    -0.800 NA 
HETATM   14  H2  UNL     1     -11.712  11.386  63.445  1.00  0.00     0.000 HD 
ENDBRANCH  10  11
ENDBRANCH   8  10
BRANCH   8  15
HETATM   15  N   UNL     1     -11.038  12.964  66.688  1.00  0.00    -0.276 NA 
HETATM   16  N   UNL     1     -11.933  12.211  67.365  1.00  0.00    -0.570 NA 
HETATM   17  C   UNL     1      -9.770  12.448  66.749  1.00  0.00    -0.223 A  
HETATM   18  C   UNL     1     -11.205  11.209  67.860  1.00  0.00    -0.302 A  
HETATM   19  C   UNL     1      -9.845  11.307  67.517  1.00  0.00    -0.195 A  
BRANCH  19  20
HETATM   20  C   UNL     1      -8.727  10.450  67.809  1.00  0.00    -0.122 A  
HETATM   21  C   UNL     1      -8.522   9.254  67.117  1.00  0.00    -0.124 A  
HETATM   22  C   UNL     1      -9.191   8.476  66.129  1.00  0.00    -0.269 A  
HETATM   23  C   UNL     1      -8.405   7.376  65.861  1.00  0.00    -0.140 A  
HETATM   24  N   UNL     1      -7.297   7.446  66.665  1.00  0.00    -0.082 NA 
HETATM   25  H   UNL     1      -6.538   6.764  66.681  1.00  0.00     0.000 HD 
HETATM   26  C   UNL     1      -7.364   8.569  67.445  1.00  0.00    -0.089 A  
HETATM   27  N   UNL     1      -6.445   8.920  68.356  1.00  0.00    -0.055 NA 
HETATM   28  C   UNL     1      -6.771  10.069  68.973  1.00  0.00    -0.053 A  
HETATM   29  N   UNL     1      -7.849  10.846  68.761  1.00  0.00    -0.124 NA 
ENDBRANCH  19  20
ENDBRANCH   8  15
ENDBRANCH   3   6
ENDBRANCH   2   3
TORSDOF 6
ENDMDL
MODEL       93
REMARK 921   NORMALIZED FREE ENERGY PREDICTED BY IDOCK:   -5.45 KCAL/MOL
REMARK 922        TOTAL FREE ENERGY PREDICTED BY IDOCK:   -7.87 KCAL/MOL
REMARK 923 INTER-LIGAND FREE ENERGY PREDICTED BY IDOCK:   -7.12 KCAL/MOL
REMARK 924 INTRA-LIGAND FREE ENERGY PREDICTED BY IDOCK:   -0.74 KCAL/MOL
REMARK 927      BINDING AFFINITY PREDICTED BY RF-SCORE:    0.00 PKD
ROOT
HETATM    1  C   UNL     1      -9.316   8.609  66.154  1.00  0.00    -0.291 C  
HETATM    2  C   UNL     1      -8.323   7.521  66.506  1.00  0.00    -0.126 C  
ENDROOT
BRANCH   2   3
HETATM    3  S   UNL     1      -8.720   6.742  68.062  1.00  0.00    -0.116 S  
HETATM    4  O   UNL     1      -9.725   5.729  67.834  1.00  0.00    -0.113 OA 
HETATM    5  O   UNL     1      -7.490   6.462  68.770  1.00  0.00    -0.084 OA 
BRANCH   3   6
HETATM    6  N   UNL     1      -9.474   8.038  68.834  1.00  0.00    -0.151 N  
HETATM    7  C   UNL     1     -10.859   8.042  69.390  1.00  0.00    -0.094 C  
HETATM    8  C   UNL     1     -10.461   9.208  70.355  1.00  0.00    -0.223 C  
HETATM    9  C   UNL     1      -8.999   8.738  70.062  1.00  0.00    -0.158 C  
BRANCH   8  10
HETATM   10  C   UNL     1     -11.000   9.150  71.778  1.00  0.00    -0.429 C  
BRANCH  10  11
HETATM   11  C   UNL     1     -11.889   7.936  71.996  1.00  0.00    -0.318 C  
HETATM   12  H1  UNL     1     -13.224   6.115  72.322  1.00  0.00     0.000 HD 
HETATM   13  N   UNL     1     -12.628   6.929  72.176  1.00  0.00    -0.536 NA 
HETATM   14  H2  UNL     1     -13.630   7.114  72.228  1.00  0.00     0.000 HD 
ENDBRANCH  10  11
ENDBRANCH   8  10
BRANCH   8  15
HETATM   15  N   UNL     1     -10.810  10.477  69.732  1.00  0.00    -0.273 NA 
HETATM   16  N   UNL     1     -11.913  11.152  70.125  1.00  0.00    -0.334 NA 
HETATM   17  C   UNL     1     -10.155  11.102  68.703  1.00  0.00    -0.200 A  
HETATM   18  C   UNL     1     -11.946  12.216  69.322  1.00  0.00    -0.262 A  
HETATM   19  C   UNL     1     -10.879  12.236  68.406  1.00  0.00    -0.257 A  
BRANCH  19  20
HETATM   20  C   UNL     1     -10.515  13.189  67.392  1.00  0.00    -0.242 A  
HETATM   21  C   UNL     1     -11.050  13.127  66.104  1.00  0.00    -0.301 A  
HETATM   22  C   UNL     1     -11.906  12.269  65.355  1.00  0.00    -0.418 A  
HETATM   23  C   UNL     1     -12.054  12.819  64.099  1.00  0.00    -0.438 A  
HETATM   24  N   UNL     1     -11.301  13.964  64.052  1.00  0.00    -0.596 NA 
HETATM   25  H   UNL     1     -11.222  14.582  63.244  1.00  0.00     0.000 HD 
HETATM   26  C   UNL     1     -10.674  14.153  65.253  1.00  0.00    -0.364 A  
HETATM   27  N   UNL     1      -9.847  15.172  65.530  1.00  0.00    -0.340 NA 
HETATM   28  C   UNL     1      -9.375  15.102  66.787  1.00  0.00    -0.247 A  
HETATM   29  N   UNL     1      -9.651  14.178  67.725  1.00  0.00    -0.214 NA 
ENDBRANCH  19  20
ENDBRANCH   8  15
ENDBRANCH   3   6
ENDBRANCH   2   3
TORSDOF 6
ENDMDL
MODEL       94
REMARK 921   NORMALIZED FREE ENERGY PREDICTED BY IDOCK:   -5.43 KCAL/MOL
REMARK 922        TOTAL FREE ENERGY PREDICTED BY IDOCK:   -7.84 KCAL/MOL
REMARK 923 INTER-LIGAND FREE ENERGY PREDICTED BY IDOCK:   -7.35 KCAL/MOL
REMARK 924 INTRA-LIGAND FREE ENERGY PREDICTED BY IDOCK:   -0.49 KCAL/MOL
REMARK 927      BINDING AFFINITY PREDICTED BY RF-SCORE:    0.00 PKD
ROOT
HETATM    1  C   UNL     1     -10.493   8.342  72.283  1.00  0.00    -0.392 C  
HETATM    2  C   UNL     1      -9.398   8.122  71.260  1.00  0.00    -0.156 C  
ENDROOT
BRANCH   2   3
HETATM    3  S   UNL     1      -9.934   7.047  69.939  1.00  0.00    -0.179 S  
HETATM    4  O   UNL     1      -8.893   6.083  69.670  1.00  0.00    -0.130 OA 
HETATM    5  O   UNL     1     -11.304   6.653  70.188  1.00  0.00    -0.327 OA 
BRANCH   3   6
HETATM    6  N   UNL     1      -9.941   8.156  68.668  1.00  0.00    -0.184 N  
HETATM    7  C   UNL     1      -8.737   8.709  67.982  1.00  0.00    -0.141 C  
HETATM    8  C   UNL     1      -9.608   9.022  66.720  1.00  0.00    -0.200 C  
HETATM    9  C   UNL     1     -10.594   7.979  67.339  1.00  0.00    -0.267 C  
BRANCH   8  10
HETATM   10  C   UNL     1      -8.983   8.753  65.358  1.00  0.00    -0.211 C  
BRANCH  10  11
HETATM   11  C   UNL     1      -7.469   8.876  65.397  1.00  0.00    -0.086 C  
HETATM   12  H1  UNL     1      -5.196   9.061  65.455  1.00  0.00     0.000 HD 
HETATM   13  N   UNL     1      -6.212   8.978  65.429  1.00  0.00    -0.062 NA 
HETATM   14  H2  UNL     1      -5.751   8.562  66.239  1.00  0.00     0.000 HD 
ENDBRANCH  10  11
ENDBRANCH   8  10
BRANCH   8  15
HETATM   15  N   UNL     1     -10.076  10.399  66.801  1.00  0.00    -0.206 NA 
HETATM   16  N   UNL     1     -11.265  10.684  67.378  1.00  0.00    -0.371 NA 
HETATM   17  C   UNL     1      -9.458  11.514  66.301  1.00  0.00    -0.217 A  
HETATM   18  C   UNL     1     -11.389  12.003  67.230  1.00  0.00    -0.330 A  
HETATM   19  C   UNL     1     -10.296  12.578  66.557  1.00  0.00    -0.254 A  
BRANCH  19  20
HETATM   20  C   UNL     1     -10.004  13.943  66.209  1.00  0.00    -0.306 A  
HETATM   21  C   UNL     1     -10.800  14.653  65.309  1.00  0.00    -0.387 A  
HETATM   22  C   UNL     1     -11.918  14.407  64.461  1.00  0.00    -0.487 A  
HETATM   23  C   UNL     1     -12.235  15.591  63.831  1.00  0.00     0.262 A  
HETATM   24  N   UNL     1     -11.337  16.540  64.246  1.00  0.00    -1.345 NA 
HETATM   25  H   UNL     1     -11.331  17.515  63.945  1.00  0.00     0.000 HD 
HETATM   26  C   UNL     1     -10.451  15.982  65.127  1.00  0.00    -0.303 A  
HETATM   27  N   UNL     1      -9.433  16.638  65.704  1.00  0.00    -0.497 NA 
HETATM   28  C   UNL     1      -8.727  15.839  66.522  1.00  0.00    -0.319 A  
HETATM   29  N   UNL     1      -8.945  14.542  66.803  1.00  0.00    -0.255 NA 
ENDBRANCH  19  20
ENDBRANCH   8  15
ENDBRANCH   3   6
ENDBRANCH   2   3
TORSDOF 6
ENDMDL
MODEL       95
REMARK 921   NORMALIZED FREE ENERGY PREDICTED BY IDOCK:   -5.42 KCAL/MOL
REMARK 922        TOTAL FREE ENERGY PREDICTED BY IDOCK:   -7.84 KCAL/MOL
REMARK 923 INTER-LIGAND FREE ENERGY PREDICTED BY IDOCK:   -7.13 KCAL/MOL
REMARK 924 INTRA-LIGAND FREE ENERGY PREDICTED BY IDOCK:   -0.71 KCAL/MOL
REMARK 927      BINDING AFFINITY PREDICTED BY RF-SCORE:    0.00 PKD
ROOT
HETATM    1  C   UNL     1      -6.328  10.010  71.324  1.00  0.00     0.178 C  
HETATM    2  C   UNL     1      -6.639   8.599  70.870  1.00  0.00    -0.049 C  
ENDROOT
BRANCH   2   3
HETATM    3  S   UNL     1      -8.202   8.027  71.512  1.00  0.00    -0.125 S  
HETATM    4  O   UNL     1      -8.214   6.583  71.495  1.00  0.00    -0.115 OA 
HETATM    5  O   UNL     1      -8.522   8.786  72.701  1.00  0.00    -0.413 OA 
BRANCH   3   6
HETATM    6  N   UNL     1      -9.219   8.558  70.275  1.00  0.00    -0.154 N  
HETATM    7  C   UNL     1      -8.885   8.592  68.821  1.00  0.00    -0.139 C  
HETATM    8  C   UNL     1     -10.411   8.553  68.476  1.00  0.00    -0.198 C  
HETATM    9  C   UNL     1     -10.563   8.010  69.934  1.00  0.00    -0.242 C  
BRANCH   8  10
HETATM   10  C   UNL     1     -10.838   7.686  67.300  1.00  0.00    -0.263 C  
BRANCH  10  11
HETATM   11  C   UNL     1      -9.689   7.436  66.336  1.00  0.00    -0.093 C  
HETATM   12  H1  UNL     1      -7.966   7.061  64.890  1.00  0.00     0.000 HD 
HETATM   13  N   UNL     1      -8.737   7.229  65.536  1.00  0.00    -0.332 NA 
HETATM   14  H2  UNL     1      -8.651   7.889  64.762  1.00  0.00     0.000 HD 
ENDBRANCH  10  11
ENDBRANCH   8  10
BRANCH   8  15
HETATM   15  N   UNL     1     -10.889   9.918  68.301  1.00  0.00    -0.242 NA 
HETATM   16  N   UNL     1     -11.725  10.472  69.209  1.00  0.00    -0.242 NA 
HETATM   17  C   UNL     1     -10.626  10.759  67.253  1.00  0.00    -0.257 A  
HETATM   18  C   UNL     1     -11.989  11.680  68.711  1.00  0.00    -0.264 A  
HETATM   19  C   UNL     1     -11.339  11.915  67.486  1.00  0.00    -0.381 A  
BRANCH  19  20
HETATM   20  C   UNL     1     -11.320  13.068  66.626  1.00  0.00    -0.325 A  
HETATM   21  C   UNL     1     -11.799  13.011  65.316  1.00  0.00    -0.413 A  
HETATM   22  C   UNL     1     -12.308  12.029  64.418  1.00  0.00    -0.346 A  
HETATM   23  C   UNL     1     -12.633  12.668  63.240  1.00  0.00    -0.159 A  
HETATM   24  N   UNL     1     -12.317  13.995  63.382  1.00  0.00    -1.154 NA 
HETATM   25  H   UNL     1     -12.452  14.710  62.668  1.00  0.00     0.000 HD 
HETATM   26  C   UNL     1     -11.794  14.213  64.628  1.00  0.00    -0.431 A  
HETATM   27  N   UNL     1     -11.366  15.402  65.078  1.00  0.00    -0.358 NA 
HETATM   28  C   UNL     1     -10.901  15.320  66.336  1.00  0.00    -0.317 A  
HETATM   29  N   UNL     1     -10.847  14.234  67.129  1.00  0.00    -0.292 NA 
ENDBRANCH  19  20
ENDBRANCH   8  15
ENDBRANCH   3   6
ENDBRANCH   2   3
TORSDOF 6
ENDMDL
MODEL       96
REMARK 921   NORMALIZED FREE ENERGY PREDICTED BY IDOCK:   -5.40 KCAL/MOL
REMARK 922        TOTAL FREE ENERGY PREDICTED BY IDOCK:   -7.81 KCAL/MOL
REMARK 923 INTER-LIGAND FREE ENERGY PREDICTED BY IDOCK:   -6.93 KCAL/MOL
REMARK 924 INTRA-LIGAND FREE ENERGY PREDICTED BY IDOCK:   -0.88 KCAL/MOL
REMARK 927      BINDING AFFINITY PREDICTED BY RF-SCORE:    0.00 PKD
ROOT
HETATM    1  C   UNL     1     -12.505  15.389  74.062  1.00  0.00    -0.780 C  
HETATM    2  C   UNL     1     -12.108  15.332  72.601  1.00  0.00    -0.419 C  
ENDROOT
BRANCH   2   3
HETATM    3  S   UNL     1     -13.350  14.521  71.610  1.00  0.00    -0.390 S  
HETATM    4  O   UNL     1     -13.670  13.248  72.212  1.00  0.00    -0.548 OA 
HETATM    5  O   UNL     1     -14.370  15.486  71.262  1.00  0.00    -0.536 OA 
BRANCH   3   6
HETATM    6  N   UNL     1     -12.439  14.212  70.225  1.00  0.00    -0.356 N  
HETATM    7  C   UNL     1     -12.474  15.003  68.960  1.00  0.00     0.107 C  
HETATM    8  C   UNL     1     -11.040  14.486  68.606  1.00  0.00    -0.257 C  
HETATM    9  C   UNL     1     -10.952  14.164  70.133  1.00  0.00     0.200 C  
BRANCH   8  10
HETATM   10  C   UNL     1     -10.071  15.485  67.988  1.00  0.00    -0.223 C  
BRANCH  10  11
HETATM   11  C   UNL     1      -8.715  15.454  68.674  1.00  0.00    -0.191 C  
HETATM   12  H1  UNL     1      -6.679  15.406  69.703  1.00  0.00     0.000 HD 
HETATM   13  N   UNL     1      -7.589  15.427  69.243  1.00  0.00    -0.200 NA 
HETATM   14  H2  UNL     1      -7.063  14.557  69.153  1.00  0.00     0.000 HD 
ENDBRANCH  10  11
ENDBRANCH   8  10
BRANCH   8  15
HETATM   15  N   UNL     1     -11.160  13.306  67.760  1.00  0.00    -0.256 NA 
HETATM   16  N   UNL     1     -12.022  13.296  66.718  1.00  0.00    -0.390 NA 
HETATM   17  C   UNL     1     -10.507  12.111  67.909  1.00  0.00    -0.208 A  
HETATM   18  C   UNL     1     -11.905  12.067  66.213  1.00  0.00    -0.148 A  
HETATM   19  C   UNL     1     -10.980  11.277  66.919  1.00  0.00    -0.348 A  
BRANCH  19  20
HETATM   20  C   UNL     1     -10.531   9.926  66.713  1.00  0.00    -0.191 A  
HETATM   21  C   UNL     1      -9.721   9.583  65.629  1.00  0.00    -0.361 A  
HETATM   22  C   UNL     1      -9.178  10.213  64.473  1.00  0.00    -0.305 A  
HETATM   23  C   UNL     1      -8.416   9.278  63.805  1.00  0.00    -0.191 A  
HETATM   24  N   UNL     1      -8.495   8.099  64.500  1.00  0.00    -0.376 NA 
HETATM   25  H   UNL     1      -8.028   7.231  64.239  1.00  0.00     0.000 HD 
HETATM   26  C   UNL     1      -9.297   8.265  65.596  1.00  0.00     0.052 A  
HETATM   27  N   UNL     1      -9.596   7.296  66.475  1.00  0.00    -0.173 NA 
HETATM   28  C   UNL     1     -10.405   7.743  67.451  1.00  0.00    -0.284 A  
HETATM   29  N   UNL     1     -10.891   8.986  67.619  1.00  0.00    -0.158 NA 
ENDBRANCH  19  20
ENDBRANCH   8  15
ENDBRANCH   3   6
ENDBRANCH   2   3
TORSDOF 6
ENDMDL
MODEL       97
REMARK 921   NORMALIZED FREE ENERGY PREDICTED BY IDOCK:   -5.38 KCAL/MOL
REMARK 922        TOTAL FREE ENERGY PREDICTED BY IDOCK:   -7.77 KCAL/MOL
REMARK 923 INTER-LIGAND FREE ENERGY PREDICTED BY IDOCK:   -6.89 KCAL/MOL
REMARK 924 INTRA-LIGAND FREE ENERGY PREDICTED BY IDOCK:   -0.88 KCAL/MOL
REMARK 927      BINDING AFFINITY PREDICTED BY RF-SCORE:    0.00 PKD
ROOT
HETATM    1  C   UNL     1     -11.043  15.220  64.803  1.00  0.00    -0.407 C  
HETATM    2  C   UNL     1     -11.702  14.083  65.555  1.00  0.00    -0.350 C  
ENDROOT
BRANCH   2   3
HETATM    3  S   UNL     1     -11.906  12.640  64.524  1.00  0.00    -0.406 S  
HETATM    4  O   UNL     1     -13.270  12.180  64.629  1.00  0.00    -0.659 OA 
HETATM    5  O   UNL     1     -11.273  12.889  63.247  1.00  0.00    -0.333 OA 
BRANCH   3   6
HETATM    6  N   UNL     1     -10.936  11.554  65.376  1.00  0.00    -0.260 N  
HETATM    7  C   UNL     1     -10.106  10.468  64.779  1.00  0.00    -0.336 C  
HETATM    8  C   UNL     1      -9.192  10.478  66.050  1.00  0.00    -0.176 C  
HETATM    9  C   UNL     1      -9.803  11.897  66.282  1.00  0.00    -0.225 C  
BRANCH   8  10
HETATM   10  C   UNL     1      -7.693  10.329  65.832  1.00  0.00    -0.137 C  
BRANCH  10  11
HETATM   11  C   UNL     1      -6.910  11.440  66.512  1.00  0.00    -0.064 C  
HETATM   12  H1  UNL     1      -5.736  13.108  67.533  1.00  0.00     0.000 HD 
HETATM   13  N   UNL     1      -6.261  12.363  67.076  1.00  0.00    -0.421 NA 
HETATM   14  H2  UNL     1      -6.137  13.218  66.534  1.00  0.00     0.000 HD 
ENDBRANCH  10  11
ENDBRANCH   8  10
BRANCH   8  15
HETATM   15  N   UNL     1      -9.672   9.468  66.984  1.00  0.00    -0.167 NA 
HETATM   16  N   UNL     1     -10.005   8.234  66.545  1.00  0.00    -0.266 NA 
HETATM   17  C   UNL     1      -9.887   9.620  68.328  1.00  0.00    -0.150 A  
HETATM   18  C   UNL     1     -10.440   7.607  67.639  1.00  0.00    -0.244 A  
HETATM   19  C   UNL     1     -10.399   8.424  68.783  1.00  0.00    -0.225 A  
BRANCH  19  20
HETATM   20  C   UNL     1     -10.743   8.157  70.154  1.00  0.00    -0.243 A  
HETATM   21  C   UNL     1     -10.023   7.241  70.923  1.00  0.00    -0.186 A  
HETATM   22  C   UNL     1      -8.957   6.314  70.741  1.00  0.00    -0.144 A  
HETATM   23  C   UNL     1      -8.708   5.719  71.959  1.00  0.00    -0.137 A  
HETATM   24  N   UNL     1      -9.598   6.232  72.867  1.00  0.00    -0.153 NA 
HETATM   25  H   UNL     1      -9.645   5.976  73.853  1.00  0.00     0.000 HD 
HETATM   26  C   UNL     1     -10.413   7.142  72.249  1.00  0.00    -0.209 A  
HETATM   27  N   UNL     1     -11.405   7.811  72.853  1.00  0.00    -0.390 NA 
HETATM   28  C   UNL     1     -12.040   8.636  72.003  1.00  0.00    -0.375 A  
HETATM   29  N   UNL     1     -11.775   8.844  70.700  1.00  0.00    -0.230 NA 
ENDBRANCH  19  20
ENDBRANCH   8  15
ENDBRANCH   3   6
ENDBRANCH   2   3
TORSDOF 6
ENDMDL
MODEL       98
REMARK 921   NORMALIZED FREE ENERGY PREDICTED BY IDOCK:   -5.35 KCAL/MOL
REMARK 922        TOTAL FREE ENERGY PREDICTED BY IDOCK:   -7.74 KCAL/MOL
REMARK 923 INTER-LIGAND FREE ENERGY PREDICTED BY IDOCK:   -7.39 KCAL/MOL
REMARK 924 INTRA-LIGAND FREE ENERGY PREDICTED BY IDOCK:   -0.35 KCAL/MOL
REMARK 927      BINDING AFFINITY PREDICTED BY RF-SCORE:    0.00 PKD
ROOT
HETATM    1  C   UNL     1      -8.467  10.628  63.001  1.00  0.00    -0.159 C  
HETATM    2  C   UNL     1      -8.843   9.515  63.956  1.00  0.00    -0.212 C  
ENDROOT
BRANCH   2   3
HETATM    3  S   UNL     1      -7.686   9.387  65.309  1.00  0.00    -0.112 S  
HETATM    4  O   UNL     1      -6.959   8.145  65.186  1.00  0.00    -0.061 OA 
HETATM    5  O   UNL     1      -7.017  10.659  65.470  1.00  0.00    -0.128 OA 
BRANCH   3   6
HETATM    6  N   UNL     1      -8.775   9.213  66.586  1.00  0.00    -0.126 N  
HETATM    7  C   UNL     1     -10.203   8.796  66.469  1.00  0.00    -0.244 C  
HETATM    8  C   UNL     1     -10.177   8.315  67.958  1.00  0.00    -0.214 C  
HETATM    9  C   UNL     1      -8.626   8.309  67.763  1.00  0.00    -0.131 C  
BRANCH   8  10
HETATM   10  C   UNL     1     -10.901   7.016  68.284  1.00  0.00    -0.198 C  
BRANCH  10  11
HETATM   11  C   UNL     1     -10.980   6.096  67.077  1.00  0.00    -0.330 C  
HETATM   12  H1  UNL     1     -11.098   4.714  65.266  1.00  0.00     0.000 HD 
HETATM   13  N   UNL     1     -11.046   5.332  66.076  1.00  0.00    -0.793 NA 
HETATM   14  H2  UNL     1     -11.734   4.580  66.131  1.00  0.00     0.000 HD 
ENDBRANCH  10  11
ENDBRANCH   8  10
BRANCH   8  15
HETATM   15  N   UNL     1     -10.661   9.394  68.810  1.00  0.00    -0.222 NA 
HETATM   16  N   UNL     1     -10.951   9.161  70.110  1.00  0.00    -0.239 NA 
HETATM   17  C   UNL     1     -10.921  10.687  68.441  1.00  0.00    -0.251 A  
HETATM   18  C   UNL     1     -11.403  10.333  70.556  1.00  0.00    -0.341 A  
HETATM   19  C   UNL     1     -11.417  11.324  69.557  1.00  0.00    -0.376 A  
BRANCH  19  20
HETATM   20  C   UNL     1     -11.796  12.711  69.600  1.00  0.00    -0.311 A  
HETATM   21  C   UNL     1     -12.555  13.229  70.650  1.00  0.00    -0.305 A  
HETATM   22  C   UNL     1     -13.218  12.747  71.815  1.00  0.00    -0.471 A  
HETATM   23  C   UNL     1     -13.782  13.830  72.454  1.00  0.00    -0.591 A  
HETATM   24  N   UNL     1     -13.506  14.947  71.709  1.00  0.00    -0.355 NA 
HETATM   25  H   UNL     1     -13.797  15.897  71.943  1.00  0.00     0.000 HD 
HETATM   26  C   UNL     1     -12.779  14.595  70.604  1.00  0.00    -0.357 A  
HETATM   27  N   UNL     1     -12.364  15.453  69.659  1.00  0.00    -0.272 NA 
HETATM   28  C   UNL     1     -11.673  14.829  68.690  1.00  0.00    -0.325 A  
HETATM   29  N   UNL     1     -11.371  13.520  68.601  1.00  0.00    -0.268 NA 
ENDBRANCH  19  20
ENDBRANCH   8  15
ENDBRANCH   3   6
ENDBRANCH   2   3
TORSDOF 6
ENDMDL
MODEL       99
REMARK 921   NORMALIZED FREE ENERGY PREDICTED BY IDOCK:   -5.35 KCAL/MOL
REMARK 922        TOTAL FREE ENERGY PREDICTED BY IDOCK:   -7.73 KCAL/MOL
REMARK 923 INTER-LIGAND FREE ENERGY PREDICTED BY IDOCK:   -7.00 KCAL/MOL
REMARK 924 INTRA-LIGAND FREE ENERGY PREDICTED BY IDOCK:   -0.74 KCAL/MOL
REMARK 927      BINDING AFFINITY PREDICTED BY RF-SCORE:    0.00 PKD
ROOT
HETATM    1  C   UNL     1      -7.272  10.314  68.541  1.00  0.00    -0.080 C  
HETATM    2  C   UNL     1      -6.273   9.183  68.421  1.00  0.00    -0.053 C  
ENDROOT
BRANCH   2   3
HETATM    3  S   UNL     1      -6.887   7.678  69.159  1.00  0.00    -0.054 S  
HETATM    4  O   UNL     1      -6.908   6.641  68.155  1.00  0.00    -0.069 OA 
HETATM    5  O   UNL     1      -6.247   7.495  70.443  1.00  0.00    -0.033 OA 
BRANCH   3   6
HETATM    6  N   UNL     1      -8.484   8.143  69.442  1.00  0.00    -0.126 N  
HETATM    7  C   UNL     1      -9.680   7.673  68.685  1.00  0.00    -0.155 C  
HETATM    8  C   UNL     1     -10.586   8.023  69.911  1.00  0.00    -0.242 C  
HETATM    9  C   UNL     1      -9.245   7.975  70.713  1.00  0.00    -0.157 C  
BRANCH   8  10
HETATM   10  C   UNL     1     -11.705   7.048  70.254  1.00  0.00    -0.284 C  
BRANCH  10  11
HETATM   11  C   UNL     1     -11.660   6.627  71.714  1.00  0.00    -0.304 C  
HETATM   12  H1  UNL     1     -11.592   5.996  73.904  1.00  0.00     0.000 HD 
HETATM   13  N   UNL     1     -11.623   6.278  72.925  1.00  0.00    -0.488 NA 
HETATM   14  H2  UNL     1     -12.524   6.216  73.400  1.00  0.00     0.000 HD 
ENDBRANCH  10  11
ENDBRANCH   8  10
BRANCH   8  15
HETATM   15  N   UNL     1     -11.121   9.367  69.734  1.00  0.00    -0.211 NA 
HETATM   16  N   UNL     1     -11.165   9.929  68.505  1.00  0.00    -0.135 NA 
HETATM   17  C   UNL     1     -11.575  10.212  70.711  1.00  0.00    -0.357 A  
HETATM   18  C   UNL     1     -11.654  11.150  68.725  1.00  0.00    -0.322 A  
HETATM   19  C   UNL     1     -11.921  11.390  70.084  1.00  0.00    -0.460 A  
BRANCH  19  20
HETATM   20  C   UNL     1     -12.468  12.538  70.758  1.00  0.00    -0.268 A  
HETATM   21  C   UNL     1     -12.148  13.838  70.363  1.00  0.00    -0.421 A  
HETATM   22  C   UNL     1     -11.289  14.477  69.423  1.00  0.00    -0.314 A  
HETATM   23  C   UNL     1     -11.483  15.837  69.536  1.00  0.00    -0.353 A  
HETATM   24  N   UNL     1     -12.409  16.047  70.524  1.00  0.00    -0.439 NA 
HETATM   25  H   UNL     1     -12.751  16.960  70.825  1.00  0.00     0.000 HD 
HETATM   26  C   UNL     1     -12.807  14.846  71.046  1.00  0.00    -0.362 A  
HETATM   27  N   UNL     1     -13.692  14.704  72.044  1.00  0.00    -0.389 NA 
HETATM   28  C   UNL     1     -13.891  13.410  72.352  1.00  0.00    -0.564 A  
HETATM   29  N   UNL     1     -13.333  12.328  71.778  1.00  0.00    -0.356 NA 
ENDBRANCH  19  20
ENDBRANCH   8  15
ENDBRANCH   3   6
ENDBRANCH   2   3
TORSDOF 6
ENDMDL
MODEL      100
REMARK 921   NORMALIZED FREE ENERGY PREDICTED BY IDOCK:   -5.34 KCAL/MOL
REMARK 922        TOTAL FREE ENERGY PREDICTED BY IDOCK:   -7.72 KCAL/MOL
REMARK 923 INTER-LIGAND FREE ENERGY PREDICTED BY IDOCK:   -7.47 KCAL/MOL
REMARK 924 INTRA-LIGAND FREE ENERGY PREDICTED BY IDOCK:   -0.25 KCAL/MOL
REMARK 927      BINDING AFFINITY PREDICTED BY RF-SCORE:    0.00 PKD
ROOT
HETATM    1  C   UNL     1      -8.677   6.628  66.091  1.00  0.00    -0.154 C  
HETATM    2  C   UNL     1      -7.825   6.040  67.196  1.00  0.00    -0.102 C  
ENDROOT
BRANCH   2   3
HETATM    3  S   UNL     1      -8.803   5.606  68.625  1.00  0.00    -0.108 S  
HETATM    4  O   UNL     1      -9.912   4.785  68.199  1.00  0.00    -0.145 OA 
HETATM    5  O   UNL     1      -7.914   5.206  69.693  1.00  0.00    -0.077 OA 
BRANCH   3   6
HETATM    6  N   UNL     1      -9.418   7.129  69.010  1.00  0.00    -0.144 N  
HETATM    7  C   UNL     1     -10.734   7.404  69.657  1.00  0.00    -0.235 C  
HETATM    8  C   UNL     1     -10.189   8.781  70.164  1.00  0.00    -0.190 C  
HETATM    9  C   UNL     1      -8.787   8.140  69.906  1.00  0.00    -0.139 C  
BRANCH   8  10
HETATM   10  C   UNL     1     -10.575   9.207  71.574  1.00  0.00    -0.428 C  
BRANCH  10  11
HETATM   11  C   UNL     1     -11.765   8.418  72.096  1.00  0.00    -0.375 C  
HETATM   12  H1  UNL     1     -13.551   7.234  72.879  1.00  0.00     0.000 HD 
HETATM   13  N   UNL     1     -12.752   7.763  72.529  1.00  0.00    -0.534 NA 
HETATM   14  H2  UNL     1     -12.591   6.769  72.696  1.00  0.00     0.000 HD 
ENDBRANCH  10  11
ENDBRANCH   8  10
BRANCH   8  15
HETATM   15  N   UNL     1     -10.552   9.814  69.204  1.00  0.00    -0.211 NA 
HETATM   16  N   UNL     1     -11.216  10.921  69.608  1.00  0.00    -0.262 NA 
HETATM   17  C   UNL     1     -10.338   9.799  67.851  1.00  0.00    -0.213 A  
HETATM   18  C   UNL     1     -11.421  11.605  68.482  1.00  0.00    -0.298 A  
HETATM   19  C   UNL     1     -10.903  10.951  67.349  1.00  0.00    -0.333 A  
BRANCH  19  20
HETATM   20  C   UNL     1     -10.877  11.331  65.962  1.00  0.00    -0.213 A  
HETATM   21  C   UNL     1     -11.535  12.474  65.504  1.00  0.00    -0.389 A  
HETATM   22  C   UNL     1     -12.391  13.484  66.030  1.00  0.00    -0.486 A  
HETATM   23  C   UNL     1     -12.671  14.367  65.010  1.00  0.00    -0.220 A  
HETATM   24  N   UNL     1     -12.037  13.919  63.880  1.00  0.00    -0.754 NA 
HETATM   25  H   UNL     1     -12.066  14.377  62.969  1.00  0.00     0.000 HD 
HETATM   26  C   UNL     1     -11.360  12.763  64.161  1.00  0.00    -0.390 A  
HETATM   27  N   UNL     1     -10.652  12.058  63.266  1.00  0.00    -0.402 NA 
HETATM   28  C   UNL     1     -10.095  10.967  63.821  1.00  0.00    -0.363 A  
HETATM   29  N   UNL     1     -10.168  10.561  65.102  1.00  0.00    -0.306 NA 
ENDBRANCH  19  20
ENDBRANCH   8  15
ENDBRANCH   3   6
ENDBRANCH   2   3
TORSDOF 6
ENDMDL
MODEL      101
REMARK 921   NORMALIZED FREE ENERGY PREDICTED BY IDOCK:   -5.34 KCAL/MOL
REMARK 922        TOTAL FREE ENERGY PREDICTED BY IDOCK:   -7.72 KCAL/MOL
REMARK 923 INTER-LIGAND FREE ENERGY PREDICTED BY IDOCK:   -7.58 KCAL/MOL
REMARK 924 INTRA-LIGAND FREE ENERGY PREDICTED BY IDOCK:   -0.14 KCAL/MOL
REMARK 927      BINDING AFFINITY PREDICTED BY RF-SCORE:    0.00 PKD
ROOT
HETATM    1  C   UNL     1     -10.773   4.416  74.136  1.00  0.00    -0.313 C  
HETATM    2  C   UNL     1     -11.071   5.357  72.988  1.00  0.00    -0.313 C  
ENDROOT
BRANCH   2   3
HETATM    3  S   UNL     1      -9.696   5.475  71.856  1.00  0.00    -0.164 S  
HETATM    4  O   UNL     1      -8.511   5.837  72.598  1.00  0.00    -0.120 OA 
HETATM    5  O   UNL     1      -9.729   4.337  70.965  1.00  0.00    -0.166 OA 
BRANCH   3   6
HETATM    6  N   UNL     1     -10.178   6.831  70.977  1.00  0.00    -0.197 N  
HETATM    7  C   UNL     1      -9.275   7.775  70.257  1.00  0.00    -0.156 C  
HETATM    8  C   UNL     1     -10.463   8.193  69.328  1.00  0.00    -0.214 C  
HETATM    9  C   UNL     1     -11.100   6.848  69.804  1.00  0.00    -0.271 C  
BRANCH   8  10
HETATM   10  C   UNL     1     -10.154   8.400  67.851  1.00  0.00    -0.254 C  
BRANCH  10  11
HETATM   11  C   UNL     1      -8.670   8.249  67.559  1.00  0.00    -0.129 C  
HETATM   12  H1  UNL     1      -6.443   8.023  67.119  1.00  0.00     0.000 HD 
HETATM   13  N   UNL     1      -7.439   8.124  67.315  1.00  0.00    -0.088 NA 
HETATM   14  H2  UNL     1      -7.199   7.554  66.503  1.00  0.00     0.000 HD 
ENDBRANCH  10  11
ENDBRANCH   8  10
BRANCH   8  15
HETATM   15  N   UNL     1     -11.102   9.378  69.884  1.00  0.00    -0.228 NA 
HETATM   16  N   UNL     1     -11.913   9.277  70.960  1.00  0.00    -0.299 NA 
HETATM   17  C   UNL     1     -11.022  10.661  69.410  1.00  0.00    -0.255 A  
HETATM   18  C   UNL     1     -12.350  10.522  71.156  1.00  0.00    -0.405 A  
HETATM   19  C   UNL     1     -11.835  11.430  70.213  1.00  0.00    -0.438 A  
BRANCH  19  20
HETATM   20  C   UNL     1     -12.016  12.849  70.064  1.00  0.00    -0.309 A  
HETATM   21  C   UNL     1     -12.703  13.603  71.018  1.00  0.00    -0.408 A  
HETATM   22  C   UNL     1     -13.435  13.376  72.218  1.00  0.00    -0.683 A  
HETATM   23  C   UNL     1     -13.846  14.602  72.696  1.00  0.00    -0.390 A  
HETATM   24  N   UNL     1     -13.411  15.561  71.818  1.00  0.00    -0.467 NA 
HETATM   25  H   UNL     1     -13.567  16.564  71.918  1.00  0.00     0.000 HD 
HETATM   26  C   UNL     1     -12.733  14.968  70.788  1.00  0.00    -0.381 A  
HETATM   27  N   UNL     1     -12.194  15.627  69.750  1.00  0.00    -0.332 NA 
HETATM   28  C   UNL     1     -11.591  14.790  68.889  1.00  0.00    -0.313 A  
HETATM   29  N   UNL     1     -11.474  13.452  68.979  1.00  0.00    -0.281 NA 
ENDBRANCH  19  20
ENDBRANCH   8  15
ENDBRANCH   3   6
ENDBRANCH   2   3
TORSDOF 6
ENDMDL
MODEL      102
REMARK 921   NORMALIZED FREE ENERGY PREDICTED BY IDOCK:   -5.34 KCAL/MOL
REMARK 922        TOTAL FREE ENERGY PREDICTED BY IDOCK:   -7.72 KCAL/MOL
REMARK 923 INTER-LIGAND FREE ENERGY PREDICTED BY IDOCK:   -7.47 KCAL/MOL
REMARK 924 INTRA-LIGAND FREE ENERGY PREDICTED BY IDOCK:   -0.25 KCAL/MOL
REMARK 927      BINDING AFFINITY PREDICTED BY RF-SCORE:    0.00 PKD
ROOT
HETATM    1  C   UNL     1      -7.731  19.675  68.483  1.00  0.00    -0.369 C  
HETATM    2  C   UNL     1      -8.167  19.672  67.033  1.00  0.00    -0.288 C  
ENDROOT
BRANCH   2   3
HETATM    3  S   UNL     1      -9.833  19.060  66.846  1.00  0.00    -0.355 S  
HETATM    4  O   UNL     1     -10.648  19.590  67.914  1.00  0.00    -0.426 OA 
HETATM    5  O   UNL     1     -10.216  19.173  65.456  1.00  0.00    -0.430 OA 
BRANCH   3   6
HETATM    6  N   UNL     1      -9.565  17.428  67.175  1.00  0.00    -0.258 N  
HETATM    7  C   UNL     1      -9.039  16.415  66.213  1.00  0.00    -0.327 C  
HETATM    8  C   UNL     1      -8.549  15.539  67.414  1.00  0.00    -0.178 C  
HETATM    9  C   UNL     1      -8.665  16.870  68.225  1.00  0.00    -0.235 C  
BRANCH   8  10
HETATM   10  C   UNL     1      -7.195  14.857  67.272  1.00  0.00    -0.142 C  
BRANCH  10  11
HETATM   11  C   UNL     1      -6.339  15.040  68.515  1.00  0.00    -0.092 C  
HETATM   12  H1  UNL     1      -5.054  15.315  70.380  1.00  0.00     0.000 HD 
HETATM   13  N   UNL     1      -5.628  15.193  69.546  1.00  0.00    -0.094 NA 
HETATM   14  H2  UNL     1      -5.087  16.057  69.592  1.00  0.00     0.000 HD 
ENDBRANCH  10  11
ENDBRANCH   8  10
BRANCH   8  15
HETATM   15  N   UNL     1      -9.579  14.560  67.734  1.00  0.00    -0.212 NA 
HETATM   16  N   UNL     1     -10.395  14.083  66.767  1.00  0.00    -0.269 NA 
HETATM   17  C   UNL     1      -9.885  14.054  68.969  1.00  0.00     0.015 A  
HETATM   18  C   UNL     1     -11.226  13.267  67.416  1.00  0.00    -0.289 A  
HETATM   19  C   UNL     1     -10.963  13.214  68.796  1.00  0.00    -0.298 A  
BRANCH  19  20
HETATM   20  C   UNL     1     -11.583  12.460  69.854  1.00  0.00    -0.186 A  
HETATM   21  C   UNL     1     -12.178  13.090  70.948  1.00  0.00    -0.310 A  
HETATM   22  C   UNL     1     -12.332  14.413  71.452  1.00  0.00    -0.433 A  
HETATM   23  C   UNL     1     -13.077  14.336  72.610  1.00  0.00    -0.478 A  
HETATM   24  N   UNL     1     -13.360  13.014  72.839  1.00  0.00    -0.503 NA 
HETATM   25  H   UNL     1     -13.902  12.657  73.626  1.00  0.00     0.000 HD 
HETATM   26  C   UNL     1     -12.806  12.247  71.850  1.00  0.00    -0.213 A  
HETATM   27  N   UNL     1     -12.883  10.909  71.789  1.00  0.00    -0.436 NA 
HETATM   28  C   UNL     1     -12.247  10.422  70.710  1.00  0.00    -0.359 A  
HETATM   29  N   UNL     1     -11.602  11.110  69.750  1.00  0.00    -0.303 NA 
ENDBRANCH  19  20
ENDBRANCH   8  15
ENDBRANCH   3   6
ENDBRANCH   2   3
TORSDOF 6
ENDMDL
MODEL      103
REMARK 921   NORMALIZED FREE ENERGY PREDICTED BY IDOCK:   -5.31 KCAL/MOL
REMARK 922        TOTAL FREE ENERGY PREDICTED BY IDOCK:   -7.68 KCAL/MOL
REMARK 923 INTER-LIGAND FREE ENERGY PREDICTED BY IDOCK:   -7.31 KCAL/MOL
REMARK 924 INTRA-LIGAND FREE ENERGY PREDICTED BY IDOCK:   -0.37 KCAL/MOL
REMARK 927      BINDING AFFINITY PREDICTED BY RF-SCORE:    0.00 PKD
ROOT
HETATM    1  C   UNL     1     -10.527   4.421  65.513  1.00  0.00    -0.228 C  
HETATM    2  C   UNL     1     -10.524   5.415  66.655  1.00  0.00    -0.298 C  
ENDROOT
BRANCH   2   3
HETATM    3  S   UNL     1      -8.871   5.952  67.059  1.00  0.00    -0.113 S  
HETATM    4  O   UNL     1      -8.329   5.075  68.071  1.00  0.00    -0.100 OA 
HETATM    5  O   UNL     1      -8.163   6.242  65.831  1.00  0.00    -0.116 OA 
BRANCH   3   6
HETATM    6  N   UNL     1      -9.233   7.422  67.803  1.00  0.00    -0.131 N  
HETATM    7  C   UNL     1      -9.893   7.592  69.131  1.00  0.00    -0.170 C  
HETATM    8  C   UNL     1      -9.257   9.017  69.256  1.00  0.00    -0.145 C  
HETATM    9  C   UNL     1      -8.264   8.495  68.167  1.00  0.00    -0.120 C  
BRANCH   8  10
HETATM   10  C   UNL     1      -8.729   9.427  70.624  1.00  0.00    -0.263 C  
BRANCH  10  11
HETATM   11  C   UNL     1      -9.501   8.759  71.750  1.00  0.00    -0.293 C  
HETATM   12  H1  UNL     1     -10.659   7.757  73.441  1.00  0.00     0.000 HD 
HETATM   13  N   UNL     1     -10.142   8.205  72.685  1.00  0.00    -0.297 NA 
HETATM   14  H2  UNL     1     -11.141   8.410  72.725  1.00  0.00     0.000 HD 
ENDBRANCH  10  11
ENDBRANCH   8  10
BRANCH   8  15
HETATM   15  N   UNL     1     -10.210  10.003  68.763  1.00  0.00    -0.177 NA 
HETATM   16  N   UNL     1     -11.339  10.269  69.456  1.00  0.00    -0.249 NA 
HETATM   17  C   UNL     1     -10.136  10.713  67.594  1.00  0.00    -0.177 A  
HETATM   18  C   UNL     1     -11.981  11.161  68.701  1.00  0.00    -0.219 A  
HETATM   19  C   UNL     1     -11.283  11.472  67.520  1.00  0.00    -0.360 A  
BRANCH  19  20
HETATM   20  C   UNL     1     -11.586  12.383  66.448  1.00  0.00    -0.384 A  
HETATM   21  C   UNL     1     -11.174  12.134  65.139  1.00  0.00    -0.378 A  
HETATM   22  C   UNL     1     -10.388  11.171  64.442  1.00  0.00    -0.407 A  
HETATM   23  C   UNL     1     -10.400  11.509  63.106  1.00  0.00    -0.324 A  
HETATM   24  N   UNL     1     -11.143  12.653  62.969  1.00  0.00    -0.605 NA 
HETATM   25  H   UNL     1     -11.326  13.133  62.088  1.00  0.00     0.000 HD 
HETATM   26  C   UNL     1     -11.602  13.053  64.195  1.00  0.00    -0.407 A  
HETATM   27  N   UNL     1     -12.345  14.149  64.411  1.00  0.00    -0.636 NA 
HETATM   28  C   UNL     1     -12.650  14.294  65.712  1.00  0.00    -0.384 A  
HETATM   29  N   UNL     1     -12.315  13.488  66.736  1.00  0.00    -0.330 NA 
ENDBRANCH  19  20
ENDBRANCH   8  15
ENDBRANCH   3   6
ENDBRANCH   2   3
TORSDOF 6
ENDMDL
MODEL      104
REMARK 921   NORMALIZED FREE ENERGY PREDICTED BY IDOCK:   -5.30 KCAL/MOL
REMARK 922        TOTAL FREE ENERGY PREDICTED BY IDOCK:   -7.67 KCAL/MOL
REMARK 923 INTER-LIGAND FREE ENERGY PREDICTED BY IDOCK:   -7.19 KCAL/MOL
REMARK 924 INTRA-LIGAND FREE ENERGY PREDICTED BY IDOCK:   -0.48 KCAL/MOL
REMARK 927      BINDING AFFINITY PREDICTED BY RF-SCORE:    0.00 PKD
ROOT
HETATM    1  C   UNL     1      -9.866  19.042  67.876  1.00  0.00    -0.400 C  
HETATM    2  C   UNL     1     -10.675  17.837  67.446  1.00  0.00    -0.279 C  
ENDROOT
BRANCH   2   3
HETATM    3  S   UNL     1     -10.087  17.162  65.902  1.00  0.00    -0.183 S  
HETATM    4  O   UNL     1     -10.979  17.574  64.842  1.00  0.00    -0.887 OA 
HETATM    5  O   UNL     1      -8.656  17.359  65.824  1.00  0.00    -0.526 OA 
BRANCH   3   6
HETATM    6  N   UNL     1     -10.366  15.524  66.193  1.00  0.00    -0.298 N  
HETATM    7  C   UNL     1      -9.587  14.655  67.121  1.00  0.00    -0.233 C  
HETATM    8  C   UNL     1     -10.813  13.689  67.235  1.00  0.00    -0.284 C  
HETATM    9  C   UNL     1     -11.626  14.916  66.709  1.00  0.00    -0.269 C  
BRANCH   8  10
HETATM   10  C   UNL     1     -11.122  13.113  68.610  1.00  0.00    -0.304 C  
BRANCH  10  11
HETATM   11  C   UNL     1     -11.689  11.705  68.518  1.00  0.00    -0.315 C  
HETATM   12  H1  UNL     1     -12.539   9.593  68.380  1.00  0.00     0.000 HD 
HETATM   13  N   UNL     1     -12.159  10.538  68.442  1.00  0.00    -0.774 NA 
HETATM   14  H2  UNL     1     -12.920  10.319  69.086  1.00  0.00     0.000 HD 
ENDBRANCH  10  11
ENDBRANCH   8  10
BRANCH   8  15
HETATM   15  N   UNL     1     -10.662  12.619  66.258  1.00  0.00    -0.253 NA 
HETATM   16  N   UNL     1     -11.712  12.232  65.500  1.00  0.00    -0.386 NA 
HETATM   17  C   UNL     1      -9.540  11.871  66.016  1.00  0.00    -0.235 A  
HETATM   18  C   UNL     1     -11.232  11.221  64.774  1.00  0.00    -0.058 A  
HETATM   19  C   UNL     1      -9.884  10.942  65.059  1.00  0.00    -0.336 A  
BRANCH  19  20
HETATM   20  C   UNL     1      -8.976   9.972  64.506  1.00  0.00    -0.226 A  
HETATM   21  C   UNL     1      -8.049   9.301  65.305  1.00  0.00    -0.121 A  
HETATM   22  C   UNL     1      -7.611   9.319  66.660  1.00  0.00    -0.093 A  
HETATM   23  C   UNL     1      -6.643   8.347  66.800  1.00  0.00    -0.057 A  
HETATM   24  N   UNL     1      -6.462   7.757  65.576  1.00  0.00    -0.042 NA 
HETATM   25  H   UNL     1      -5.807   7.000  65.380  1.00  0.00     0.000 HD 
HETATM   26  C   UNL     1      -7.293   8.338  64.657  1.00  0.00    -0.090 A  
HETATM   27  N   UNL     1      -7.348   8.003  63.359  1.00  0.00    -0.101 NA 
HETATM   28  C   UNL     1      -8.254   8.739  62.693  1.00  0.00    -0.194 A  
HETATM   29  N   UNL     1      -9.061   9.699  63.182  1.00  0.00    -0.247 NA 
ENDBRANCH  19  20
ENDBRANCH   8  15
ENDBRANCH   3   6
ENDBRANCH   2   3
TORSDOF 6
ENDMDL
MODEL      105
REMARK 921   NORMALIZED FREE ENERGY PREDICTED BY IDOCK:   -5.30 KCAL/MOL
REMARK 922        TOTAL FREE ENERGY PREDICTED BY IDOCK:   -7.67 KCAL/MOL
REMARK 923 INTER-LIGAND FREE ENERGY PREDICTED BY IDOCK:   -6.82 KCAL/MOL
REMARK 924 INTRA-LIGAND FREE ENERGY PREDICTED BY IDOCK:   -0.85 KCAL/MOL
REMARK 927      BINDING AFFINITY PREDICTED BY RF-SCORE:    0.00 PKD
ROOT
HETATM    1  C   UNL     1      -6.251   9.695  68.958  1.00  0.00    -0.041 C  
HETATM    2  C   UNL     1      -7.253   8.892  68.155  1.00  0.00    -0.079 C  
ENDROOT
BRANCH   2   3
HETATM    3  S   UNL     1      -8.923   9.165  68.719  1.00  0.00    -0.137 S  
HETATM    4  O   UNL     1      -9.637   7.909  68.693  1.00  0.00    -0.152 OA 
HETATM    5  O   UNL     1      -8.885  10.005  69.897  1.00  0.00    -0.205 OA 
BRANCH   3   6
HETATM    6  N   UNL     1      -9.497  10.101  67.439  1.00  0.00    -0.151 N  
HETATM    7  C   UNL     1      -8.663  10.739  66.378  1.00  0.00    -0.158 C  
HETATM    8  C   UNL     1      -9.906  10.769  65.428  1.00  0.00    -0.262 C  
HETATM    9  C   UNL     1     -10.469   9.674  66.392  1.00  0.00    -0.111 C  
BRANCH   8  10
HETATM   10  C   UNL     1      -9.672  10.434  63.962  1.00  0.00    -0.373 C  
BRANCH  10  11
HETATM   11  C   UNL     1      -8.195  10.478  63.602  1.00  0.00    -0.076 C  
HETATM   12  H1  UNL     1      -5.980  10.544  63.062  1.00  0.00     0.000 HD 
HETATM   13  N   UNL     1      -6.971  10.515  63.303  1.00  0.00    -0.332 NA 
HETATM   14  H2  UNL     1      -6.751  10.448  62.309  1.00  0.00     0.000 HD 
ENDBRANCH  10  11
ENDBRANCH   8  10
BRANCH   8  15
HETATM   15  N   UNL     1     -10.566  12.062  65.554  1.00  0.00    -0.263 NA 
HETATM   16  N   UNL     1     -11.831  12.231  65.110  1.00  0.00    -0.368 NA 
HETATM   17  C   UNL     1     -10.030  13.219  66.056  1.00  0.00    -0.292 A  
HETATM   18  C   UNL     1     -12.085  13.520  65.337  1.00  0.00    -0.415 A  
HETATM   19  C   UNL     1     -10.995  14.192  65.918  1.00  0.00    -0.297 A  
BRANCH  19  20
HETATM   20  C   UNL     1     -10.838  15.557  66.346  1.00  0.00    -0.277 A  
HETATM   21  C   UNL     1     -10.897  15.911  67.695  1.00  0.00    -0.312 A  
HETATM   22  C   UNL     1     -11.163  15.280  68.943  1.00  0.00    -0.291 A  
HETATM   23  C   UNL     1     -11.028  16.232  69.931  1.00  0.00    -0.365 A  
HETATM   24  N   UNL     1     -10.715  17.422  69.326  1.00  0.00    -0.352 NA 
HETATM   25  H   UNL     1     -10.554  18.304  69.812  1.00  0.00     0.000 HD 
HETATM   26  C   UNL     1     -10.650  17.246  67.970  1.00  0.00    -0.394 A  
HETATM   27  N   UNL     1     -10.384  18.219  67.087  1.00  0.00    -0.368 NA 
HETATM   28  C   UNL     1     -10.386  17.759  65.824  1.00  0.00    -0.186 A  
HETATM   29  N   UNL     1     -10.601  16.499  65.403  1.00  0.00    -0.563 NA 
ENDBRANCH  19  20
ENDBRANCH   8  15
ENDBRANCH   3   6
ENDBRANCH   2   3
TORSDOF 6
ENDMDL
MODEL      106
REMARK 921   NORMALIZED FREE ENERGY PREDICTED BY IDOCK:   -5.30 KCAL/MOL
REMARK 922        TOTAL FREE ENERGY PREDICTED BY IDOCK:   -7.66 KCAL/MOL
REMARK 923 INTER-LIGAND FREE ENERGY PREDICTED BY IDOCK:   -6.81 KCAL/MOL
REMARK 924 INTRA-LIGAND FREE ENERGY PREDICTED BY IDOCK:   -0.86 KCAL/MOL
REMARK 927      BINDING AFFINITY PREDICTED BY RF-SCORE:    0.00 PKD
ROOT
HETATM    1  C   UNL     1     -10.494   5.091  72.165  1.00  0.00    -0.274 C  
HETATM    2  C   UNL     1     -11.545   6.105  71.761  1.00  0.00    -0.275 C  
ENDROOT
BRANCH   2   3
HETATM    3  S   UNL     1     -11.204   7.717  72.446  1.00  0.00    -0.365 S  
HETATM    4  O   UNL     1     -12.445   8.308  72.889  1.00  0.00    -0.202 OA 
HETATM    5  O   UNL     1     -10.045   7.622  73.306  1.00  0.00    -0.291 OA 
BRANCH   3   6
HETATM    6  N   UNL     1     -10.734   8.520  71.038  1.00  0.00    -0.219 N  
HETATM    7  C   UNL     1      -9.460   9.271  70.842  1.00  0.00    -0.261 C  
HETATM    8  C   UNL     1      -9.589   9.072  69.295  1.00  0.00    -0.162 C  
HETATM    9  C   UNL     1     -10.565   7.915  69.686  1.00  0.00    -0.234 C  
BRANCH   8  10
HETATM   10  C   UNL     1      -8.315   8.756  68.524  1.00  0.00    -0.129 C  
BRANCH  10  11
HETATM   11  C   UNL     1      -7.589   7.551  69.102  1.00  0.00    -0.100 C  
HETATM   12  H1  UNL     1      -6.501   5.744  69.970  1.00  0.00     0.000 HD 
HETATM   13  N   UNL     1      -6.987   6.553  69.583  1.00  0.00    -0.065 NA 
HETATM   14  H2  UNL     1      -6.522   6.699  70.479  1.00  0.00     0.000 HD 
ENDBRANCH  10  11
ENDBRANCH   8  10
BRANCH   8  15
HETATM   15  N   UNL     1     -10.252  10.236  68.724  1.00  0.00    -0.181 NA 
HETATM   16  N   UNL     1     -11.002  10.116  67.605  1.00  0.00    -0.297 NA 
HETATM   17  C   UNL     1     -10.182  11.530  69.168  1.00  0.00    -0.013 A  
HETATM   18  C   UNL     1     -11.402  11.362  67.348  1.00  0.00    -0.288 A  
HETATM   19  C   UNL     1     -10.915  12.291  68.284  1.00  0.00    -0.268 A  
BRANCH  19  20
HETATM   20  C   UNL     1     -11.112  13.711  68.405  1.00  0.00    -0.264 A  
HETATM   21  C   UNL     1     -11.804  14.263  69.485  1.00  0.00    -0.378 A  
HETATM   22  C   UNL     1     -12.531  13.805  70.621  1.00  0.00    -0.429 A  
HETATM   23  C   UNL     1     -12.954  14.915  71.322  1.00  0.00    -0.363 A  
HETATM   24  N   UNL     1     -12.532  16.027  70.641  1.00  0.00    -0.488 NA 
HETATM   25  H   UNL     1     -12.701  16.991  70.928  1.00  0.00     0.000 HD 
HETATM   26  C   UNL     1     -11.851  15.647  69.516  1.00  0.00    -0.372 A  
HETATM   27  N   UNL     1     -11.323  16.496  68.621  1.00  0.00    -0.308 NA 
HETATM   28  C   UNL     1     -10.713  15.844  67.617  1.00  0.00    -0.312 A  
HETATM   29  N   UNL     1     -10.581  14.514  67.453  1.00  0.00    -0.268 NA 
ENDBRANCH  19  20
ENDBRANCH   8  15
ENDBRANCH   3   6
ENDBRANCH   2   3
TORSDOF 6
ENDMDL
MODEL      107
REMARK 921   NORMALIZED FREE ENERGY PREDICTED BY IDOCK:   -5.29 KCAL/MOL
REMARK 922        TOTAL FREE ENERGY PREDICTED BY IDOCK:   -7.66 KCAL/MOL
REMARK 923 INTER-LIGAND FREE ENERGY PREDICTED BY IDOCK:   -6.94 KCAL/MOL
REMARK 924 INTRA-LIGAND FREE ENERGY PREDICTED BY IDOCK:   -0.72 KCAL/MOL
REMARK 927      BINDING AFFINITY PREDICTED BY RF-SCORE:    0.00 PKD
ROOT
HETATM    1  C   UNL     1     -10.933   8.233  72.274  1.00  0.00    -0.418 C  
HETATM    2  C   UNL     1     -11.615   8.145  70.924  1.00  0.00    -0.267 C  
ENDROOT
BRANCH   2   3
HETATM    3  S   UNL     1     -10.533   7.458  69.682  1.00  0.00    -0.235 S  
HETATM    4  O   UNL     1      -9.215   7.291  70.251  1.00  0.00    -0.155 OA 
HETATM    5  O   UNL     1     -11.223   6.379  69.010  1.00  0.00    -0.347 OA 
BRANCH   3   6
HETATM    6  N   UNL     1     -10.466   8.767  68.621  1.00  0.00    -0.206 N  
HETATM    7  C   UNL     1      -9.238   9.522  68.238  1.00  0.00    -0.130 C  
HETATM    8  C   UNL     1      -9.940   9.982  66.917  1.00  0.00    -0.209 C  
HETATM    9  C   UNL     1     -10.894   8.774  67.192  1.00  0.00     0.008 C  
BRANCH   8  10
HETATM   10  C   UNL     1      -9.097  10.003  65.650  1.00  0.00    -0.222 C  
BRANCH  10  11
HETATM   11  C   UNL     1      -9.862  10.586  64.472  1.00  0.00    -0.337 C  
HETATM   12  H1  UNL     1     -11.010  11.460  62.706  1.00  0.00     0.000 HD 
HETATM   13  N   UNL     1     -10.497  11.069  63.496  1.00  0.00    -0.532 NA 
HETATM   14  H2  UNL     1     -11.507  10.919  63.501  1.00  0.00     0.000 HD 
ENDBRANCH  10  11
ENDBRANCH   8  10
BRANCH   8  15
HETATM   15  N   UNL     1     -10.556  11.283  67.139  1.00  0.00    -0.223 NA 
HETATM   16  N   UNL     1     -11.813  11.528  66.707  1.00  0.00    -0.446 NA 
HETATM   17  C   UNL     1      -9.984  12.380  67.727  1.00  0.00    -0.205 A  
HETATM   18  C   UNL     1     -12.024  12.804  67.029  1.00  0.00    -0.295 A  
HETATM   19  C   UNL     1     -10.915  13.394  67.661  1.00  0.00    -0.277 A  
BRANCH  19  20
HETATM   20  C   UNL     1     -10.714  14.716  68.190  1.00  0.00    -0.242 A  
HETATM   21  C   UNL     1      -9.836  15.619  67.588  1.00  0.00    -0.227 A  
HETATM   22  C   UNL     1      -8.902  15.629  66.513  1.00  0.00    -0.345 A  
HETATM   23  C   UNL     1      -8.367  16.897  66.436  1.00  0.00    -0.298 A  
HETATM   24  N   UNL     1      -8.922  17.649  67.438  1.00  0.00    -0.230 NA 
HETATM   25  H   UNL     1      -8.714  18.630  67.622  1.00  0.00     0.000 HD 
HETATM   26  C   UNL     1      -9.800  16.882  68.155  1.00  0.00    -0.264 A  
HETATM   27  N   UNL     1     -10.497  17.313  69.218  1.00  0.00    -0.305 NA 
HETATM   28  C   UNL     1     -11.280  16.345  69.725  1.00  0.00    -0.249 A  
HETATM   29  N   UNL     1     -11.426  15.082  69.283  1.00  0.00    -0.288 NA 
ENDBRANCH  19  20
ENDBRANCH   8  15
ENDBRANCH   3   6
ENDBRANCH   2   3
TORSDOF 6
ENDMDL
MODEL      108
REMARK 921   NORMALIZED FREE ENERGY PREDICTED BY IDOCK:   -5.29 KCAL/MOL
REMARK 922        TOTAL FREE ENERGY PREDICTED BY IDOCK:   -7.65 KCAL/MOL
REMARK 923 INTER-LIGAND FREE ENERGY PREDICTED BY IDOCK:   -7.23 KCAL/MOL
REMARK 924 INTRA-LIGAND FREE ENERGY PREDICTED BY IDOCK:   -0.42 KCAL/MOL
REMARK 927      BINDING AFFINITY PREDICTED BY RF-SCORE:    0.00 PKD
ROOT
HETATM    1  C   UNL     1     -10.430   9.276  68.581  1.00  0.00    -0.236 C  
HETATM    2  C   UNL     1     -10.337  10.348  69.646  1.00  0.00    -0.226 C  
ENDROOT
BRANCH   2   3
HETATM    3  S   UNL     1     -11.848  11.290  69.769  1.00  0.00    -0.392 S  
HETATM    4  O   UNL     1     -12.875  10.628  68.999  1.00  0.00     0.033 OA 
HETATM    5  O   UNL     1     -12.047  11.673  71.149  1.00  0.00    -0.232 OA 
BRANCH   3   6
HETATM    6  N   UNL     1     -11.383  12.668  68.915  1.00  0.00    -0.278 N  
HETATM    7  C   UNL     1     -10.109  12.841  68.157  1.00  0.00    -0.239 C  
HETATM    8  C   UNL     1     -10.787  13.948  67.283  1.00  0.00    -0.286 C  
HETATM    9  C   UNL     1     -12.120  13.304  67.785  1.00  0.00    -0.237 C  
BRANCH   8  10
HETATM   10  C   UNL     1     -10.467  13.955  65.794  1.00  0.00    -0.313 C  
BRANCH  10  11
HETATM   11  C   UNL     1     -11.690  13.631  64.952  1.00  0.00    -0.360 C  
HETATM   12  H1  UNL     1     -13.526  13.144  63.688  1.00  0.00     0.000 HD 
HETATM   13  N   UNL     1     -12.705  13.361  64.254  1.00  0.00    -0.656 NA 
HETATM   14  H2  UNL     1     -13.002  12.385  64.254  1.00  0.00     0.000 HD 
ENDBRANCH  10  11
ENDBRANCH   8  10
BRANCH   8  15
HETATM   15  N   UNL     1     -10.503  15.251  67.869  1.00  0.00    -0.249 NA 
HETATM   16  N   UNL     1     -10.980  15.568  69.094  1.00  0.00    -0.243 NA 
HETATM   17  C   UNL     1      -9.811  16.284  67.295  1.00  0.00    -0.243 A  
HETATM   18  C   UNL     1     -10.577  16.825  69.283  1.00  0.00    -0.336 A  
HETATM   19  C   UNL     1      -9.850  17.330  68.190  1.00  0.00    -0.290 A  
BRANCH  19  20
HETATM   20  C   UNL     1      -9.217  18.605  67.977  1.00  0.00    -0.304 A  
HETATM   21  C   UNL     1      -7.889  18.832  68.343  1.00  0.00    -0.351 A  
HETATM   22  C   UNL     1      -6.841  18.133  69.006  1.00  0.00    -0.257 A  
HETATM   23  C   UNL     1      -5.732  18.952  69.015  1.00  0.00    -0.215 A  
HETATM   24  N   UNL     1      -6.075  20.129  68.403  1.00  0.00    -0.264 NA 
HETATM   25  H   UNL     1      -5.450  20.923  68.263  1.00  0.00     0.000 HD 
HETATM   26  C   UNL     1      -7.384  20.077  68.007  1.00  0.00    -0.291 A  
HETATM   27  N   UNL     1      -8.036  21.077  67.394  1.00  0.00    -0.143 NA 
HETATM   28  C   UNL     1      -9.311  20.748  67.124  1.00  0.00    -0.262 A  
HETATM   29  N   UNL     1      -9.937  19.584  67.380  1.00  0.00    -0.360 NA 
ENDBRANCH  19  20
ENDBRANCH   8  15
ENDBRANCH   3   6
ENDBRANCH   2   3
TORSDOF 6
ENDMDL
MODEL      109
REMARK 921   NORMALIZED FREE ENERGY PREDICTED BY IDOCK:   -5.28 KCAL/MOL
REMARK 922        TOTAL FREE ENERGY PREDICTED BY IDOCK:   -7.64 KCAL/MOL
REMARK 923 INTER-LIGAND FREE ENERGY PREDICTED BY IDOCK:   -7.11 KCAL/MOL
REMARK 924 INTRA-LIGAND FREE ENERGY PREDICTED BY IDOCK:   -0.53 KCAL/MOL
REMARK 927      BINDING AFFINITY PREDICTED BY RF-SCORE:    0.00 PKD
ROOT
HETATM    1  C   UNL     1      -9.672  17.421  68.524  1.00  0.00    -0.304 C  
HETATM    2  C   UNL     1     -10.672  17.725  67.428  1.00  0.00    -0.279 C  
ENDROOT
BRANCH   2   3
HETATM    3  S   UNL     1     -10.123  17.114  65.844  1.00  0.00    -0.183 S  
HETATM    4  O   UNL     1     -11.003  17.620  64.817  1.00  0.00    -0.917 OA 
HETATM    5  O   UNL     1      -8.685  17.254  65.765  1.00  0.00    -0.531 OA 
BRANCH   3   6
HETATM    6  N   UNL     1     -10.469  15.475  66.047  1.00  0.00    -0.307 N  
HETATM    7  C   UNL     1     -11.702  14.912  66.670  1.00  0.00    -0.217 C  
HETATM    8  C   UNL     1     -11.475  13.573  65.892  1.00  0.00    -0.320 C  
HETATM    9  C   UNL     1     -10.566  14.448  64.970  1.00  0.00    -0.432 C  
BRANCH   8  10
HETATM   10  C   UNL     1     -12.703  12.888  65.309  1.00  0.00    -0.389 C  
BRANCH  10  11
HETATM   11  C   UNL     1     -12.376  12.136  64.029  1.00  0.00    -0.451 C  
HETATM   12  H1  UNL     1     -11.886  11.008  62.108  1.00  0.00     0.000 HD 
HETATM   13  N   UNL     1     -12.105  11.513  62.967  1.00  0.00    -0.920 NA 
HETATM   14  H2  UNL     1     -12.633  11.790  62.139  1.00  0.00     0.000 HD 
ENDBRANCH  10  11
ENDBRANCH   8  10
BRANCH   8  15
HETATM   15  N   UNL     1     -10.737  12.651  66.745  1.00  0.00    -0.237 NA 
HETATM   16  N   UNL     1     -10.472  12.972  68.032  1.00  0.00    -0.222 NA 
HETATM   17  C   UNL     1     -10.201  11.442  66.389  1.00  0.00    -0.230 A  
HETATM   18  C   UNL     1      -9.754  11.943  68.482  1.00  0.00    -0.169 A  
HETATM   19  C   UNL     1      -9.544  10.959  67.500  1.00  0.00    -0.171 A  
BRANCH  19  20
HETATM   20  C   UNL     1      -8.859   9.694  67.552  1.00  0.00    -0.125 A  
HETATM   21  C   UNL     1      -7.479   9.602  67.366  1.00  0.00    -0.091 A  
HETATM   22  C   UNL     1      -6.397  10.466  67.032  1.00  0.00    -0.072 A  
HETATM   23  C   UNL     1      -5.243   9.712  67.038  1.00  0.00    -0.038 A  
HETATM   24  N   UNL     1      -5.588   8.420  67.339  1.00  0.00    -0.038 NA 
HETATM   25  H   UNL     1      -4.935   7.639  67.415  1.00  0.00     0.000 HD 
HETATM   26  C   UNL     1      -6.941   8.336  67.522  1.00  0.00    -0.075 A  
HETATM   27  N   UNL     1      -7.603   7.205  67.810  1.00  0.00    -0.108 NA 
HETATM   28  C   UNL     1      -8.924   7.419  67.933  1.00  0.00    -0.131 A  
HETATM   29  N   UNL     1      -9.588   8.584  67.817  1.00  0.00    -0.152 NA 
ENDBRANCH  19  20
ENDBRANCH   8  15
ENDBRANCH   3   6
ENDBRANCH   2   3
TORSDOF 6
ENDMDL
MODEL      110
REMARK 921   NORMALIZED FREE ENERGY PREDICTED BY IDOCK:   -5.28 KCAL/MOL
REMARK 922        TOTAL FREE ENERGY PREDICTED BY IDOCK:   -7.64 KCAL/MOL
REMARK 923 INTER-LIGAND FREE ENERGY PREDICTED BY IDOCK:   -7.04 KCAL/MOL
REMARK 924 INTRA-LIGAND FREE ENERGY PREDICTED BY IDOCK:   -0.59 KCAL/MOL
REMARK 927      BINDING AFFINITY PREDICTED BY RF-SCORE:    0.00 PKD
ROOT
HETATM    1  C   UNL     1     -10.520  19.428  65.966  1.00  0.00    -0.596 C  
HETATM    2  C   UNL     1      -9.685  20.430  66.734  1.00  0.00    -0.388 C  
ENDROOT
BRANCH   2   3
HETATM    3  S   UNL     1      -7.953  19.998  66.716  1.00  0.00    -0.316 S  
HETATM    4  O   UNL     1      -7.485  20.004  65.349  1.00  0.00    -0.315 OA 
HETATM    5  O   UNL     1      -7.280  20.733  67.764  1.00  0.00    -0.295 OA 
BRANCH   3   6
HETATM    6  N   UNL     1      -8.065  18.388  67.207  1.00  0.00    -0.237 N  
HETATM    7  C   UNL     1      -7.328  17.237  66.609  1.00  0.00    -0.247 C  
HETATM    8  C   UNL     1      -7.502  16.441  67.945  1.00  0.00    -0.140 C  
HETATM    9  C   UNL     1      -7.766  17.851  68.565  1.00  0.00    -0.297 C  
BRANCH   8  10
HETATM   10  C   UNL     1      -6.316  15.616  68.426  1.00  0.00    -0.111 C  
BRANCH  10  11
HETATM   11  C   UNL     1      -5.749  16.151  69.731  1.00  0.00    -0.155 C  
HETATM   12  H1  UNL     1      -4.898  16.953  71.690  1.00  0.00     0.000 HD 
HETATM   13  N   UNL     1      -5.278  16.594  70.814  1.00  0.00    -0.208 NA 
HETATM   14  H2  UNL     1      -5.399  17.595  70.977  1.00  0.00     0.000 HD 
ENDBRANCH  10  11
ENDBRANCH   8  10
BRANCH   8  15
HETATM   15  N   UNL     1      -8.692  15.607  67.845  1.00  0.00    -0.166 NA 
HETATM   16  N   UNL     1      -9.612  15.840  66.882  1.00  0.00    -0.224 NA 
HETATM   17  C   UNL     1      -9.054  14.578  68.674  1.00  0.00    -0.187 A  
HETATM   18  C   UNL     1     -10.566  14.939  67.119  1.00  0.00    -0.285 A  
HETATM   19  C   UNL     1     -10.279  14.128  68.232  1.00  0.00    -0.243 A  
BRANCH  19  20
HETATM   20  C   UNL     1     -11.003  13.033  68.821  1.00  0.00    -0.258 A  
HETATM   21  C   UNL     1     -10.903  11.735  68.317  1.00  0.00    -0.259 A  
HETATM   22  C   UNL     1     -10.284  11.072  67.219  1.00  0.00    -0.234 A  
HETATM   23  C   UNL     1     -10.577   9.728  67.323  1.00  0.00    -0.255 A  
HETATM   24  N   UNL     1     -11.369   9.556  68.428  1.00  0.00    -0.457 NA 
HETATM   25  H   UNL     1     -11.738   8.662  68.754  1.00  0.00     0.000 HD 
HETATM   26  C   UNL     1     -11.590  10.766  69.029  1.00  0.00    -0.299 A  
HETATM   27  N   UNL     1     -12.342  10.947  70.125  1.00  0.00    -0.324 NA 
HETATM   28  C   UNL     1     -12.384  12.239  70.492  1.00  0.00    -0.264 A  
HETATM   29  N   UNL     1     -11.770  13.285  69.909  1.00  0.00    -0.287 NA 
ENDBRANCH  19  20
ENDBRANCH   8  15
ENDBRANCH   3   6
ENDBRANCH   2   3
TORSDOF 6
ENDMDL
MODEL      111
REMARK 921   NORMALIZED FREE ENERGY PREDICTED BY IDOCK:   -5.27 KCAL/MOL
REMARK 922        TOTAL FREE ENERGY PREDICTED BY IDOCK:   -7.64 KCAL/MOL
REMARK 923 INTER-LIGAND FREE ENERGY PREDICTED BY IDOCK:   -6.99 KCAL/MOL
REMARK 924 INTRA-LIGAND FREE ENERGY PREDICTED BY IDOCK:   -0.65 KCAL/MOL
REMARK 927      BINDING AFFINITY PREDICTED BY RF-SCORE:    0.00 PKD
ROOT
HETATM    1  C   UNL     1     -11.988  14.559  67.124  1.00  0.00    -0.373 C  
HETATM    2  C   UNL     1     -12.616  13.811  65.967  1.00  0.00    -0.408 C  
ENDROOT
BRANCH   2   3
HETATM    3  S   UNL     1     -11.400  13.330  64.753  1.00  0.00    -0.343 S  
HETATM    4  O   UNL     1     -12.063  12.625  63.681  1.00  0.00    -0.466 OA 
HETATM    5  O   UNL     1     -10.519  14.451  64.509  1.00  0.00    -0.349 OA 
BRANCH   3   6
HETATM    6  N   UNL     1     -10.545  12.191  65.657  1.00  0.00    -0.253 N  
HETATM    7  C   UNL     1     -10.577  10.713  65.458  1.00  0.00    -0.110 C  
HETATM    8  C   UNL     1      -9.181  10.595  66.155  1.00  0.00    -0.172 C  
HETATM    9  C   UNL     1      -9.065  12.118  65.822  1.00  0.00     0.066 C  
BRANCH   8  10
HETATM   10  C   UNL     1      -8.182   9.614  65.555  1.00  0.00    -0.126 C  
BRANCH  10  11
HETATM   11  C   UNL     1      -6.927  10.317  65.063  1.00  0.00    -0.112 C  
HETATM   12  H1  UNL     1      -5.044  11.371  64.325  1.00  0.00     0.000 HD 
HETATM   13  N   UNL     1      -5.886  10.900  64.655  1.00  0.00    -0.382 NA 
HETATM   14  H2  UNL     1      -5.615  11.741  65.166  1.00  0.00     0.000 HD 
ENDBRANCH  10  11
ENDBRANCH   8  10
BRANCH   8  15
HETATM   15  N   UNL     1      -9.382  10.314  67.569  1.00  0.00    -0.147 NA 
HETATM   16  N   UNL     1      -8.327  10.259  68.413  1.00  0.00    -0.115 NA 
HETATM   17  C   UNL     1     -10.567  10.036  68.198  1.00  0.00    -0.227 A  
HETATM   18  C   UNL     1      -8.869   9.937  69.589  1.00  0.00    -0.208 A  
HETATM   19  C   UNL     1     -10.264   9.775  69.516  1.00  0.00    -0.238 A  
BRANCH  19  20
HETATM   20  C   UNL     1     -11.238   9.459  70.527  1.00  0.00    -0.275 A  
HETATM   21  C   UNL     1     -11.023   8.440  71.455  1.00  0.00    -0.326 A  
HETATM   22  C   UNL     1     -10.047   7.436  71.717  1.00  0.00    -0.197 A  
HETATM   23  C   UNL     1     -10.444   6.750  72.845  1.00  0.00    -0.234 A  
HETATM   24  N   UNL     1     -11.635   7.285  73.263  1.00  0.00    -0.503 NA 
HETATM   25  H   UNL     1     -12.164   6.976  74.079  1.00  0.00     0.000 HD 
HETATM   26  C   UNL     1     -12.007   8.297  72.420  1.00  0.00    -0.384 A  
HETATM   27  N   UNL     1     -13.134   9.014  72.539  1.00  0.00    -0.427 NA 
HETATM   28  C   UNL     1     -13.240   9.939  71.570  1.00  0.00    -0.408 A  
HETATM   29  N   UNL     1     -12.370  10.200  70.577  1.00  0.00    -0.269 NA 
ENDBRANCH  19  20
ENDBRANCH   8  15
ENDBRANCH   3   6
ENDBRANCH   2   3
TORSDOF 6
ENDMDL
MODEL      112
REMARK 921   NORMALIZED FREE ENERGY PREDICTED BY IDOCK:   -5.25 KCAL/MOL
REMARK 922        TOTAL FREE ENERGY PREDICTED BY IDOCK:   -7.60 KCAL/MOL
REMARK 923 INTER-LIGAND FREE ENERGY PREDICTED BY IDOCK:   -7.18 KCAL/MOL
REMARK 924 INTRA-LIGAND FREE ENERGY PREDICTED BY IDOCK:   -0.42 KCAL/MOL
REMARK 927      BINDING AFFINITY PREDICTED BY RF-SCORE:    0.00 PKD
ROOT
HETATM    1  C   UNL     1     -10.639  18.184  67.156  1.00  0.00    -0.362 C  
HETATM    2  C   UNL     1     -10.136  16.755  67.173  1.00  0.00    -0.282 C  
ENDROOT
BRANCH   2   3
HETATM    3  S   UNL     1      -9.881  16.165  68.838  1.00  0.00    -0.251 S  
HETATM    4  O   UNL     1      -8.480  16.283  69.166  1.00  0.00    -0.251 OA 
HETATM    5  O   UNL     1     -10.919  16.707  69.687  1.00  0.00    -0.318 OA 
BRANCH   3   6
HETATM    6  N   UNL     1     -10.211  14.528  68.603  1.00  0.00    -0.238 N  
HETATM    7  C   UNL     1     -11.319  13.968  67.775  1.00  0.00    -0.303 C  
HETATM    8  C   UNL     1     -10.516  12.634  67.617  1.00  0.00    -0.219 C  
HETATM    9  C   UNL     1      -9.288  13.510  68.024  1.00  0.00    -0.213 C  
BRANCH   8  10
HETATM   10  C   UNL     1     -10.543  11.962  66.251  1.00  0.00    -0.289 C  
BRANCH  10  11
HETATM   11  C   UNL     1     -10.470  12.976  65.121  1.00  0.00    -0.320 C  
HETATM   12  H1  UNL     1     -10.362  14.499  63.426  1.00  0.00     0.000 HD 
HETATM   13  N   UNL     1     -10.410  13.818  64.183  1.00  0.00    -0.667 NA 
HETATM   14  H2  UNL     1     -10.456  13.437  63.237  1.00  0.00     0.000 HD 
ENDBRANCH  10  11
ENDBRANCH   8  10
BRANCH   8  15
HETATM   15  N   UNL     1     -10.945  11.701  68.650  1.00  0.00    -0.205 NA 
HETATM   16  N   UNL     1     -12.245  11.638  69.018  1.00  0.00    -0.339 NA 
HETATM   17  C   UNL     1     -10.155  10.852  69.378  1.00  0.00    -0.088 A  
HETATM   18  C   UNL     1     -12.260  10.733  69.998  1.00  0.00    -0.334 A  
HETATM   19  C   UNL     1     -10.984  10.213  70.275  1.00  0.00    -0.380 A  
BRANCH  19  20
HETATM   20  C   UNL     1     -10.547   9.217  71.217  1.00  0.00    -0.329 A  
HETATM   21  C   UNL     1      -9.199   8.877  71.348  1.00  0.00    -0.328 A  
HETATM   22  C   UNL     1      -7.962   9.195  70.719  1.00  0.00    -0.192 A  
HETATM   23  C   UNL     1      -6.967   8.503  71.378  1.00  0.00    -0.079 A  
HETATM   24  N   UNL     1      -7.558   7.759  72.366  1.00  0.00    -0.083 NA 
HETATM   25  H   UNL     1      -7.064   7.148  73.016  1.00  0.00     0.000 HD 
HETATM   26  C   UNL     1      -8.912   7.962  72.347  1.00  0.00    -0.163 A  
HETATM   27  N   UNL     1      -9.783   7.365  73.175  1.00  0.00    -0.206 NA 
HETATM   28  C   UNL     1     -11.047   7.751  72.928  1.00  0.00    -0.398 A  
HETATM   29  N   UNL     1     -11.479   8.629  72.004  1.00  0.00    -0.345 NA 
ENDBRANCH  19  20
ENDBRANCH   8  15
ENDBRANCH   3   6
ENDBRANCH   2   3
TORSDOF 6
ENDMDL
MODEL      113
REMARK 921   NORMALIZED FREE ENERGY PREDICTED BY IDOCK:   -5.22 KCAL/MOL
REMARK 922        TOTAL FREE ENERGY PREDICTED BY IDOCK:   -7.56 KCAL/MOL
REMARK 923 INTER-LIGAND FREE ENERGY PREDICTED BY IDOCK:   -6.66 KCAL/MOL
REMARK 924 INTRA-LIGAND FREE ENERGY PREDICTED BY IDOCK:   -0.90 KCAL/MOL
REMARK 927      BINDING AFFINITY PREDICTED BY RF-SCORE:    0.00 PKD
ROOT
HETATM    1  C   UNL     1      -8.871   5.228  73.572  1.00  0.00    -0.116 C  
HETATM    2  C   UNL     1      -8.514   6.119  72.400  1.00  0.00    -0.115 C  
ENDROOT
BRANCH   2   3
HETATM    3  S   UNL     1      -9.432   7.649  72.431  1.00  0.00    -0.180 S  
HETATM    4  O   UNL     1     -10.742   7.397  72.985  1.00  0.00    -0.295 OA 
HETATM    5  O   UNL     1      -8.572   8.698  72.934  1.00  0.00    -0.398 OA 
BRANCH   3   6
HETATM    6  N   UNL     1      -9.621   7.891  70.772  1.00  0.00    -0.165 N  
HETATM    7  C   UNL     1      -8.678   7.437  69.709  1.00  0.00    -0.141 C  
HETATM    8  C   UNL     1      -9.845   7.475  68.667  1.00  0.00    -0.165 C  
HETATM    9  C   UNL     1     -10.762   7.428  69.932  1.00  0.00    -0.243 C  
BRANCH   8  10
HETATM   10  C   UNL     1      -9.908   6.346  67.648  1.00  0.00    -0.138 C  
BRANCH  10  11
HETATM   11  C   UNL     1      -9.729   4.985  68.302  1.00  0.00    -0.146 C  
HETATM   12  H1  UNL     1      -9.461   2.943  69.283  1.00  0.00     0.000 HD 
HETATM   13  N   UNL     1      -9.581   3.856  68.844  1.00  0.00    -0.161 NA 
HETATM   14  H2  UNL     1      -8.873   3.250  68.428  1.00  0.00     0.000 HD 
ENDBRANCH  10  11
ENDBRANCH   8  10
BRANCH   8  15
HETATM   15  N   UNL     1      -9.833   8.767  67.993  1.00  0.00    -0.162 NA 
HETATM   16  N   UNL     1      -8.671   9.299  67.556  1.00  0.00    -0.116 NA 
HETATM   17  C   UNL     1     -10.903   9.591  67.765  1.00  0.00    -0.195 A  
HETATM   18  C   UNL     1      -9.026  10.480  67.048  1.00  0.00    -0.140 A  
HETATM   19  C   UNL     1     -10.406  10.723  67.157  1.00  0.00    -0.269 A  
BRANCH  19  20
HETATM   20  C   UNL     1     -11.213  11.835  66.729  1.00  0.00    -0.328 A  
HETATM   21  C   UNL     1     -11.506  12.898  67.585  1.00  0.00    -0.383 A  
HETATM   22  C   UNL     1     -11.288  13.249  68.948  1.00  0.00    -0.333 A  
HETATM   23  C   UNL     1     -11.838  14.497  69.152  1.00  0.00    -0.319 A  
HETATM   24  N   UNL     1     -12.402  14.904  67.971  1.00  0.00    -0.512 NA 
HETATM   25  H   UNL     1     -12.881  15.793  67.824  1.00  0.00     0.000 HD 
HETATM   26  C   UNL     1     -12.225  13.938  67.019  1.00  0.00    -0.355 A  
HETATM   27  N   UNL     1     -12.676  14.017  65.758  1.00  0.00    -0.504 NA 
HETATM   28  C   UNL     1     -12.357  12.923  65.045  1.00  0.00    -0.485 A  
HETATM   29  N   UNL     1     -11.664  11.843  65.452  1.00  0.00    -0.294 NA 
ENDBRANCH  19  20
ENDBRANCH   8  15
ENDBRANCH   3   6
ENDBRANCH   2   3
TORSDOF 6
ENDMDL
MODEL      114
REMARK 921   NORMALIZED FREE ENERGY PREDICTED BY IDOCK:   -5.22 KCAL/MOL
REMARK 922        TOTAL FREE ENERGY PREDICTED BY IDOCK:   -7.56 KCAL/MOL
REMARK 923 INTER-LIGAND FREE ENERGY PREDICTED BY IDOCK:   -6.85 KCAL/MOL
REMARK 924 INTRA-LIGAND FREE ENERGY PREDICTED BY IDOCK:   -0.70 KCAL/MOL
REMARK 927      BINDING AFFINITY PREDICTED BY RF-SCORE:    0.00 PKD
ROOT
HETATM    1  C   UNL     1      -9.945   8.596  72.182  1.00  0.00    -0.386 C  
HETATM    2  C   UNL     1     -10.728   7.822  71.143  1.00  0.00    -0.227 C  
ENDROOT
BRANCH   2   3
HETATM    3  S   UNL     1      -9.773   6.477  70.463  1.00  0.00    -0.172 S  
HETATM    4  O   UNL     1      -8.538   6.360  71.203  1.00  0.00    -0.126 OA 
HETATM    5  O   UNL     1     -10.650   5.347  70.245  1.00  0.00    -0.285 OA 
BRANCH   3   6
HETATM    6  N   UNL     1      -9.401   7.138  68.956  1.00  0.00    -0.141 N  
HETATM    7  C   UNL     1      -8.032   7.314  68.391  1.00  0.00    -0.124 C  
HETATM    8  C   UNL     1      -8.636   7.324  66.947  1.00  0.00    -0.124 C  
HETATM    9  C   UNL     1      -9.865   6.640  67.629  1.00  0.00    -0.126 C  
BRANCH   8  10
HETATM   10  C   UNL     1      -7.866   6.583  65.863  1.00  0.00    -0.106 C  
BRANCH  10  11
HETATM   11  C   UNL     1      -7.974   7.280  64.517  1.00  0.00    -0.112 C  
HETATM   12  H1  UNL     1      -8.136   8.327  62.497  1.00  0.00     0.000 HD 
HETATM   13  N   UNL     1      -8.064   7.859  63.400  1.00  0.00    -0.300 NA 
HETATM   14  H2  UNL     1      -8.385   8.828  63.423  1.00  0.00     0.000 HD 
ENDBRANCH  10  11
ENDBRANCH   8  10
BRANCH   8  15
HETATM   15  N   UNL     1      -8.876   8.704  66.547  1.00  0.00    -0.131 NA 
HETATM   16  N   UNL     1      -7.850   9.581  66.467  1.00  0.00    -0.100 NA 
HETATM   17  C   UNL     1     -10.083   9.285  66.262  1.00  0.00    -0.252 A  
HETATM   18  C   UNL     1      -8.433  10.732  66.129  1.00  0.00    -0.167 A  
HETATM   19  C   UNL     1      -9.828  10.613  65.995  1.00  0.00    -0.280 A  
BRANCH  19  20
HETATM   20  C   UNL     1     -10.833  11.574  65.627  1.00  0.00    -0.252 A  
HETATM   21  C   UNL     1     -11.292  12.534  66.530  1.00  0.00    -0.387 A  
HETATM   22  C   UNL     1     -11.106  12.870  67.902  1.00  0.00    -0.283 A  
HETATM   23  C   UNL     1     -11.867  13.989  68.166  1.00  0.00    -0.367 A  
HETATM   24  N   UNL     1     -12.526  14.329  67.013  1.00  0.00    -0.543 NA 
HETATM   25  H   UNL     1     -13.161  15.121  66.911  1.00  0.00     0.000 HD 
HETATM   26  C   UNL     1     -12.201  13.446  66.019  1.00  0.00    -0.437 A  
HETATM   27  N   UNL     1     -12.691  13.488  64.771  1.00  0.00    -0.680 NA 
HETATM   28  C   UNL     1     -12.199  12.496  64.010  1.00  0.00    -0.480 A  
HETATM   29  N   UNL     1     -11.311  11.546  64.360  1.00  0.00    -0.261 NA 
ENDBRANCH  19  20
ENDBRANCH   8  15
ENDBRANCH   3   6
ENDBRANCH   2   3
TORSDOF 6
ENDMDL
MODEL      115
REMARK 921   NORMALIZED FREE ENERGY PREDICTED BY IDOCK:   -5.21 KCAL/MOL
REMARK 922        TOTAL FREE ENERGY PREDICTED BY IDOCK:   -7.54 KCAL/MOL
REMARK 923 INTER-LIGAND FREE ENERGY PREDICTED BY IDOCK:   -6.87 KCAL/MOL
REMARK 924 INTRA-LIGAND FREE ENERGY PREDICTED BY IDOCK:   -0.67 KCAL/MOL
REMARK 927      BINDING AFFINITY PREDICTED BY RF-SCORE:    0.00 PKD
ROOT
HETATM    1  C   UNL     1     -10.441   5.884  73.935  1.00  0.00    -0.288 C  
HETATM    2  C   UNL     1     -10.323   6.056  72.435  1.00  0.00    -0.194 C  
ENDROOT
BRANCH   2   3
HETATM    3  S   UNL     1      -9.055   7.236  72.004  1.00  0.00    -0.129 S  
HETATM    4  O   UNL     1      -8.654   7.947  73.196  1.00  0.00    -0.158 OA 
HETATM    5  O   UNL     1      -8.097   6.591  71.133  1.00  0.00    -0.113 OA 
BRANCH   3   6
HETATM    6  N   UNL     1      -9.972   8.295  71.065  1.00  0.00    -0.183 N  
HETATM    7  C   UNL     1     -11.240   7.961  70.354  1.00  0.00    -0.234 C  
HETATM    8  C   UNL     1     -11.637   9.475  70.366  1.00  0.00    -0.212 C  
HETATM    9  C   UNL     1     -10.584   9.578  71.515  1.00  0.00    -0.149 C  
BRANCH   8  10
HETATM   10  C   UNL     1     -13.095   9.811  70.647  1.00  0.00    -0.090 C  
BRANCH  10  11
HETATM   11  C   UNL     1     -13.231  11.043  71.527  1.00  0.00    -0.299 C  
HETATM   12  H1  UNL     1     -13.434  12.891  72.849  1.00  0.00     0.000 HD 
HETATM   13  N   UNL     1     -13.342  12.065  72.258  1.00  0.00    -0.546 NA 
HETATM   14  H2  UNL     1     -12.471  12.454  72.618  1.00  0.00     0.000 HD 
ENDBRANCH  10  11
ENDBRANCH   8  10
BRANCH   8  15
HETATM   15  N   UNL     1     -11.208  10.084  69.114  1.00  0.00    -0.190 NA 
HETATM   16  N   UNL     1     -10.844   9.311  68.066  1.00  0.00    -0.163 NA 
HETATM   17  C   UNL     1     -11.072  11.421  68.848  1.00  0.00    -0.233 A  
HETATM   18  C   UNL     1     -10.470  10.187  67.132  1.00  0.00    -0.246 A  
HETATM   19  C   UNL     1     -10.582  11.520  67.564  1.00  0.00    -0.243 A  
BRANCH  19  20
HETATM   20  C   UNL     1     -10.317  12.763  66.890  1.00  0.00    -0.238 A  
HETATM   21  C   UNL     1     -11.044  13.153  65.764  1.00  0.00    -0.293 A  
HETATM   22  C   UNL     1     -12.054  12.613  64.918  1.00  0.00    -0.494 A  
HETATM   23  C   UNL     1     -12.357  13.564  63.967  1.00  0.00    -0.330 A  
HETATM   24  N   UNL     1     -11.552  14.651  64.190  1.00  0.00    -0.650 NA 
HETATM   25  H   UNL     1     -11.558  15.509  63.640  1.00  0.00     0.000 HD 
HETATM   26  C   UNL     1     -10.739  14.408  65.264  1.00  0.00    -0.375 A  
HETATM   27  N   UNL     1      -9.818  15.264  65.733  1.00  0.00    -0.345 NA 
HETATM   28  C   UNL     1      -9.167  14.762  66.795  1.00  0.00    -0.260 A  
HETATM   29  N   UNL     1      -9.354  13.571  67.394  1.00  0.00    -0.219 NA 
ENDBRANCH  19  20
ENDBRANCH   8  15
ENDBRANCH   3   6
ENDBRANCH   2   3
TORSDOF 6
ENDMDL
MODEL      116
REMARK 921   NORMALIZED FREE ENERGY PREDICTED BY IDOCK:   -5.20 KCAL/MOL
REMARK 922        TOTAL FREE ENERGY PREDICTED BY IDOCK:   -7.54 KCAL/MOL
REMARK 923 INTER-LIGAND FREE ENERGY PREDICTED BY IDOCK:   -6.74 KCAL/MOL
REMARK 924 INTRA-LIGAND FREE ENERGY PREDICTED BY IDOCK:   -0.80 KCAL/MOL
REMARK 927      BINDING AFFINITY PREDICTED BY RF-SCORE:    0.00 PKD
ROOT
HETATM    1  C   UNL     1     -12.796  13.941  65.489  1.00  0.00    -0.471 C  
HETATM    2  C   UNL     1     -12.604  12.511  65.030  1.00  0.00    -0.345 C  
ENDROOT
BRANCH   2   3
HETATM    3  S   UNL     1     -10.878  12.115  64.810  1.00  0.00    -0.322 S  
HETATM    4  O   UNL     1     -10.773  10.875  64.076  1.00  0.00    -0.353 OA 
HETATM    5  O   UNL     1     -10.174  13.312  64.406  1.00  0.00    -0.392 OA 
BRANCH   3   6
HETATM    6  N   UNL     1     -10.463  11.791  66.413  1.00  0.00    -0.228 N  
HETATM    7  C   UNL     1      -9.371  10.883  66.869  1.00  0.00    -0.168 C  
HETATM    8  C   UNL     1      -9.307  11.655  68.229  1.00  0.00    -0.191 C  
HETATM    9  C   UNL     1     -10.039  12.787  67.439  1.00  0.00    -0.219 C  
BRANCH   8  10
HETATM   10  C   UNL     1      -7.927  11.918  68.818  1.00  0.00    -0.040 C  
BRANCH  10  11
HETATM   11  C   UNL     1      -7.138  12.915  67.984  1.00  0.00    -0.111 C  
HETATM   12  H1  UNL     1      -5.955  14.411  66.734  1.00  0.00     0.000 HD 
HETATM   13  N   UNL     1      -6.484  13.742  67.293  1.00  0.00    -0.436 NA 
HETATM   14  H2  UNL     1      -5.687  14.180  67.757  1.00  0.00     0.000 HD 
ENDBRANCH  10  11
ENDBRANCH   8  10
BRANCH   8  15
HETATM   15  N   UNL     1     -10.151  10.971  69.200  1.00  0.00    -0.185 NA 
HETATM   16  N   UNL     1     -11.153  11.632  69.821  1.00  0.00    -0.120 NA 
HETATM   17  C   UNL     1     -10.034   9.676  69.630  1.00  0.00    -0.221 A  
HETATM   18  C   UNL     1     -11.667  10.729  70.657  1.00  0.00    -0.342 A  
HETATM   19  C   UNL     1     -11.005   9.491  70.590  1.00  0.00    -0.370 A  
BRANCH  19  20
HETATM   20  C   UNL     1     -11.236   8.251  71.283  1.00  0.00    -0.259 A  
HETATM   21  C   UNL     1     -10.430   7.847  72.348  1.00  0.00    -0.339 A  
HETATM   22  C   UNL     1      -9.255   8.299  73.016  1.00  0.00    -0.316 A  
HETATM   23  C   UNL     1      -8.991   7.416  74.041  1.00  0.00    -0.239 A  
HETATM   24  N   UNL     1      -9.947   6.434  74.005  1.00  0.00    -0.250 NA 
HETATM   25  H   UNL     1     -10.004   5.645  74.650  1.00  0.00     0.000 HD 
HETATM   26  C   UNL     1     -10.814   6.673  72.973  1.00  0.00    -0.267 A  
HETATM   27  N   UNL     1     -11.853   5.887  72.653  1.00  0.00    -0.217 NA 
HETATM   28  C   UNL     1     -12.530   6.365  71.595  1.00  0.00    -0.096 A  
HETATM   29  N   UNL     1     -12.284   7.486  70.893  1.00  0.00    -0.243 NA 
ENDBRANCH  19  20
ENDBRANCH   8  15
ENDBRANCH   3   6
ENDBRANCH   2   3
TORSDOF 6
ENDMDL
MODEL      117
REMARK 921   NORMALIZED FREE ENERGY PREDICTED BY IDOCK:   -5.17 KCAL/MOL
REMARK 922        TOTAL FREE ENERGY PREDICTED BY IDOCK:   -7.50 KCAL/MOL
REMARK 923 INTER-LIGAND FREE ENERGY PREDICTED BY IDOCK:   -6.90 KCAL/MOL
REMARK 924 INTRA-LIGAND FREE ENERGY PREDICTED BY IDOCK:   -0.60 KCAL/MOL
REMARK 927      BINDING AFFINITY PREDICTED BY RF-SCORE:    0.00 PKD
ROOT
HETATM    1  C   UNL     1      -8.554   6.161  66.166  1.00  0.00    -0.141 C  
HETATM    2  C   UNL     1      -7.982   7.177  65.200  1.00  0.00    -0.128 C  
ENDROOT
BRANCH   2   3
HETATM    3  S   UNL     1      -7.257   8.566  66.054  1.00  0.00    -0.077 S  
HETATM    4  O   UNL     1      -7.252   8.292  67.472  1.00  0.00    -0.085 OA 
HETATM    5  O   UNL     1      -6.065   8.977  65.345  1.00  0.00    -0.060 OA 
BRANCH   3   6
HETATM    6  N   UNL     1      -8.452   9.721  65.765  1.00  0.00    -0.130 N  
HETATM    7  C   UNL     1      -8.289  10.966  64.958  1.00  0.00     0.034 C  
HETATM    8  C   UNL     1      -9.834  11.001  64.713  1.00  0.00    -0.276 C  
HETATM    9  C   UNL     1      -9.770   9.490  65.108  1.00  0.00    -0.137 C  
BRANCH   8  10
HETATM   10  C   UNL     1     -10.311  11.397  63.322  1.00  0.00    -0.422 C  
BRANCH  10  11
HETATM   11  C   UNL     1     -11.433  12.421  63.381  1.00  0.00    -0.448 C  
HETATM   12  H1  UNL     1     -13.116  13.959  63.468  1.00  0.00     0.000 HD 
HETATM   13  N   UNL     1     -12.363  13.272  63.429  1.00  0.00    -0.851 NA 
HETATM   14  H2  UNL     1     -12.553  13.776  62.562  1.00  0.00     0.000 HD 
ENDBRANCH  10  11
ENDBRANCH   8  10
BRANCH   8  15
HETATM   15  N   UNL     1     -10.453  11.849  65.723  1.00  0.00    -0.247 NA 
HETATM   16  N   UNL     1     -11.693  11.571  66.183  1.00  0.00    -0.284 NA 
HETATM   17  C   UNL     1      -9.935  12.990  66.276  1.00  0.00    -0.283 A  
HETATM   18  C   UNL     1     -11.951  12.562  67.037  1.00  0.00    -0.225 A  
HETATM   19  C   UNL     1     -10.894  13.485  67.131  1.00  0.00    -0.291 A  
BRANCH  19  20
HETATM   20  C   UNL     1     -10.735  14.670  67.932  1.00  0.00    -0.250 A  
HETATM   21  C   UNL     1     -10.502  15.918  67.352  1.00  0.00    -0.306 A  
HETATM   22  C   UNL     1     -10.276  16.455  66.052  1.00  0.00    -0.373 A  
HETATM   23  C   UNL     1     -10.136  17.820  66.182  1.00  0.00    -0.304 A  
HETATM   24  N   UNL     1     -10.245  18.128  67.513  1.00  0.00    -0.353 NA 
HETATM   25  H   UNL     1     -10.184  19.068  67.906  1.00  0.00     0.000 HD 
HETATM   26  C   UNL     1     -10.448  16.983  68.235  1.00  0.00    -0.363 A  
HETATM   27  N   UNL     1     -10.576  16.936  69.570  1.00  0.00    -0.305 NA 
HETATM   28  C   UNL     1     -10.765  15.679  70.007  1.00  0.00    -0.335 A  
HETATM   29  N   UNL     1     -10.846  14.552  69.277  1.00  0.00    -0.256 NA 
ENDBRANCH  19  20
ENDBRANCH   8  15
ENDBRANCH   3   6
ENDBRANCH   2   3
TORSDOF 6
ENDMDL
MODEL      118
REMARK 921   NORMALIZED FREE ENERGY PREDICTED BY IDOCK:   -5.15 KCAL/MOL
REMARK 922        TOTAL FREE ENERGY PREDICTED BY IDOCK:   -7.47 KCAL/MOL
REMARK 923 INTER-LIGAND FREE ENERGY PREDICTED BY IDOCK:   -6.58 KCAL/MOL
REMARK 924 INTRA-LIGAND FREE ENERGY PREDICTED BY IDOCK:   -0.88 KCAL/MOL
REMARK 927      BINDING AFFINITY PREDICTED BY RF-SCORE:    0.00 PKD
ROOT
HETATM    1  C   UNL     1      -7.629   7.442  62.640  1.00  0.00    -0.111 C  
HETATM    2  C   UNL     1      -7.575   8.103  64.002  1.00  0.00    -0.130 C  
ENDROOT
BRANCH   2   3
HETATM    3  S   UNL     1      -7.496   9.881  63.871  1.00  0.00    -0.135 S  
HETATM    4  O   UNL     1      -6.191  10.323  64.303  1.00  0.00    -0.133 OA 
HETATM    5  O   UNL     1      -8.063  10.279  62.601  1.00  0.00    -0.138 OA 
BRANCH   3   6
HETATM    6  N   UNL     1      -8.598  10.295  65.079  1.00  0.00    -0.172 N  
HETATM    7  C   UNL     1     -10.003   9.805  65.188  1.00  0.00    -0.127 C  
HETATM    8  C   UNL     1      -9.982  10.108  66.723  1.00  0.00    -0.211 C  
HETATM    9  C   UNL     1      -8.429  10.083  66.545  1.00  0.00    -0.126 C  
BRANCH   8  10
HETATM   10  C   UNL     1     -10.652   9.096  67.643  1.00  0.00    -0.307 C  
BRANCH  10  11
HETATM   11  C   UNL     1     -10.639   7.697  67.048  1.00  0.00    -0.336 C  
HETATM   12  H1  UNL     1     -10.620   5.598  66.155  1.00  0.00     0.000 HD 
HETATM   13  N   UNL     1     -10.629   6.537  66.554  1.00  0.00    -0.502 NA 
HETATM   14  H2  UNL     1     -11.523   6.192  66.204  1.00  0.00     0.000 HD 
ENDBRANCH  10  11
ENDBRANCH   8  10
BRANCH   8  15
HETATM   15  N   UNL     1     -10.530  11.439  66.949  1.00  0.00    -0.230 NA 
HETATM   16  N   UNL     1     -11.751  11.766  66.471  1.00  0.00    -0.528 NA 
HETATM   17  C   UNL     1      -9.920  12.489  67.583  1.00  0.00    -0.201 A  
HETATM   18  C   UNL     1     -11.901  13.046  66.812  1.00  0.00    -0.388 A  
HETATM   19  C   UNL     1     -10.787  13.556  67.501  1.00  0.00    -0.276 A  
BRANCH  19  20
HETATM   20  C   UNL     1     -10.531  14.854  68.068  1.00  0.00    -0.246 A  
HETATM   21  C   UNL     1      -9.671  15.764  67.451  1.00  0.00    -0.223 A  
HETATM   22  C   UNL     1      -8.799  15.800  66.326  1.00  0.00    -0.378 A  
HETATM   23  C   UNL     1      -8.244  17.060  66.266  1.00  0.00    -0.287 A  
HETATM   24  N   UNL     1      -8.728  17.782  67.325  1.00  0.00    -0.234 NA 
HETATM   25  H   UNL     1      -8.491  18.752  67.533  1.00  0.00     0.000 HD 
HETATM   26  C   UNL     1      -9.580  17.004  68.062  1.00  0.00    -0.260 A  
HETATM   27  N   UNL     1     -10.208  17.406  69.177  1.00  0.00    -0.314 NA 
HETATM   28  C   UNL     1     -10.980  16.433  69.691  1.00  0.00    -0.329 A  
HETATM   29  N   UNL     1     -11.174  15.190  69.211  1.00  0.00    -0.261 NA 
ENDBRANCH  19  20
ENDBRANCH   8  15
ENDBRANCH   3   6
ENDBRANCH   2   3
TORSDOF 6
ENDMDL
MODEL      119
REMARK 921   NORMALIZED FREE ENERGY PREDICTED BY IDOCK:   -5.13 KCAL/MOL
REMARK 922        TOTAL FREE ENERGY PREDICTED BY IDOCK:   -7.44 KCAL/MOL
REMARK 923 INTER-LIGAND FREE ENERGY PREDICTED BY IDOCK:   -7.03 KCAL/MOL
REMARK 924 INTRA-LIGAND FREE ENERGY PREDICTED BY IDOCK:   -0.42 KCAL/MOL
REMARK 927      BINDING AFFINITY PREDICTED BY RF-SCORE:    0.00 PKD
ROOT
HETATM    1  C   UNL     1      -9.206  18.894  67.149  1.00  0.00    -0.313 C  
HETATM    2  C   UNL     1      -8.991  17.728  68.091  1.00  0.00    -0.271 C  
ENDROOT
BRANCH   2   3
HETATM    3  S   UNL     1      -8.652  16.216  67.205  1.00  0.00    -0.187 S  
HETATM    4  O   UNL     1      -9.089  16.369  65.837  1.00  0.00    -0.429 OA 
HETATM    5  O   UNL     1      -7.318  15.769  67.542  1.00  0.00    -0.144 OA 
BRANCH   3   6
HETATM    6  N   UNL     1      -9.748  15.193  67.977  1.00  0.00    -0.208 N  
HETATM    7  C   UNL     1      -9.972  15.100  69.449  1.00  0.00    -0.228 C  
HETATM    8  C   UNL     1     -11.404  14.525  69.188  1.00  0.00    -0.277 C  
HETATM    9  C   UNL     1     -11.224  15.154  67.769  1.00  0.00    -0.323 C  
BRANCH   8  10
HETATM   10  C   UNL     1     -12.527  15.013  70.093  1.00  0.00    -0.356 C  
BRANCH  10  11
HETATM   11  C   UNL     1     -12.025  16.005  71.130  1.00  0.00    -0.398 C  
HETATM   12  H1  UNL     1     -11.273  17.494  72.686  1.00  0.00     0.000 HD 
HETATM   13  N   UNL     1     -11.610  16.828  71.991  1.00  0.00    -0.414 NA 
HETATM   14  H2  UNL     1     -11.639  16.513  72.961  1.00  0.00     0.000 HD 
ENDBRANCH  10  11
ENDBRANCH   8  10
BRANCH   8  15
HETATM   15  N   UNL     1     -11.337  13.070  69.202  1.00  0.00    -0.273 NA 
HETATM   16  N   UNL     1     -11.050  12.387  68.071  1.00  0.00    -0.230 NA 
HETATM   17  C   UNL     1     -11.584  12.240  70.264  1.00  0.00     0.004 A  
HETATM   18  C   UNL     1     -11.123  11.107  68.438  1.00  0.00    -0.247 A  
HETATM   19  C   UNL     1     -11.462  10.950  69.793  1.00  0.00    -0.390 A  
BRANCH  19  20
HETATM   20  C   UNL     1     -11.624   9.772  70.603  1.00  0.00    -0.313 A  
HETATM   21  C   UNL     1     -10.748   8.690  70.501  1.00  0.00    -0.252 A  
HETATM   22  C   UNL     1      -9.637   8.300  69.700  1.00  0.00    -0.167 A  
HETATM   23  C   UNL     1      -9.201   7.074  70.157  1.00  0.00    -0.152 A  
HETATM   24  N   UNL     1     -10.021   6.696  71.188  1.00  0.00    -0.182 NA 
HETATM   25  H   UNL     1      -9.934   5.830  71.721  1.00  0.00     0.000 HD 
HETATM   26  C   UNL     1     -10.973   7.657  71.396  1.00  0.00    -0.231 A  
HETATM   27  N   UNL     1     -11.942   7.583  72.321  1.00  0.00    -0.286 NA 
HETATM   28  C   UNL     1     -12.735   8.668  72.298  1.00  0.00    -0.391 A  
HETATM   29  N   UNL     1     -12.639   9.746  71.499  1.00  0.00    -0.368 NA 
ENDBRANCH  19  20
ENDBRANCH   8  15
ENDBRANCH   3   6
ENDBRANCH   2   3
TORSDOF 6
ENDMDL
MODEL      120
REMARK 921   NORMALIZED FREE ENERGY PREDICTED BY IDOCK:   -5.12 KCAL/MOL
REMARK 922        TOTAL FREE ENERGY PREDICTED BY IDOCK:   -7.43 KCAL/MOL
REMARK 923 INTER-LIGAND FREE ENERGY PREDICTED BY IDOCK:   -6.68 KCAL/MOL
REMARK 924 INTRA-LIGAND FREE ENERGY PREDICTED BY IDOCK:   -0.75 KCAL/MOL
REMARK 927      BINDING AFFINITY PREDICTED BY RF-SCORE:    0.00 PKD
ROOT
HETATM    1  C   UNL     1     -10.927   8.779  70.451  1.00  0.00    -0.262 C  
HETATM    2  C   UNL     1     -10.570  10.235  70.231  1.00  0.00    -0.204 C  
ENDROOT
BRANCH   2   3
HETATM    3  S   UNL     1     -12.020  11.234  69.943  1.00  0.00    -0.378 S  
HETATM    4  O   UNL     1     -12.950  10.484  69.132  1.00  0.00     0.197 OA 
HETATM    5  O   UNL     1     -12.412  11.855  71.190  1.00  0.00    -0.348 OA 
BRANCH   3   6
HETATM    6  N   UNL     1     -11.342  12.429  68.965  1.00  0.00    -0.266 N  
HETATM    7  C   UNL     1     -11.133  12.339  67.491  1.00  0.00    -0.275 C  
HETATM    8  C   UNL     1     -11.126  13.902  67.404  1.00  0.00    -0.298 C  
HETATM    9  C   UNL     1     -11.840  13.824  68.792  1.00  0.00    -0.363 C  
BRANCH   8  10
HETATM   10  C   UNL     1     -11.843  14.539  66.222  1.00  0.00    -0.354 C  
BRANCH  10  11
HETATM   11  C   UNL     1     -12.594  13.507  65.395  1.00  0.00    -0.483 C  
HETATM   12  H1  UNL     1     -13.720  11.959  64.155  1.00  0.00     0.000 HD 
HETATM   13  N   UNL     1     -13.216  12.650  64.710  1.00  0.00    -0.780 NA 
HETATM   14  H2  UNL     1     -12.925  11.680  64.834  1.00  0.00     0.000 HD 
ENDBRANCH  10  11
ENDBRANCH   8  10
BRANCH   8  15
HETATM   15  N   UNL     1      -9.748  14.371  67.474  1.00  0.00    -0.213 NA 
HETATM   16  N   UNL     1      -8.727  13.544  67.157  1.00  0.00    -0.219 NA 
HETATM   17  C   UNL     1      -9.313  15.603  67.885  1.00  0.00    -0.195 A  
HETATM   18  C   UNL     1      -7.635  14.277  67.380  1.00  0.00    -0.163 A  
HETATM   19  C   UNL     1      -7.937  15.570  67.844  1.00  0.00    -0.146 A  
BRANCH  19  20
HETATM   20  C   UNL     1      -7.087  16.681  68.182  1.00  0.00    -0.153 A  
HETATM   21  C   UNL     1      -6.745  17.652  67.239  1.00  0.00    -0.184 A  
HETATM   22  C   UNL     1      -6.940  17.891  65.849  1.00  0.00    -0.313 A  
HETATM   23  C   UNL     1      -6.337  19.093  65.543  1.00  0.00    -0.255 A  
HETATM   24  N   UNL     1      -5.763  19.578  66.689  1.00  0.00    -0.169 NA 
HETATM   25  H   UNL     1      -5.248  20.456  66.763  1.00  0.00     0.000 HD 
HETATM   26  C   UNL     1      -5.987  18.706  67.720  1.00  0.00    -0.188 A  
HETATM   27  N   UNL     1      -5.541  18.877  68.974  1.00  0.00    -0.201 NA 
HETATM   28  C   UNL     1      -5.909  17.864  69.776  1.00  0.00    -0.243 A  
HETATM   29  N   UNL     1      -6.644  16.782  69.458  1.00  0.00    -0.228 NA 
ENDBRANCH  19  20
ENDBRANCH   8  15
ENDBRANCH   3   6
ENDBRANCH   2   3
TORSDOF 6
ENDMDL
MODEL      121
REMARK 921   NORMALIZED FREE ENERGY PREDICTED BY IDOCK:   -5.12 KCAL/MOL
REMARK 922        TOTAL FREE ENERGY PREDICTED BY IDOCK:   -7.43 KCAL/MOL
REMARK 923 INTER-LIGAND FREE ENERGY PREDICTED BY IDOCK:   -6.67 KCAL/MOL
REMARK 924 INTRA-LIGAND FREE ENERGY PREDICTED BY IDOCK:   -0.76 KCAL/MOL
REMARK 927      BINDING AFFINITY PREDICTED BY RF-SCORE:    0.00 PKD
ROOT
HETATM    1  C   UNL     1     -12.378  13.253  67.814  1.00  0.00     0.037 C  
HETATM    2  C   UNL     1     -11.929  14.036  66.598  1.00  0.00    -0.445 C  
ENDROOT
BRANCH   2   3
HETATM    3  S   UNL     1     -11.915  13.023  65.128  1.00  0.00    -0.430 S  
HETATM    4  O   UNL     1     -13.236  12.475  64.927  1.00  0.00    -0.787 OA 
HETATM    5  O   UNL     1     -11.207  13.729  64.083  1.00  0.00    -0.345 OA 
BRANCH   3   6
HETATM    6  N   UNL     1     -10.922  11.770  65.667  1.00  0.00    -0.300 N  
HETATM    7  C   UNL     1     -10.520  10.571  64.876  1.00  0.00    -0.144 C  
HETATM    8  C   UNL     1      -9.262  10.399  65.791  1.00  0.00    -0.174 C  
HETATM    9  C   UNL     1      -9.519  11.897  66.155  1.00  0.00    -0.231 C  
BRANCH   8  10
HETATM   10  C   UNL     1      -7.957  10.001  65.114  1.00  0.00    -0.145 C  
BRANCH  10  11
HETATM   11  C   UNL     1      -6.771  10.761  65.684  1.00  0.00    -0.019 C  
HETATM   12  H1  UNL     1      -4.991  11.903  66.540  1.00  0.00     0.000 HD 
HETATM   13  N   UNL     1      -5.787  11.392  66.158  1.00  0.00    -0.392 NA 
HETATM   14  H2  UNL     1      -5.651  11.318  67.166  1.00  0.00     0.000 HD 
ENDBRANCH  10  11
ENDBRANCH   8  10
BRANCH   8  15
HETATM   15  N   UNL     1      -9.582   9.467  66.864  1.00  0.00    -0.155 NA 
HETATM   16  N   UNL     1     -10.166   8.279  66.587  1.00  0.00    -0.296 NA 
HETATM   17  C   UNL     1      -9.400   9.658  68.208  1.00  0.00    -0.133 A  
HETATM   18  C   UNL     1     -10.354   7.723  67.784  1.00  0.00    -0.221 A  
HETATM   19  C   UNL     1      -9.904   8.540  68.837  1.00  0.00    -0.181 A  
BRANCH  19  20
HETATM   20  C   UNL     1      -9.887   8.333  70.260  1.00  0.00    -0.184 A  
HETATM   21  C   UNL     1     -10.944   7.703  70.920  1.00  0.00    -0.261 A  
HETATM   22  C   UNL     1     -12.234   7.191  70.602  1.00  0.00    -0.245 A  
HETATM   23  C   UNL     1     -12.770   6.659  71.755  1.00  0.00    -0.231 A  
HETATM   24  N   UNL     1     -11.863   6.850  72.765  1.00  0.00    -0.502 NA 
HETATM   25  H   UNL     1     -11.990   6.554  73.733  1.00  0.00     0.000 HD 
HETATM   26  C   UNL     1     -10.760   7.498  72.277  1.00  0.00    -0.250 A  
HETATM   27  N   UNL     1      -9.696   7.853  73.013  1.00  0.00    -0.263 NA 
HETATM   28  C   UNL     1      -8.764   8.477  72.272  1.00  0.00    -0.190 A  
HETATM   29  N   UNL     1      -8.797   8.741  70.953  1.00  0.00    -0.180 NA 
ENDBRANCH  19  20
ENDBRANCH   8  15
ENDBRANCH   3   6
ENDBRANCH   2   3
TORSDOF 6
ENDMDL
MODEL      122
REMARK 921   NORMALIZED FREE ENERGY PREDICTED BY IDOCK:   -5.11 KCAL/MOL
REMARK 922        TOTAL FREE ENERGY PREDICTED BY IDOCK:   -7.42 KCAL/MOL
REMARK 923 INTER-LIGAND FREE ENERGY PREDICTED BY IDOCK:   -7.24 KCAL/MOL
REMARK 924 INTRA-LIGAND FREE ENERGY PREDICTED BY IDOCK:   -0.18 KCAL/MOL
REMARK 927      BINDING AFFINITY PREDICTED BY RF-SCORE:    0.00 PKD
ROOT
HETATM    1  C   UNL     1     -14.405  15.448  72.134  1.00  0.00    -0.642 C  
HETATM    2  C   UNL     1     -13.569  15.373  70.873  1.00  0.00    -0.306 C  
ENDROOT
BRANCH   2   3
HETATM    3  S   UNL     1     -12.094  14.397  71.115  1.00  0.00    -0.320 S  
HETATM    4  O   UNL     1     -11.178  15.136  71.952  1.00  0.00    -0.397 OA 
HETATM    5  O   UNL     1     -12.481  13.036  71.412  1.00  0.00    -0.287 OA 
BRANCH   3   6
HETATM    6  N   UNL     1     -11.483  14.428  69.543  1.00  0.00    -0.274 N  
HETATM    7  C   UNL     1     -12.098  15.128  68.378  1.00  0.00    -0.074 C  
HETATM    8  C   UNL     1     -10.700  15.176  67.678  1.00  0.00    -0.285 C  
HETATM    9  C   UNL     1     -10.147  14.936  69.120  1.00  0.00    -0.226 C  
BRANCH   8  10
HETATM   10  C   UNL     1     -10.336  16.454  66.934  1.00  0.00    -0.300 C  
BRANCH  10  11
HETATM   11  C   UNL     1     -10.806  16.419  65.489  1.00  0.00    -0.215 C  
HETATM   12  H1  UNL     1     -11.511  16.367  63.320  1.00  0.00     0.000 HD 
HETATM   13  N   UNL     1     -11.196  16.390  64.290  1.00  0.00    -1.298 NA 
HETATM   14  H2  UNL     1     -12.183  16.175  64.146  1.00  0.00     0.000 HD 
ENDBRANCH  10  11
ENDBRANCH   8  10
BRANCH   8  15
HETATM   15  N   UNL     1     -10.573  14.023  66.797  1.00  0.00    -0.276 NA 
HETATM   16  N   UNL     1     -11.569  13.705  65.940  1.00  0.00    -0.318 NA 
HETATM   17  C   UNL     1      -9.534  13.132  66.743  1.00  0.00    -0.252 A  
HETATM   18  C   UNL     1     -11.141  12.591  65.344  1.00  0.00    -0.302 A  
HETATM   19  C   UNL     1      -9.880  12.179  65.811  1.00  0.00    -0.264 A  
BRANCH  19  20
HETATM   20  C   UNL     1      -9.044  11.068  65.437  1.00  0.00    -0.195 A  
HETATM   21  C   UNL     1      -7.771  10.896  65.982  1.00  0.00    -0.107 A  
HETATM   22  C   UNL     1      -6.891  11.596  66.857  1.00  0.00    -0.129 A  
HETATM   23  C   UNL     1      -5.753  10.832  67.004  1.00  0.00    -0.053 A  
HETATM   24  N   UNL     1      -5.899   9.708  66.233  1.00  0.00    -0.056 NA 
HETATM   25  H   UNL     1      -5.211   8.960  66.149  1.00  0.00     0.000 HD 
HETATM   26  C   UNL     1      -7.109   9.743  65.594  1.00  0.00    -0.105 A  
HETATM   27  N   UNL     1      -7.552   8.801  64.748  1.00  0.00    -0.103 NA 
HETATM   28  C   UNL     1      -8.772   9.096  64.269  1.00  0.00    -0.150 A  
HETATM   29  N   UNL     1      -9.537  10.166  64.555  1.00  0.00    -0.303 NA 
ENDBRANCH  19  20
ENDBRANCH   8  15
ENDBRANCH   3   6
ENDBRANCH   2   3
TORSDOF 6
ENDMDL
MODEL      123
REMARK 921   NORMALIZED FREE ENERGY PREDICTED BY IDOCK:   -5.10 KCAL/MOL
REMARK 922        TOTAL FREE ENERGY PREDICTED BY IDOCK:   -7.40 KCAL/MOL
REMARK 923 INTER-LIGAND FREE ENERGY PREDICTED BY IDOCK:   -6.61 KCAL/MOL
REMARK 924 INTRA-LIGAND FREE ENERGY PREDICTED BY IDOCK:   -0.79 KCAL/MOL
REMARK 927      BINDING AFFINITY PREDICTED BY RF-SCORE:    0.00 PKD
ROOT
HETATM    1  C   UNL     1     -10.239   6.168  74.353  1.00  0.00    -0.332 C  
HETATM    2  C   UNL     1     -10.791   6.329  72.952  1.00  0.00    -0.256 C  
ENDROOT
BRANCH   2   3
HETATM    3  S   UNL     1      -9.491   6.372  71.730  1.00  0.00    -0.151 S  
HETATM    4  O   UNL     1      -8.239   6.659  72.391  1.00  0.00    -0.104 OA 
HETATM    5  O   UNL     1      -9.651   5.243  70.841  1.00  0.00    -0.161 OA 
BRANCH   3   6
HETATM    6  N   UNL     1      -9.950   7.759  70.888  1.00  0.00    -0.183 N  
HETATM    7  C   UNL     1     -11.195   7.922  70.083  1.00  0.00    -0.152 C  
HETATM    8  C   UNL     1     -11.101   9.474  70.263  1.00  0.00    -0.271 C  
HETATM    9  C   UNL     1     -10.167   9.117  71.465  1.00  0.00    -0.333 C  
BRANCH   8  10
HETATM   10  C   UNL     1     -12.399  10.228  70.515  1.00  0.00    -0.371 C  
BRANCH  10  11
HETATM   11  C   UNL     1     -12.183  11.732  70.543  1.00  0.00    -0.347 C  
HETATM   12  H1  UNL     1     -11.858  13.990  70.584  1.00  0.00     0.000 HD 
HETATM   13  N   UNL     1     -12.003  12.980  70.565  1.00  0.00    -0.534 NA 
HETATM   14  H2  UNL     1     -11.760  13.413  69.673  1.00  0.00     0.000 HD 
ENDBRANCH  10  11
ENDBRANCH   8  10
BRANCH   8  15
HETATM   15  N   UNL     1     -10.399  10.040  69.119  1.00  0.00    -0.202 NA 
HETATM   16  N   UNL     1      -9.311  10.821  69.301  1.00  0.00    -0.126 NA 
HETATM   17  C   UNL     1     -10.738   9.917  67.797  1.00  0.00    -0.277 A  
HETATM   18  C   UNL     1      -8.969  11.193  68.067  1.00  0.00    -0.149 A  
HETATM   19  C   UNL     1      -9.828  10.668  67.085  1.00  0.00    -0.208 A  
BRANCH  19  20
HETATM   20  C   UNL     1      -9.820  10.788  65.651  1.00  0.00    -0.245 A  
HETATM   21  C   UNL     1      -9.184   9.845  64.843  1.00  0.00    -0.301 A  
HETATM   22  C   UNL     1      -8.378   8.682  65.007  1.00  0.00    -0.181 A  
HETATM   23  C   UNL     1      -8.091   8.191  63.752  1.00  0.00    -0.112 A  
HETATM   24  N   UNL     1      -8.673   9.024  62.832  1.00  0.00    -0.382 NA 
HETATM   25  H   UNL     1      -8.629   8.905  61.820  1.00  0.00     0.000 HD 
HETATM   26  C   UNL     1      -9.322  10.041  63.479  1.00  0.00    -0.256 A  
HETATM   27  N   UNL     1      -9.978  11.038  62.866  1.00  0.00    -0.281 NA 
HETATM   28  C   UNL     1     -10.519  11.895  63.750  1.00  0.00    -0.423 A  
HETATM   29  N   UNL     1     -10.475  11.834  65.094  1.00  0.00    -0.271 NA 
ENDBRANCH  19  20
ENDBRANCH   8  15
ENDBRANCH   3   6
ENDBRANCH   2   3
TORSDOF 6
ENDMDL
MODEL      124
REMARK 921   NORMALIZED FREE ENERGY PREDICTED BY IDOCK:   -5.08 KCAL/MOL
REMARK 922        TOTAL FREE ENERGY PREDICTED BY IDOCK:   -7.37 KCAL/MOL
REMARK 923 INTER-LIGAND FREE ENERGY PREDICTED BY IDOCK:   -6.59 KCAL/MOL
REMARK 924 INTRA-LIGAND FREE ENERGY PREDICTED BY IDOCK:   -0.78 KCAL/MOL
REMARK 927      BINDING AFFINITY PREDICTED BY RF-SCORE:    0.00 PKD
ROOT
HETATM    1  C   UNL     1      -7.817  14.974  68.912  1.00  0.00    -0.162 C  
HETATM    2  C   UNL     1      -8.447  14.322  67.700  1.00  0.00    -0.180 C  
ENDROOT
BRANCH   2   3
HETATM    3  S   UNL     1     -10.223  14.230  67.848  1.00  0.00    -0.240 S  
HETATM    4  O   UNL     1     -10.642  15.049  68.962  1.00  0.00    -0.229 OA 
HETATM    5  O   UNL     1     -10.807  14.364  66.531  1.00  0.00    -0.301 OA 
BRANCH   3   6
HETATM    6  N   UNL     1     -10.378  12.617  68.318  1.00  0.00    -0.236 N  
HETATM    7  C   UNL     1     -11.499  11.703  67.954  1.00  0.00    -0.311 C  
HETATM    8  C   UNL     1     -10.565  10.471  68.199  1.00  0.00    -0.204 C  
HETATM    9  C   UNL     1      -9.413  11.515  68.039  1.00  0.00    -0.181 C  
BRANCH   8  10
HETATM   10  C   UNL     1     -10.672   9.310  67.220  1.00  0.00    -0.244 C  
BRANCH  10  11
HETATM   11  C   UNL     1     -10.063   9.652  65.870  1.00  0.00    -0.234 C  
HETATM   12  H1  UNL     1      -9.150  10.166  63.843  1.00  0.00     0.000 HD 
HETATM   13  N   UNL     1      -9.559   9.936  64.749  1.00  0.00    -0.353 NA 
HETATM   14  H2  UNL     1     -10.214  10.242  64.029  1.00  0.00     0.000 HD 
ENDBRANCH  10  11
ENDBRANCH   8  10
BRANCH   8  15
HETATM   15  N   UNL     1     -10.751  10.002  69.565  1.00  0.00    -0.228 NA 
HETATM   16  N   UNL     1     -11.792  10.447  70.305  1.00  0.00    -0.291 NA 
HETATM   17  C   UNL     1      -9.940   9.150  70.266  1.00  0.00    -0.208 A  
HETATM   18  C   UNL     1     -11.621   9.860  71.490  1.00  0.00    -0.301 A  
HETATM   19  C   UNL     1     -10.476   9.045  71.531  1.00  0.00    -0.410 A  
BRANCH  19  20
HETATM   20  C   UNL     1      -9.932   8.221  72.577  1.00  0.00    -0.303 A  
HETATM   21  C   UNL     1     -10.425   6.939  72.829  1.00  0.00    -0.252 A  
HETATM   22  C   UNL     1     -11.477   6.100  72.363  1.00  0.00    -0.349 A  
HETATM   23  C   UNL     1     -11.388   4.902  73.040  1.00  0.00    -0.273 A  
HETATM   24  N   UNL     1     -10.337   4.993  73.916  1.00  0.00    -0.223 NA 
HETATM   25  H   UNL     1     -10.034   4.252  74.548  1.00  0.00     0.000 HD 
HETATM   26  C   UNL     1      -9.757   6.228  73.812  1.00  0.00    -0.184 A  
HETATM   27  N   UNL     1      -8.714   6.644  74.546  1.00  0.00    -0.158 NA 
HETATM   28  C   UNL     1      -8.355   7.901  74.232  1.00  0.00    -0.244 A  
HETATM   29  N   UNL     1      -8.899   8.710  73.304  1.00  0.00    -0.289 NA 
ENDBRANCH  19  20
ENDBRANCH   8  15
ENDBRANCH   3   6
ENDBRANCH   2   3
TORSDOF 6
ENDMDL
MODEL      125
REMARK 921   NORMALIZED FREE ENERGY PREDICTED BY IDOCK:   -5.08 KCAL/MOL
REMARK 922        TOTAL FREE ENERGY PREDICTED BY IDOCK:   -7.37 KCAL/MOL
REMARK 923 INTER-LIGAND FREE ENERGY PREDICTED BY IDOCK:   -6.77 KCAL/MOL
REMARK 924 INTRA-LIGAND FREE ENERGY PREDICTED BY IDOCK:   -0.60 KCAL/MOL
REMARK 927      BINDING AFFINITY PREDICTED BY RF-SCORE:    0.00 PKD
ROOT
HETATM    1  C   UNL     1      -6.277   9.457  69.310  1.00  0.00    -0.041 C  
HETATM    2  C   UNL     1      -6.329   9.825  70.778  1.00  0.00    -0.095 C  
ENDROOT
BRANCH   2   3
HETATM    3  S   UNL     1      -6.868   8.453  71.784  1.00  0.00    -0.087 S  
HETATM    4  O   UNL     1      -6.436   7.222  71.166  1.00  0.00    -0.042 OA 
HETATM    5  O   UNL     1      -6.592   8.757  73.171  1.00  0.00    -0.271 OA 
BRANCH   3   6
HETATM    6  N   UNL     1      -8.534   8.580  71.552  1.00  0.00    -0.156 N  
HETATM    7  C   UNL     1      -9.313   7.961  70.440  1.00  0.00    -0.159 C  
HETATM    8  C   UNL     1     -10.606   8.023  71.321  1.00  0.00    -0.209 C  
HETATM    9  C   UNL     1      -9.599   8.159  72.508  1.00  0.00    -0.277 C  
BRANCH   8  10
HETATM   10  C   UNL     1     -11.547   6.828  71.264  1.00  0.00    -0.366 C  
BRANCH  10  11
HETATM   11  C   UNL     1     -10.997   5.639  72.035  1.00  0.00    -0.243 C  
HETATM   12  H1  UNL     1     -10.172   3.855  73.193  1.00  0.00     0.000 HD 
HETATM   13  N   UNL     1     -10.541   4.653  72.676  1.00  0.00    -0.201 NA 
HETATM   14  H2  UNL     1     -11.112   4.324  73.455  1.00  0.00     0.000 HD 
ENDBRANCH  10  11
ENDBRANCH   8  10
BRANCH   8  15
HETATM   15  N   UNL     1     -11.326   9.252  71.013  1.00  0.00    -0.293 NA 
HETATM   16  N   UNL     1     -12.553   9.474  71.535  1.00  0.00    -0.348 NA 
HETATM   17  C   UNL     1     -10.923  10.261  70.180  1.00  0.00    -0.314 A  
HETATM   18  C   UNL     1     -12.922  10.643  71.011  1.00  0.00    -0.363 A  
HETATM   19  C   UNL     1     -11.949  11.181  70.149  1.00  0.00    -0.449 A  
BRANCH  19  20
HETATM   20  C   UNL     1     -11.915  12.410  69.402  1.00  0.00    -0.260 A  
HETATM   21  C   UNL     1     -11.785  12.417  68.012  1.00  0.00    -0.414 A  
HETATM   22  C   UNL     1     -11.583  11.474  66.964  1.00  0.00    -0.203 A  
HETATM   23  C   UNL     1     -11.571  12.168  65.773  1.00  0.00    -0.355 A  
HETATM   24  N   UNL     1     -11.735  13.498  66.061  1.00  0.00    -0.343 NA 
HETATM   25  H   UNL     1     -11.769  14.249  65.372  1.00  0.00     0.000 HD 
HETATM   26  C   UNL     1     -11.847  13.665  67.415  1.00  0.00    -0.393 A  
HETATM   27  N   UNL     1     -11.999  14.849  68.028  1.00  0.00    -0.262 NA 
HETATM   28  C   UNL     1     -12.080  14.712  69.362  1.00  0.00    -0.280 A  
HETATM   29  N   UNL     1     -12.043  13.574  70.081  1.00  0.00    -0.349 NA 
ENDBRANCH  19  20
ENDBRANCH   8  15
ENDBRANCH   3   6
ENDBRANCH   2   3
TORSDOF 6
ENDMDL
MODEL      126
REMARK 921   NORMALIZED FREE ENERGY PREDICTED BY IDOCK:   -5.07 KCAL/MOL
REMARK 922        TOTAL FREE ENERGY PREDICTED BY IDOCK:   -7.36 KCAL/MOL
REMARK 923 INTER-LIGAND FREE ENERGY PREDICTED BY IDOCK:   -6.66 KCAL/MOL
REMARK 924 INTRA-LIGAND FREE ENERGY PREDICTED BY IDOCK:   -0.70 KCAL/MOL
REMARK 927      BINDING AFFINITY PREDICTED BY RF-SCORE:    0.00 PKD
ROOT
HETATM    1  C   UNL     1     -11.579  12.664  69.090  1.00  0.00    -0.374 C  
HETATM    2  C   UNL     1     -11.326  13.975  68.376  1.00  0.00    -0.291 C  
ENDROOT
BRANCH   2   3
HETATM    3  S   UNL     1     -11.170  13.747  66.613  1.00  0.00    -0.327 S  
HETATM    4  O   UNL     1     -12.488  13.758  66.022  1.00  0.00    -0.454 OA 
HETATM    5  O   UNL     1     -10.101  14.592  66.127  1.00  0.00    -0.273 OA 
BRANCH   3   6
HETATM    6  N   UNL     1     -10.616  12.153  66.589  1.00  0.00    -0.230 N  
HETATM    7  C   UNL     1     -11.010  11.104  65.605  1.00  0.00    -0.079 C  
HETATM    8  C   UNL     1      -9.682  10.333  65.906  1.00  0.00    -0.225 C  
HETATM    9  C   UNL     1      -9.198  11.708  66.470  1.00  0.00    -0.198 C  
BRANCH   8  10
HETATM   10  C   UNL     1      -8.957   9.705  64.724  1.00  0.00    -0.268 C  
BRANCH  10  11
HETATM   11  C   UNL     1      -9.148  10.513  63.451  1.00  0.00    -0.249 C  
HETATM   12  H1  UNL     1      -9.434  11.725  61.540  1.00  0.00     0.000 HD 
HETATM   13  N   UNL     1      -9.306  11.184  62.395  1.00  0.00    -0.529 NA 
HETATM   14  H2  UNL     1      -9.482  12.181  62.521  1.00  0.00     0.000 HD 
ENDBRANCH  10  11
ENDBRANCH   8  10
BRANCH   8  15
HETATM   15  N   UNL     1      -9.941   9.332  66.933  1.00  0.00    -0.213 NA 
HETATM   16  N   UNL     1     -10.140   8.039  66.592  1.00  0.00    -0.275 NA 
HETATM   17  C   UNL     1     -10.062   9.541  68.281  1.00  0.00    -0.183 A  
HETATM   18  C   UNL     1     -10.393   7.433  67.753  1.00  0.00    -0.213 A  
HETATM   19  C   UNL     1     -10.367   8.321  68.844  1.00  0.00    -0.230 A  
BRANCH  19  20
HETATM   20  C   UNL     1     -10.556   8.101  70.253  1.00  0.00    -0.228 A  
HETATM   21  C   UNL     1      -9.486   8.147  71.149  1.00  0.00    -0.192 A  
HETATM   22  C   UNL     1      -8.071   8.297  71.100  1.00  0.00    -0.124 A  
HETATM   23  C   UNL     1      -7.602   8.276  72.397  1.00  0.00    -0.120 A  
HETATM   24  N   UNL     1      -8.677   8.095  73.228  1.00  0.00    -0.238 NA 
HETATM   25  H   UNL     1      -8.631   8.043  74.245  1.00  0.00     0.000 HD 
HETATM   26  C   UNL     1      -9.822   7.997  72.484  1.00  0.00    -0.263 A  
HETATM   27  N   UNL     1     -11.047   7.798  72.994  1.00  0.00    -0.407 NA 
HETATM   28  C   UNL     1     -11.983   7.742  72.031  1.00  0.00    -0.308 A  
HETATM   29  N   UNL     1     -11.813   7.875  70.702  1.00  0.00    -0.172 NA 
ENDBRANCH  19  20
ENDBRANCH   8  15
ENDBRANCH   3   6
ENDBRANCH   2   3
TORSDOF 6
ENDMDL
MODEL      127
REMARK 921   NORMALIZED FREE ENERGY PREDICTED BY IDOCK:   -5.07 KCAL/MOL
REMARK 922        TOTAL FREE ENERGY PREDICTED BY IDOCK:   -7.36 KCAL/MOL
REMARK 923 INTER-LIGAND FREE ENERGY PREDICTED BY IDOCK:   -6.57 KCAL/MOL
REMARK 924 INTRA-LIGAND FREE ENERGY PREDICTED BY IDOCK:   -0.79 KCAL/MOL
REMARK 927      BINDING AFFINITY PREDICTED BY RF-SCORE:    0.00 PKD
ROOT
HETATM    1  C   UNL     1      -9.443  19.102  67.242  1.00  0.00    -0.367 C  
HETATM    2  C   UNL     1      -8.879  17.846  67.872  1.00  0.00    -0.260 C  
ENDROOT
BRANCH   2   3
HETATM    3  S   UNL     1      -7.840  16.946  66.733  1.00  0.00    -0.275 S  
HETATM    4  O   UNL     1      -7.750  17.687  65.497  1.00  0.00    -0.440 OA 
HETATM    5  O   UNL     1      -6.667  16.483  67.441  1.00  0.00    -0.132 OA 
BRANCH   3   6
HETATM    6  N   UNL     1      -8.832  15.610  66.453  1.00  0.00    -0.309 N  
HETATM    7  C   UNL     1      -9.258  14.607  67.471  1.00  0.00    -0.192 C  
HETATM    8  C   UNL     1     -10.500  14.249  66.589  1.00  0.00    -0.278 C  
HETATM    9  C   UNL     1     -10.225  15.635  65.921  1.00  0.00    -0.351 C  
BRANCH   8  10
HETATM   10  C   UNL     1     -11.820  14.007  67.308  1.00  0.00    -0.445 C  
BRANCH  10  11
HETATM   11  C   UNL     1     -12.030  14.991  68.448  1.00  0.00    -0.200 C  
HETATM   12  H1  UNL     1     -12.346  16.469  70.157  1.00  0.00     0.000 HD 
HETATM   13  N   UNL     1     -12.205  15.809  69.392  1.00  0.00    -0.511 NA 
HETATM   14  H2  UNL     1     -12.586  16.719  69.132  1.00  0.00     0.000 HD 
ENDBRANCH  10  11
ENDBRANCH   8  10
BRANCH   8  15
HETATM   15  N   UNL     1     -10.166  13.109  65.745  1.00  0.00    -0.286 NA 
HETATM   16  N   UNL     1     -10.417  13.145  64.417  1.00  0.00    -0.411 NA 
HETATM   17  C   UNL     1      -9.637  11.910  66.144  1.00  0.00    -0.234 A  
HETATM   18  C   UNL     1     -10.039  11.942  63.983  1.00  0.00    -0.334 A  
HETATM   19  C   UNL     1      -9.552  11.122  65.017  1.00  0.00    -0.278 A  
BRANCH  19  20
HETATM   20  C   UNL     1      -9.024   9.784  65.000  1.00  0.00    -0.207 A  
HETATM   21  C   UNL     1      -8.064   9.388  64.067  1.00  0.00    -0.150 A  
HETATM   22  C   UNL     1      -7.399   9.940  62.935  1.00  0.00    -0.125 A  
HETATM   23  C   UNL     1      -6.517   8.991  62.464  1.00  0.00    -0.094 A  
HETATM   24  N   UNL     1      -6.640   7.876  63.253  1.00  0.00    -0.074 NA 
HETATM   25  H   UNL     1      -6.107   7.014  63.139  1.00  0.00     0.000 HD 
HETATM   26  C   UNL     1      -7.587   8.097  64.216  1.00  0.00    -0.116 A  
HETATM   27  N   UNL     1      -7.961   7.197  65.138  1.00  0.00    -0.124 NA 
HETATM   28  C   UNL     1      -8.910   7.686  65.955  1.00  0.00    -0.130 A  
HETATM   29  N   UNL     1      -9.464   8.912  65.939  1.00  0.00    -0.245 NA 
ENDBRANCH  19  20
ENDBRANCH   8  15
ENDBRANCH   3   6
ENDBRANCH   2   3
TORSDOF 6
ENDMDL
MODEL      128
REMARK 921   NORMALIZED FREE ENERGY PREDICTED BY IDOCK:   -5.06 KCAL/MOL
REMARK 922        TOTAL FREE ENERGY PREDICTED BY IDOCK:   -7.35 KCAL/MOL
REMARK 923 INTER-LIGAND FREE ENERGY PREDICTED BY IDOCK:   -6.47 KCAL/MOL
REMARK 924 INTRA-LIGAND FREE ENERGY PREDICTED BY IDOCK:   -0.88 KCAL/MOL
REMARK 927      BINDING AFFINITY PREDICTED BY RF-SCORE:    0.00 PKD
ROOT
HETATM    1  C   UNL     1     -11.936  11.468  69.158  1.00  0.00    -0.386 C  
HETATM    2  C   UNL     1     -11.546  12.812  68.580  1.00  0.00    -0.314 C  
ENDROOT
BRANCH   2   3
HETATM    3  S   UNL     1     -11.091  12.685  66.860  1.00  0.00    -0.288 S  
HETATM    4  O   UNL     1     -12.293  12.613  66.062  1.00  0.00    -0.587 OA 
HETATM    5  O   UNL     1     -10.040  13.641  66.585  1.00  0.00    -0.265 OA 
BRANCH   3   6
HETATM    6  N   UNL     1     -10.397  11.148  66.871  1.00  0.00    -0.222 N  
HETATM    7  C   UNL     1     -10.246  10.246  65.692  1.00  0.00    -0.231 C  
HETATM    8  C   UNL     1      -9.069   9.510  66.414  1.00  0.00    -0.159 C  
HETATM    9  C   UNL     1      -9.007  10.804  67.289  1.00  0.00    -0.140 C  
BRANCH   8  10
HETATM   10  C   UNL     1      -7.868   9.115  65.566  1.00  0.00    -0.095 C  
BRANCH  10  11
HETATM   11  C   UNL     1      -7.833   9.876  64.250  1.00  0.00    -0.139 C  
HETATM   12  H1  UNL     1      -7.779  11.017  62.275  1.00  0.00     0.000 HD 
HETATM   13  N   UNL     1      -7.802  10.507  63.158  1.00  0.00    -0.292 NA 
HETATM   14  H2  UNL     1      -6.875  10.744  62.804  1.00  0.00     0.000 HD 
ENDBRANCH  10  11
ENDBRANCH   8  10
BRANCH   8  15
HETATM   15  N   UNL     1      -9.599   8.348  67.115  1.00  0.00    -0.167 NA 
HETATM   16  N   UNL     1     -10.345   7.433  66.456  1.00  0.00    -0.134 NA 
HETATM   17  C   UNL     1      -9.474   8.057  68.448  1.00  0.00    -0.145 A  
HETATM   18  C   UNL     1     -10.693   6.558  67.400  1.00  0.00    -0.340 A  
HETATM   19  C   UNL     1     -10.186   6.898  68.667  1.00  0.00    -0.181 A  
BRANCH  19  20
HETATM   20  C   UNL     1     -10.291   6.238  69.942  1.00  0.00    -0.196 A  
HETATM   21  C   UNL     1     -10.864   6.870  71.046  1.00  0.00    -0.272 A  
HETATM   22  C   UNL     1     -11.389   8.152  71.378  1.00  0.00    -0.299 A  
HETATM   23  C   UNL     1     -11.834   8.098  72.681  1.00  0.00    -0.326 A  
HETATM   24  N   UNL     1     -11.576   6.840  73.161  1.00  0.00    -0.455 NA 
HETATM   25  H   UNL     1     -11.801   6.511  74.100  1.00  0.00     0.000 HD 
HETATM   26  C   UNL     1     -10.972   6.091  72.187  1.00  0.00    -0.267 A  
HETATM   27  N   UNL     1     -10.572   4.820  72.340  1.00  0.00    -0.202 NA 
HETATM   28  C   UNL     1     -10.010   4.337  71.219  1.00  0.00    -0.160 A  
HETATM   29  N   UNL     1      -9.841   4.965  70.041  1.00  0.00    -0.213 NA 
ENDBRANCH  19  20
ENDBRANCH   8  15
ENDBRANCH   3   6
ENDBRANCH   2   3
TORSDOF 6
ENDMDL
MODEL      129
REMARK 921   NORMALIZED FREE ENERGY PREDICTED BY IDOCK:   -5.06 KCAL/MOL
REMARK 922        TOTAL FREE ENERGY PREDICTED BY IDOCK:   -7.35 KCAL/MOL
REMARK 923 INTER-LIGAND FREE ENERGY PREDICTED BY IDOCK:   -6.66 KCAL/MOL
REMARK 924 INTRA-LIGAND FREE ENERGY PREDICTED BY IDOCK:   -0.69 KCAL/MOL
REMARK 927      BINDING AFFINITY PREDICTED BY RF-SCORE:    0.00 PKD
ROOT
HETATM    1  C   UNL     1      -9.156   8.073  67.019  1.00  0.00    -0.170 C  
HETATM    2  C   UNL     1      -9.329   8.850  65.730  1.00  0.00    -0.219 C  
ENDROOT
BRANCH   2   3
HETATM    3  S   UNL     1      -9.086  10.600  65.977  1.00  0.00    -0.187 S  
HETATM    4  O   UNL     1      -7.687  10.846  66.237  1.00  0.00    -0.149 OA 
HETATM    5  O   UNL     1      -9.817  11.319  64.956  1.00  0.00    -0.237 OA 
BRANCH   3   6
HETATM    6  N   UNL     1      -9.915  10.791  67.434  1.00  0.00    -0.180 N  
HETATM    7  C   UNL     1      -9.566  11.752  68.520  1.00  0.00    -0.170 C  
HETATM    8  C   UNL     1     -11.046  11.703  69.028  1.00  0.00    -0.241 C  
HETATM    9  C   UNL     1     -11.351  11.154  67.597  1.00  0.00    -0.284 C  
BRANCH   8  10
HETATM   10  C   UNL     1     -11.671  13.014  69.483  1.00  0.00    -0.381 C  
BRANCH  10  11
HETATM   11  C   UNL     1     -12.018  13.912  68.306  1.00  0.00    -0.357 C  
HETATM   12  H1  UNL     1     -12.537  15.259  66.540  1.00  0.00     0.000 HD 
HETATM   13  N   UNL     1     -12.305  14.656  67.329  1.00  0.00    -0.502 NA 
HETATM   14  H2  UNL     1     -11.925  14.373  66.425  1.00  0.00     0.000 HD 
ENDBRANCH  10  11
ENDBRANCH   8  10
BRANCH   8  15
HETATM   15  N   UNL     1     -11.149  10.700  70.080  1.00  0.00    -0.294 NA 
HETATM   16  N   UNL     1     -12.345  10.423  70.646  1.00  0.00    -0.323 NA 
HETATM   17  C   UNL     1     -10.128   9.980  70.641  1.00  0.00     0.060 A  
HETATM   18  C   UNL     1     -12.060   9.516  71.581  1.00  0.00    -0.398 A  
HETATM   19  C   UNL     1     -10.689   9.205  71.632  1.00  0.00    -0.441 A  
BRANCH  19  20
HETATM   20  C   UNL     1      -9.954   8.281  72.455  1.00  0.00    -0.309 A  
HETATM   21  C   UNL     1     -10.431   6.995  72.714  1.00  0.00    -0.266 A  
HETATM   22  C   UNL     1     -11.599   6.225  72.444  1.00  0.00    -0.325 A  
HETATM   23  C   UNL     1     -11.409   4.972  72.986  1.00  0.00    -0.298 A  
HETATM   24  N   UNL     1     -10.181   4.961  73.595  1.00  0.00    -0.173 NA 
HETATM   25  H   UNL     1      -9.772   4.161  74.079  1.00  0.00     0.000 HD 
HETATM   26  C   UNL     1      -9.586   6.185  73.454  1.00  0.00    -0.148 A  
HETATM   27  N   UNL     1      -8.384   6.511  73.953  1.00  0.00    -0.110 NA 
HETATM   28  C   UNL     1      -8.052   7.781  73.662  1.00  0.00    -0.178 A  
HETATM   29  N   UNL     1      -8.760   8.680  72.954  1.00  0.00    -0.381 NA 
ENDBRANCH  19  20
ENDBRANCH   8  15
ENDBRANCH   3   6
ENDBRANCH   2   3
TORSDOF 6
ENDMDL
MODEL      130
REMARK 921   NORMALIZED FREE ENERGY PREDICTED BY IDOCK:   -5.04 KCAL/MOL
REMARK 922        TOTAL FREE ENERGY PREDICTED BY IDOCK:   -7.31 KCAL/MOL
REMARK 923 INTER-LIGAND FREE ENERGY PREDICTED BY IDOCK:   -6.49 KCAL/MOL
REMARK 924 INTRA-LIGAND FREE ENERGY PREDICTED BY IDOCK:   -0.82 KCAL/MOL
REMARK 927      BINDING AFFINITY PREDICTED BY RF-SCORE:    0.00 PKD
ROOT
HETATM    1  C   UNL     1      -9.264  16.055  67.815  1.00  0.00    -0.205 C  
HETATM    2  C   UNL     1      -9.716  15.466  66.495  1.00  0.00    -0.272 C  
ENDROOT
BRANCH   2   3
HETATM    3  S   UNL     1     -11.304  14.664  66.638  1.00  0.00    -0.352 S  
HETATM    4  O   UNL     1     -11.909  15.048  67.892  1.00  0.00    -0.334 OA 
HETATM    5  O   UNL     1     -12.001  14.785  65.377  1.00  0.00    -0.310 OA 
BRANCH   3   6
HETATM    6  N   UNL     1     -10.791  13.065  66.791  1.00  0.00    -0.266 N  
HETATM    7  C   UNL     1     -11.547  11.857  66.348  1.00  0.00    -0.243 C  
HETATM    8  C   UNL     1     -10.205  11.056  66.266  1.00  0.00    -0.245 C  
HETATM    9  C   UNL     1      -9.547  12.472  66.221  1.00  0.00    -0.245 C  
BRANCH   8  10
HETATM   10  C   UNL     1     -10.030  10.105  65.089  1.00  0.00    -0.379 C  
BRANCH  10  11
HETATM   11  C   UNL     1      -9.258  10.753  63.951  1.00  0.00    -0.235 C  
HETATM   12  H1  UNL     1      -8.099  11.724  62.243  1.00  0.00     0.000 HD 
HETATM   13  N   UNL     1      -8.617  11.289  63.006  1.00  0.00    -0.474 NA 
HETATM   14  H2  UNL     1      -8.486  10.715  62.173  1.00  0.00     0.000 HD 
ENDBRANCH  10  11
ENDBRANCH   8  10
BRANCH   8  15
HETATM   15  N   UNL     1     -10.001  10.349  67.524  1.00  0.00    -0.175 NA 
HETATM   16  N   UNL     1      -8.859  10.521  68.228  1.00  0.00    -0.134 NA 
HETATM   17  C   UNL     1     -10.843   9.441  68.109  1.00  0.00    -0.119 A  
HETATM   18  C   UNL     1      -8.994   9.700  69.270  1.00  0.00    -0.172 A  
HETATM   19  C   UNL     1     -10.209   8.992  69.247  1.00  0.00    -0.210 A  
BRANCH  19  20
HETATM   20  C   UNL     1     -10.770   8.037  70.166  1.00  0.00    -0.244 A  
HETATM   21  C   UNL     1     -10.294   6.727  70.240  1.00  0.00    -0.224 A  
HETATM   22  C   UNL     1      -9.349   5.905  69.563  1.00  0.00    -0.156 A  
HETATM   23  C   UNL     1      -9.351   4.671  70.176  1.00  0.00    -0.144 A  
HETATM   24  N   UNL     1     -10.279   4.706  71.185  1.00  0.00    -0.169 NA 
HETATM   25  H   UNL     1     -10.495   3.931  71.812  1.00  0.00     0.000 HD 
HETATM   26  C   UNL     1     -10.870   5.940  71.223  1.00  0.00    -0.270 A  
HETATM   27  N   UNL     1     -11.836   6.296  72.083  1.00  0.00    -0.331 NA 
HETATM   28  C   UNL     1     -12.230   7.567  71.891  1.00  0.00    -0.306 A  
HETATM   29  N   UNL     1     -11.764   8.450  70.988  1.00  0.00    -0.277 NA 
ENDBRANCH  19  20
ENDBRANCH   8  15
ENDBRANCH   3   6
ENDBRANCH   2   3
TORSDOF 6
ENDMDL
MODEL      131
REMARK 921   NORMALIZED FREE ENERGY PREDICTED BY IDOCK:   -5.03 KCAL/MOL
REMARK 922        TOTAL FREE ENERGY PREDICTED BY IDOCK:   -7.30 KCAL/MOL
REMARK 923 INTER-LIGAND FREE ENERGY PREDICTED BY IDOCK:   -6.77 KCAL/MOL
REMARK 924 INTRA-LIGAND FREE ENERGY PREDICTED BY IDOCK:   -0.53 KCAL/MOL
REMARK 927      BINDING AFFINITY PREDICTED BY RF-SCORE:    0.00 PKD
ROOT
HETATM    1  C   UNL     1      -6.844   9.486  65.238  1.00  0.00    -0.087 C  
HETATM    2  C   UNL     1      -6.500   8.064  65.627  1.00  0.00    -0.042 C  
ENDROOT
BRANCH   2   3
HETATM    3  S   UNL     1      -7.745   7.349  66.687  1.00  0.00    -0.103 S  
HETATM    4  O   UNL     1      -8.798   6.799  65.865  1.00  0.00    -0.156 OA 
HETATM    5  O   UNL     1      -7.089   6.577  67.719  1.00  0.00    -0.082 OA 
BRANCH   3   6
HETATM    6  N   UNL     1      -8.341   8.758  67.399  1.00  0.00    -0.109 N  
HETATM    7  C   UNL     1      -9.763   9.018  67.767  1.00  0.00    -0.156 C  
HETATM    8  C   UNL     1      -9.290  10.077  68.818  1.00  0.00    -0.162 C  
HETATM    9  C   UNL     1      -7.915   9.342  68.703  1.00  0.00    -0.100 C  
BRANCH   8  10
HETATM   10  C   UNL     1     -10.019  10.108  70.154  1.00  0.00    -0.154 C  
BRANCH  10  11
HETATM   11  C   UNL     1     -11.520  10.268  69.975  1.00  0.00    -0.296 C  
HETATM   12  H1  UNL     1     -13.772  10.507  69.705  1.00  0.00     0.000 HD 
HETATM   13  N   UNL     1     -12.765  10.401  69.826  1.00  0.00    -0.591 NA 
HETATM   14  H2  UNL     1     -13.116  11.359  69.825  1.00  0.00     0.000 HD 
ENDBRANCH  10  11
ENDBRANCH   8  10
BRANCH   8  15
HETATM   15  N   UNL     1      -9.308  11.396  68.199  1.00  0.00    -0.175 NA 
HETATM   16  N   UNL     1      -8.471  12.365  68.631  1.00  0.00    -0.049 NA 
HETATM   17  C   UNL     1     -10.141  11.831  67.203  1.00  0.00    -0.203 A  
HETATM   18  C   UNL     1      -8.793  13.426  67.889  1.00  0.00    -0.194 A  
HETATM   19  C   UNL     1      -9.836  13.157  66.985  1.00  0.00    -0.244 A  
BRANCH  19  20
HETATM   20  C   UNL     1     -10.474  13.985  65.996  1.00  0.00    -0.304 A  
HETATM   21  C   UNL     1     -11.267  13.437  64.986  1.00  0.00    -0.332 A  
HETATM   22  C   UNL     1     -11.643  12.145  64.520  1.00  0.00    -0.403 A  
HETATM   23  C   UNL     1     -12.502  12.318  63.455  1.00  0.00    -0.534 A  
HETATM   24  N   UNL     1     -12.640  13.665  63.243  1.00  0.00    -0.961 NA 
HETATM   25  H   UNL     1     -13.220  14.089  62.518  1.00  0.00     0.000 HD 
HETATM   26  C   UNL     1     -11.883  14.354  64.151  1.00  0.00    -0.291 A  
HETATM   27  N   UNL     1     -11.783  15.691  64.202  1.00  0.00    -0.403 NA 
HETATM   28  C   UNL     1     -10.970  16.092  65.194  1.00  0.00    -0.348 A  
HETATM   29  N   UNL     1     -10.310  15.326  66.083  1.00  0.00    -0.286 NA 
ENDBRANCH  19  20
ENDBRANCH   8  15
ENDBRANCH   3   6
ENDBRANCH   2   3
TORSDOF 6
ENDMDL
MODEL      132
REMARK 921   NORMALIZED FREE ENERGY PREDICTED BY IDOCK:   -5.00 KCAL/MOL
REMARK 922        TOTAL FREE ENERGY PREDICTED BY IDOCK:   -7.27 KCAL/MOL
REMARK 923 INTER-LIGAND FREE ENERGY PREDICTED BY IDOCK:   -6.81 KCAL/MOL
REMARK 924 INTRA-LIGAND FREE ENERGY PREDICTED BY IDOCK:   -0.46 KCAL/MOL
REMARK 927      BINDING AFFINITY PREDICTED BY RF-SCORE:    0.00 PKD
ROOT
HETATM    1  C   UNL     1      -8.982  17.434  69.156  1.00  0.00     0.055 C  
HETATM    2  C   UNL     1      -7.841  18.405  68.938  1.00  0.00    -0.204 C  
ENDROOT
BRANCH   2   3
HETATM    3  S   UNL     1      -6.256  17.585  68.988  1.00  0.00    -0.222 S  
HETATM    4  O   UNL     1      -5.503  17.952  67.811  1.00  0.00    -0.142 OA 
HETATM    5  O   UNL     1      -5.711  17.709  70.322  1.00  0.00    -0.249 OA 
BRANCH   3   6
HETATM    6  N   UNL     1      -6.766  15.990  68.786  1.00  0.00    -0.123 N  
HETATM    7  C   UNL     1      -6.176  14.994  67.845  1.00  0.00    -0.159 C  
HETATM    8  C   UNL     1      -6.733  13.833  68.734  1.00  0.00    -0.103 C  
HETATM    9  C   UNL     1      -6.820  14.935  69.839  1.00  0.00    -0.167 C  
BRANCH   8  10
HETATM   10  C   UNL     1      -5.833  12.623  68.945  1.00  0.00    -0.071 C  
BRANCH  10  11
HETATM   11  C   UNL     1      -5.490  12.424  70.413  1.00  0.00    -0.150 C  
HETATM   12  H1  UNL     1      -4.975  12.125  72.615  1.00  0.00     0.000 HD 
HETATM   13  N   UNL     1      -5.205  12.258  71.630  1.00  0.00    -0.360 NA 
HETATM   14  H2  UNL     1      -4.543  11.510  71.836  1.00  0.00     0.000 HD 
ENDBRANCH  10  11
ENDBRANCH   8  10
BRANCH   8  15
HETATM   15  N   UNL     1      -8.027  13.418  68.211  1.00  0.00    -0.141 NA 
HETATM   16  N   UNL     1      -8.718  12.420  68.807  1.00  0.00     0.062 NA 
HETATM   17  C   UNL     1      -8.665  13.902  67.099  1.00  0.00    -0.221 A  
HETATM   18  C   UNL     1      -9.805  12.280  68.047  1.00  0.00    -0.204 A  
HETATM   19  C   UNL     1      -9.825  13.172  66.960  1.00  0.00    -0.244 A  
BRANCH  19  20
HETATM   20  C   UNL     1     -10.797  13.382  65.920  1.00  0.00    -0.274 A  
HETATM   21  C   UNL     1     -11.032  14.650  65.386  1.00  0.00    -0.358 A  
HETATM   22  C   UNL     1     -10.608  15.990  65.616  1.00  0.00    -0.392 A  
HETATM   23  C   UNL     1     -11.229  16.792  64.682  1.00  0.00     0.105 A  
HETATM   24  N   UNL     1     -12.032  15.992  63.910  1.00  0.00    -1.309 NA 
HETATM   25  H   UNL     1     -12.611  16.314  63.135  1.00  0.00     0.000 HD 
HETATM   26  C   UNL     1     -11.936  14.695  64.337  1.00  0.00    -0.437 A  
HETATM   27  N   UNL     1     -12.610  13.665  63.805  1.00  0.00    -0.703 NA 
HETATM   28  C   UNL     1     -12.321  12.508  64.424  1.00  0.00    -0.455 A  
HETATM   29  N   UNL     1     -11.467  12.306  65.444  1.00  0.00    -0.345 NA 
ENDBRANCH  19  20
ENDBRANCH   8  15
ENDBRANCH   3   6
ENDBRANCH   2   3
TORSDOF 6
ENDMDL
MODEL      133
REMARK 921   NORMALIZED FREE ENERGY PREDICTED BY IDOCK:   -4.98 KCAL/MOL
REMARK 922        TOTAL FREE ENERGY PREDICTED BY IDOCK:   -7.23 KCAL/MOL
REMARK 923 INTER-LIGAND FREE ENERGY PREDICTED BY IDOCK:   -6.67 KCAL/MOL
REMARK 924 INTRA-LIGAND FREE ENERGY PREDICTED BY IDOCK:   -0.56 KCAL/MOL
REMARK 927      BINDING AFFINITY PREDICTED BY RF-SCORE:    0.00 PKD
ROOT
HETATM    1  C   UNL     1      -8.176   5.999  65.999  1.00  0.00    -0.125 C  
HETATM    2  C   UNL     1      -7.809   6.476  64.609  1.00  0.00    -0.112 C  
ENDROOT
BRANCH   2   3
HETATM    3  S   UNL     1      -6.885   8.001  64.656  1.00  0.00    -0.064 S  
HETATM    4  O   UNL     1      -5.756   7.836  65.542  1.00  0.00    -0.036 OA 
HETATM    5  O   UNL     1      -6.738   8.498  63.305  1.00  0.00    -0.088 OA 
BRANCH   3   6
HETATM    6  N   UNL     1      -8.010   8.980  65.444  1.00  0.00    -0.107 N  
HETATM    7  C   UNL     1      -7.817  10.413  65.814  1.00  0.00    -0.150 C  
HETATM    8  C   UNL     1      -9.370  10.608  65.839  1.00  0.00    -0.190 C  
HETATM    9  C   UNL     1      -9.387   9.306  64.975  1.00  0.00    -0.127 C  
BRANCH   8  10
HETATM   10  C   UNL     1      -9.919  11.905  65.259  1.00  0.00    -0.280 C  
BRANCH  10  11
HETATM   11  C   UNL     1     -10.876  11.647  64.106  1.00  0.00    -0.372 C  
HETATM   12  H1  UNL     1     -12.311  11.260  62.376  1.00  0.00     0.000 HD 
HETATM   13  N   UNL     1     -11.670  11.432  63.150  1.00  0.00    -0.865 NA 
HETATM   14  H2  UNL     1     -12.257  10.602  63.234  1.00  0.00     0.000 HD 
ENDBRANCH  10  11
ENDBRANCH   8  10
BRANCH   8  15
HETATM   15  N   UNL     1      -9.848  10.419  67.202  1.00  0.00    -0.175 NA 
HETATM   16  N   UNL     1      -9.798  11.436  68.091  1.00  0.00    -0.184 NA 
HETATM   17  C   UNL     1     -10.333   9.264  67.756  1.00  0.00    -0.237 A  
HETATM   18  C   UNL     1     -10.258  10.900  69.222  1.00  0.00    -0.166 A  
HETATM   19  C   UNL     1     -10.601   9.544  69.078  1.00  0.00    -0.238 A  
BRANCH  19  20
HETATM   20  C   UNL     1     -11.150   8.598  70.013  1.00  0.00    -0.157 A  
HETATM   21  C   UNL     1     -12.106   8.974  70.958  1.00  0.00    -0.304 A  
HETATM   22  C   UNL     1     -12.749  10.168  71.394  1.00  0.00    -0.530 A  
HETATM   23  C   UNL     1     -13.640   9.824  72.388  1.00  0.00    -0.239 A  
HETATM   24  N   UNL     1     -13.545   8.471  72.587  1.00  0.00    -0.653 NA 
HETATM   25  H   UNL     1     -14.090   7.937  73.263  1.00  0.00     0.000 HD 
HETATM   26  C   UNL     1     -12.606   7.947  71.741  1.00  0.00    -0.328 A  
HETATM   27  N   UNL     1     -12.257   6.652  71.696  1.00  0.00    -0.355 NA 
HETATM   28  C   UNL     1     -11.310   6.423  70.771  1.00  0.00    -0.350 A  
HETATM   29  N   UNL     1     -10.736   7.310  69.937  1.00  0.00    -0.239 NA 
ENDBRANCH  19  20
ENDBRANCH   8  15
ENDBRANCH   3   6
ENDBRANCH   2   3
TORSDOF 6
ENDMDL
MODEL      134
REMARK 921   NORMALIZED FREE ENERGY PREDICTED BY IDOCK:   -4.97 KCAL/MOL
REMARK 922        TOTAL FREE ENERGY PREDICTED BY IDOCK:   -7.22 KCAL/MOL
REMARK 923 INTER-LIGAND FREE ENERGY PREDICTED BY IDOCK:   -6.46 KCAL/MOL
REMARK 924 INTRA-LIGAND FREE ENERGY PREDICTED BY IDOCK:   -0.76 KCAL/MOL
REMARK 927      BINDING AFFINITY PREDICTED BY RF-SCORE:    0.00 PKD
ROOT
HETATM    1  C   UNL     1      -7.815   5.342  74.223  1.00  0.00    -0.096 C  
HETATM    2  C   UNL     1      -7.613   6.089  72.921  1.00  0.00    -0.102 C  
ENDROOT
BRANCH   2   3
HETATM    3  S   UNL     1      -8.244   7.756  73.012  1.00  0.00    -0.148 S  
HETATM    4  O   UNL     1      -9.284   7.808  74.013  1.00  0.00    -0.260 OA 
HETATM    5  O   UNL     1      -7.128   8.676  73.013  1.00  0.00    -0.297 OA 
BRANCH   3   6
HETATM    6  N   UNL     1      -8.988   7.851  71.501  1.00  0.00    -0.132 N  
HETATM    7  C   UNL     1      -8.880   6.843  70.407  1.00  0.00    -0.152 C  
HETATM    8  C   UNL     1     -10.233   7.356  69.810  1.00  0.00    -0.209 C  
HETATM    9  C   UNL     1     -10.452   7.954  71.238  1.00  0.00    -0.203 C  
BRANCH   8  10
HETATM   10  C   UNL     1     -11.201   6.310  69.275  1.00  0.00    -0.458 C  
BRANCH  10  11
HETATM   11  C   UNL     1     -11.136   6.204  67.760  1.00  0.00    -0.200 C  
HETATM   12  H1  UNL     1     -11.040   6.046  65.486  1.00  0.00     0.000 HD 
HETATM   13  N   UNL     1     -11.083   6.117  66.502  1.00  0.00    -0.749 NA 
HETATM   14  H2  UNL     1     -11.980   6.040  66.021  1.00  0.00     0.000 HD 
ENDBRANCH  10  11
ENDBRANCH   8  10
BRANCH   8  15
HETATM   15  N   UNL     1      -9.949   8.355  68.789  1.00  0.00    -0.181 NA 
HETATM   16  N   UNL     1      -8.941   8.164  67.907  1.00  0.00    -0.134 NA 
HETATM   17  C   UNL     1     -10.575   9.560  68.612  1.00  0.00    -0.210 A  
HETATM   18  C   UNL     1      -8.940   9.276  67.171  1.00  0.00    -0.126 A  
HETATM   19  C   UNL     1      -9.932  10.190  67.569  1.00  0.00    -0.231 A  
BRANCH  19  20
HETATM   20  C   UNL     1     -10.300  11.480  67.050  1.00  0.00    -0.220 A  
HETATM   21  C   UNL     1      -9.435  12.573  67.127  1.00  0.00    -0.208 A  
HETATM   22  C   UNL     1      -8.162  12.877  67.690  1.00  0.00    -0.177 A  
HETATM   23  C   UNL     1      -7.863  14.184  67.369  1.00  0.00    -0.177 A  
HETATM   24  N   UNL     1      -8.917  14.691  66.655  1.00  0.00    -0.354 NA 
HETATM   25  H   UNL     1      -8.973  15.639  66.282  1.00  0.00     0.000 HD 
HETATM   26  C   UNL     1      -9.884  13.732  66.517  1.00  0.00    -0.290 A  
HETATM   27  N   UNL     1     -11.054  13.914  65.885  1.00  0.00    -0.290 NA 
HETATM   28  C   UNL     1     -11.808  12.801  65.906  1.00  0.00    -0.437 A  
HETATM   29  N   UNL     1     -11.507  11.607  66.449  1.00  0.00    -0.420 NA 
ENDBRANCH  19  20
ENDBRANCH   8  15
ENDBRANCH   3   6
ENDBRANCH   2   3
TORSDOF 6
ENDMDL
MODEL      135
REMARK 921   NORMALIZED FREE ENERGY PREDICTED BY IDOCK:   -4.97 KCAL/MOL
REMARK 922        TOTAL FREE ENERGY PREDICTED BY IDOCK:   -7.22 KCAL/MOL
REMARK 923 INTER-LIGAND FREE ENERGY PREDICTED BY IDOCK:   -6.33 KCAL/MOL
REMARK 924 INTRA-LIGAND FREE ENERGY PREDICTED BY IDOCK:   -0.89 KCAL/MOL
REMARK 927      BINDING AFFINITY PREDICTED BY RF-SCORE:    0.00 PKD
ROOT
HETATM    1  C   UNL     1     -10.311   4.721  66.392  1.00  0.00    -0.312 C  
HETATM    2  C   UNL     1     -10.804   6.023  66.988  1.00  0.00    -0.331 C  
ENDROOT
BRANCH   2   3
HETATM    3  S   UNL     1     -10.375   6.163  68.715  1.00  0.00    -0.236 S  
HETATM    4  O   UNL     1     -11.581   6.377  69.480  1.00  0.00    -0.404 OA 
HETATM    5  O   UNL     1      -9.428   5.120  69.045  1.00  0.00    -0.117 OA 
BRANCH   3   6
HETATM    6  N   UNL     1      -9.535   7.625  68.672  1.00  0.00    -0.151 N  
HETATM    7  C   UNL     1      -9.725   8.772  69.607  1.00  0.00    -0.173 C  
HETATM    8  C   UNL     1      -8.277   9.269  69.280  1.00  0.00    -0.108 C  
HETATM    9  C   UNL     1      -8.058   7.804  68.780  1.00  0.00    -0.126 C  
BRANCH   8  10
HETATM   10  C   UNL     1      -7.445   9.803  70.438  1.00  0.00    -0.161 C  
BRANCH  10  11
HETATM   11  C   UNL     1      -7.249   8.755  71.522  1.00  0.00    -0.088 C  
HETATM   12  H1  UNL     1      -6.954   7.184  73.149  1.00  0.00     0.000 HD 
HETATM   13  N   UNL     1      -7.086   7.887  72.422  1.00  0.00    -0.080 NA 
HETATM   14  H2  UNL     1      -6.907   8.244  73.361  1.00  0.00     0.000 HD 
ENDBRANCH  10  11
ENDBRANCH   8  10
BRANCH   8  15
HETATM   15  N   UNL     1      -8.348  10.254  68.209  1.00  0.00    -0.114 NA 
HETATM   16  N   UNL     1      -7.383  10.307  67.264  1.00  0.00    -0.089 NA 
HETATM   17  C   UNL     1      -9.297  11.227  68.041  1.00  0.00    -0.166 A  
HETATM   18  C   UNL     1      -7.740  11.337  66.494  1.00  0.00    -0.125 A  
HETATM   19  C   UNL     1      -8.922  11.957  66.934  1.00  0.00    -0.196 A  
BRANCH  19  20
HETATM   20  C   UNL     1      -9.669  13.066  66.402  1.00  0.00    -0.268 A  
HETATM   21  C   UNL     1     -10.453  12.935  65.255  1.00  0.00    -0.312 A  
HETATM   22  C   UNL     1     -10.737  11.941  64.275  1.00  0.00    -0.388 A  
HETATM   23  C   UNL     1     -11.650  12.474  63.390  1.00  0.00    -0.473 A  
HETATM   24  N   UNL     1     -11.912  13.761  63.783  1.00  0.00    -0.710 NA 
HETATM   25  H   UNL     1     -12.555  14.399  63.314  1.00  0.00     0.000 HD 
HETATM   26  C   UNL     1     -11.180  14.060  64.900  1.00  0.00    -0.362 A  
HETATM   27  N   UNL     1     -11.192  15.247  65.525  1.00  0.00    -0.311 NA 
HETATM   28  C   UNL     1     -10.376  15.255  66.593  1.00  0.00    -0.280 A  
HETATM   29  N   UNL     1      -9.617  14.247  67.062  1.00  0.00    -0.248 NA 
ENDBRANCH  19  20
ENDBRANCH   8  15
ENDBRANCH   3   6
ENDBRANCH   2   3
TORSDOF 6
ENDMDL
MODEL      136
REMARK 921   NORMALIZED FREE ENERGY PREDICTED BY IDOCK:   -4.93 KCAL/MOL
REMARK 922        TOTAL FREE ENERGY PREDICTED BY IDOCK:   -7.17 KCAL/MOL
REMARK 923 INTER-LIGAND FREE ENERGY PREDICTED BY IDOCK:   -6.63 KCAL/MOL
REMARK 924 INTRA-LIGAND FREE ENERGY PREDICTED BY IDOCK:   -0.54 KCAL/MOL
REMARK 927      BINDING AFFINITY PREDICTED BY RF-SCORE:    0.00 PKD
ROOT
HETATM    1  C   UNL     1      -7.888  17.448  66.674  1.00  0.00    -0.292 C  
HETATM    2  C   UNL     1      -8.410  16.629  67.836  1.00  0.00    -0.185 C  
ENDROOT
BRANCH   2   3
HETATM    3  S   UNL     1      -7.259  15.350  68.312  1.00  0.00    -0.123 S  
HETATM    4  O   UNL     1      -6.147  15.355  67.390  1.00  0.00    -0.299 OA 
HETATM    5  O   UNL     1      -7.072  15.403  69.745  1.00  0.00    -0.185 OA 
BRANCH   3   6
HETATM    6  N   UNL     1      -8.199  13.992  67.966  1.00  0.00    -0.143 N  
HETATM    7  C   UNL     1      -9.632  14.002  67.552  1.00  0.00    -0.228 C  
HETATM    8  C   UNL     1      -9.442  12.598  66.886  1.00  0.00    -0.229 C  
HETATM    9  C   UNL     1      -7.923  12.964  66.922  1.00  0.00     0.079 C  
BRANCH   8  10
HETATM   10  C   UNL     1     -10.129  12.361  65.548  1.00  0.00    -0.287 C  
BRANCH  10  11
HETATM   11  C   UNL     1     -11.119  13.467  65.219  1.00  0.00    -0.297 C  
HETATM   12  H1  UNL     1     -12.605  15.126  64.725  1.00  0.00     0.000 HD 
HETATM   13  N   UNL     1     -11.941  14.384  64.946  1.00  0.00    -0.406 NA 
HETATM   14  H2  UNL     1     -12.925  14.164  65.104  1.00  0.00     0.000 HD 
ENDBRANCH  10  11
ENDBRANCH   8  10
BRANCH   8  15
HETATM   15  N   UNL     1      -9.824  11.568  67.842  1.00  0.00    -0.180 NA 
HETATM   16  N   UNL     1      -9.198  10.369  67.843  1.00  0.00    -0.138 NA 
HETATM   17  C   UNL     1     -10.824  11.634  68.775  1.00  0.00    -0.220 A  
HETATM   18  C   UNL     1      -9.826   9.676  68.793  1.00  0.00    -0.165 A  
HETATM   19  C   UNL     1     -10.858  10.409  69.406  1.00  0.00    -0.287 A  
BRANCH  19  20
HETATM   20  C   UNL     1     -11.760  10.070  70.475  1.00  0.00    -0.318 A  
HETATM   21  C   UNL     1     -11.751   8.805  71.064  1.00  0.00    -0.329 A  
HETATM   22  C   UNL     1     -11.094   7.556  70.878  1.00  0.00    -0.279 A  
HETATM   23  C   UNL     1     -11.544   6.696  71.857  1.00  0.00    -0.303 A  
HETATM   24  N   UNL     1     -12.468   7.369  72.614  1.00  0.00    -0.452 NA 
HETATM   25  H   UNL     1     -12.968   6.981  73.414  1.00  0.00     0.000 HD 
HETATM   26  C   UNL     1     -12.616   8.642  72.134  1.00  0.00    -0.391 A  
HETATM   27  N   UNL     1     -13.460   9.554  72.640  1.00  0.00    -0.291 NA 
HETATM   28  C   UNL     1     -13.396  10.717  71.968  1.00  0.00    -0.304 A  
HETATM   29  N   UNL     1     -12.608  11.026  70.922  1.00  0.00    -0.377 NA 
ENDBRANCH  19  20
ENDBRANCH   8  15
ENDBRANCH   3   6
ENDBRANCH   2   3
TORSDOF 6
ENDMDL
MODEL      137
REMARK 921   NORMALIZED FREE ENERGY PREDICTED BY IDOCK:   -4.89 KCAL/MOL
REMARK 922        TOTAL FREE ENERGY PREDICTED BY IDOCK:   -7.12 KCAL/MOL
REMARK 923 INTER-LIGAND FREE ENERGY PREDICTED BY IDOCK:   -6.23 KCAL/MOL
REMARK 924 INTRA-LIGAND FREE ENERGY PREDICTED BY IDOCK:   -0.89 KCAL/MOL
REMARK 927      BINDING AFFINITY PREDICTED BY RF-SCORE:    0.00 PKD
ROOT
HETATM    1  C   UNL     1      -6.483   9.511  70.946  1.00  0.00    -0.094 C  
HETATM    2  C   UNL     1      -6.737   8.615  72.140  1.00  0.00    -0.060 C  
ENDROOT
BRANCH   2   3
HETATM    3  S   UNL     1      -7.419   7.041  71.651  1.00  0.00    -0.088 S  
HETATM    4  O   UNL     1      -6.505   6.399  70.736  1.00  0.00    -0.045 OA 
HETATM    5  O   UNL     1      -7.930   6.370  72.827  1.00  0.00    -0.104 OA 
BRANCH   3   6
HETATM    6  N   UNL     1      -8.741   7.580  70.753  1.00  0.00    -0.139 N  
HETATM    7  C   UNL     1      -8.939   7.392  69.286  1.00  0.00    -0.136 C  
HETATM    8  C   UNL     1     -10.483   7.559  69.480  1.00  0.00    -0.226 C  
HETATM    9  C   UNL     1     -10.171   7.220  70.974  1.00  0.00    -0.192 C  
BRANCH   8  10
HETATM   10  C   UNL     1     -11.390   6.642  68.672  1.00  0.00    -0.148 C  
BRANCH  10  11
HETATM   11  C   UNL     1     -10.775   6.278  67.330  1.00  0.00    -0.349 C  
HETATM   12  H1  UNL     1      -9.853   5.733  65.316  1.00  0.00     0.000 HD 
HETATM   13  N   UNL     1     -10.265   5.976  66.217  1.00  0.00    -0.412 NA 
HETATM   14  H2  UNL     1     -10.225   4.980  65.999  1.00  0.00     0.000 HD 
ENDBRANCH  10  11
ENDBRANCH   8  10
BRANCH   8  15
HETATM   15  N   UNL     1     -10.838   8.953  69.252  1.00  0.00    -0.155 NA 
HETATM   16  N   UNL     1     -11.535   9.643  70.184  1.00  0.00    -0.223 NA 
HETATM   17  C   UNL     1     -10.585   9.700  68.132  1.00  0.00    -0.226 A  
HETATM   18  C   UNL     1     -11.721  10.841  69.629  1.00  0.00    -0.323 A  
HETATM   19  C   UNL     1     -11.158  10.935  68.344  1.00  0.00    -0.320 A  
BRANCH  19  20
HETATM   20  C   UNL     1     -11.099  12.028  67.409  1.00  0.00    -0.281 A  
HETATM   21  C   UNL     1      -9.980  12.858  67.325  1.00  0.00    -0.224 A  
HETATM   22  C   UNL     1      -8.740  13.034  68.003  1.00  0.00    -0.187 A  
HETATM   23  C   UNL     1      -8.061  14.057  67.376  1.00  0.00    -0.185 A  
HETATM   24  N   UNL     1      -8.853  14.524  66.359  1.00  0.00    -0.475 NA 
HETATM   25  H   UNL     1      -8.606  15.281  65.721  1.00  0.00     0.000 HD 
HETATM   26  C   UNL     1     -10.026  13.819  66.328  1.00  0.00    -0.305 A  
HETATM   27  N   UNL     1     -11.027  14.041  65.463  1.00  0.00    -0.301 NA 
HETATM   28  C   UNL     1     -12.056  13.200  65.666  1.00  0.00    -0.449 A  
HETATM   29  N   UNL     1     -12.154  12.219  66.582  1.00  0.00    -0.589 NA 
ENDBRANCH  19  20
ENDBRANCH   8  15
ENDBRANCH   3   6
ENDBRANCH   2   3
TORSDOF 6
ENDMDL
MODEL      138
REMARK 921   NORMALIZED FREE ENERGY PREDICTED BY IDOCK:   -4.88 KCAL/MOL
REMARK 922        TOTAL FREE ENERGY PREDICTED BY IDOCK:   -7.11 KCAL/MOL
REMARK 923 INTER-LIGAND FREE ENERGY PREDICTED BY IDOCK:   -6.23 KCAL/MOL
REMARK 924 INTRA-LIGAND FREE ENERGY PREDICTED BY IDOCK:   -0.87 KCAL/MOL
REMARK 927      BINDING AFFINITY PREDICTED BY RF-SCORE:    0.00 PKD
ROOT
HETATM    1  C   UNL     1     -10.789   5.971  70.586  1.00  0.00    -0.364 C  
HETATM    2  C   UNL     1     -11.367   7.181  69.882  1.00  0.00    -0.163 C  
ENDROOT
BRANCH   2   3
HETATM    3  S   UNL     1     -10.883   8.703  70.680  1.00  0.00    -0.236 S  
HETATM    4  O   UNL     1     -12.072   9.422  71.074  1.00  0.00    -0.293 OA 
HETATM    5  O   UNL     1      -9.810   8.420  71.608  1.00  0.00    -0.181 OA 
BRANCH   3   6
HETATM    6  N   UNL     1     -10.218   9.508  69.355  1.00  0.00    -0.195 N  
HETATM    7  C   UNL     1      -8.889   9.229  68.738  1.00  0.00    -0.132 C  
HETATM    8  C   UNL     1      -9.386   9.864  67.397  1.00  0.00    -0.137 C  
HETATM    9  C   UNL     1     -10.810   9.612  67.990  1.00  0.00    -0.196 C  
BRANCH   8  10
HETATM   10  C   UNL     1      -8.975   9.173  66.103  1.00  0.00    -0.211 C  
BRANCH  10  11
HETATM   11  C   UNL     1      -9.631   9.811  64.890  1.00  0.00    -0.246 C  
HETATM   12  H1  UNL     1     -10.616  10.769  63.068  1.00  0.00     0.000 HD 
HETATM   13  N   UNL     1     -10.176  10.341  63.883  1.00  0.00    -0.463 NA 
HETATM   14  H2  UNL     1     -10.476  11.310  63.995  1.00  0.00     0.000 HD 
ENDBRANCH  10  11
ENDBRANCH   8  10
BRANCH   8  15
HETATM   15  N   UNL     1      -8.998  11.268  67.367  1.00  0.00    -0.143 NA 
HETATM   16  N   UNL     1      -7.697  11.620  67.463  1.00  0.00    -0.127 NA 
HETATM   17  C   UNL     1      -9.829  12.354  67.294  1.00  0.00    -0.207 A  
HETATM   18  C   UNL     1      -7.720  12.953  67.453  1.00  0.00    -0.159 A  
HETATM   19  C   UNL     1      -9.024  13.471  67.358  1.00  0.00    -0.219 A  
BRANCH  19  20
HETATM   20  C   UNL     1      -9.507  14.825  67.291  1.00  0.00    -0.214 A  
HETATM   21  C   UNL     1     -10.165  15.420  68.369  1.00  0.00    -0.221 A  
HETATM   22  C   UNL     1     -10.631  15.046  69.662  1.00  0.00    -0.252 A  
HETATM   23  C   UNL     1     -11.195  16.161  70.243  1.00  0.00    -0.381 A  
HETATM   24  N   UNL     1     -11.110  17.191  69.342  1.00  0.00    -0.212 NA 
HETATM   25  H   UNL     1     -11.446  18.141  69.502  1.00  0.00     0.000 HD 
HETATM   26  C   UNL     1     -10.505  16.752  68.196  1.00  0.00    -0.332 A  
HETATM   27  N   UNL     1     -10.287  17.509  67.110  1.00  0.00    -0.329 NA 
HETATM   28  C   UNL     1      -9.677  16.815  66.134  1.00  0.00    -0.291 A  
HETATM   29  N   UNL     1      -9.282  15.528  66.156  1.00  0.00    -0.328 NA 
ENDBRANCH  19  20
ENDBRANCH   8  15
ENDBRANCH   3   6
ENDBRANCH   2   3
TORSDOF 6
ENDMDL
MODEL      139
REMARK 921   NORMALIZED FREE ENERGY PREDICTED BY IDOCK:   -4.88 KCAL/MOL
REMARK 922        TOTAL FREE ENERGY PREDICTED BY IDOCK:   -7.10 KCAL/MOL
REMARK 923 INTER-LIGAND FREE ENERGY PREDICTED BY IDOCK:   -6.37 KCAL/MOL
REMARK 924 INTRA-LIGAND FREE ENERGY PREDICTED BY IDOCK:   -0.73 KCAL/MOL
REMARK 927      BINDING AFFINITY PREDICTED BY RF-SCORE:    0.00 PKD
ROOT
HETATM    1  C   UNL     1     -10.756  15.462  64.964  1.00  0.00    -0.460 C  
HETATM    2  C   UNL     1     -11.095  14.107  64.380  1.00  0.00    -0.251 C  
ENDROOT
BRANCH   2   3
HETATM    3  S   UNL     1     -12.096  13.138  65.496  1.00  0.00    -0.467 S  
HETATM    4  O   UNL     1     -12.290  13.885  66.717  1.00  0.00    -0.422 OA 
HETATM    5  O   UNL     1     -13.202  12.572  64.755  1.00  0.00    -0.839 OA 
BRANCH   3   6
HETATM    6  N   UNL     1     -11.009  11.893  65.830  1.00  0.00    -0.298 N  
HETATM    7  C   UNL     1     -10.659  10.767  64.916  1.00  0.00    -0.188 C  
HETATM    8  C   UNL     1      -9.301  10.584  65.673  1.00  0.00    -0.200 C  
HETATM    9  C   UNL     1      -9.564  12.042  66.170  1.00  0.00    -0.239 C  
BRANCH   8  10
HETATM   10  C   UNL     1      -8.068  10.286  64.830  1.00  0.00    -0.154 C  
BRANCH  10  11
HETATM   11  C   UNL     1      -8.411   9.465  63.598  1.00  0.00    -0.200 C  
HETATM   12  H1  UNL     1      -8.927   8.234  61.748  1.00  0.00     0.000 HD 
HETATM   13  N   UNL     1      -8.697   8.785  62.575  1.00  0.00    -0.396 NA 
HETATM   14  H2  UNL     1      -9.246   9.262  61.859  1.00  0.00     0.000 HD 
ENDBRANCH  10  11
ENDBRANCH   8  10
BRANCH   8  15
HETATM   15  N   UNL     1      -9.469   9.569  66.704  1.00  0.00    -0.159 NA 
HETATM   16  N   UNL     1     -10.603   8.835  66.763  1.00  0.00    -0.217 NA 
HETATM   17  C   UNL     1      -8.597   9.263  67.715  1.00  0.00    -0.117 A  
HETATM   18  C   UNL     1     -10.433   8.061  67.836  1.00  0.00    -0.197 A  
HETATM   19  C   UNL     1      -9.203   8.289  68.477  1.00  0.00    -0.136 A  
BRANCH  19  20
HETATM   20  C   UNL     1      -8.605   7.673  69.633  1.00  0.00    -0.136 A  
HETATM   21  C   UNL     1      -9.203   7.747  70.892  1.00  0.00    -0.155 A  
HETATM   22  C   UNL     1     -10.332   8.375  71.491  1.00  0.00    -0.296 A  
HETATM   23  C   UNL     1     -10.363   8.002  72.818  1.00  0.00    -0.339 A  
HETATM   24  N   UNL     1      -9.282   7.191  73.051  1.00  0.00    -0.136 NA 
HETATM   25  H   UNL     1      -9.051   6.763  73.947  1.00  0.00     0.000 HD 
HETATM   26  C   UNL     1      -8.561   7.043  71.897  1.00  0.00    -0.120 A  
HETATM   27  N   UNL     1      -7.433   6.326  71.790  1.00  0.00    -0.093 NA 
HETATM   28  C   UNL     1      -6.939   6.358  70.540  1.00  0.00    -0.064 A  
HETATM   29  N   UNL     1      -7.449   6.987  69.465  1.00  0.00    -0.094 NA 
ENDBRANCH  19  20
ENDBRANCH   8  15
ENDBRANCH   3   6
ENDBRANCH   2   3
TORSDOF 6
ENDMDL
MODEL      140
REMARK 921   NORMALIZED FREE ENERGY PREDICTED BY IDOCK:   -4.87 KCAL/MOL
REMARK 922        TOTAL FREE ENERGY PREDICTED BY IDOCK:   -7.09 KCAL/MOL
REMARK 923 INTER-LIGAND FREE ENERGY PREDICTED BY IDOCK:   -6.19 KCAL/MOL
REMARK 924 INTRA-LIGAND FREE ENERGY PREDICTED BY IDOCK:   -0.90 KCAL/MOL
REMARK 927      BINDING AFFINITY PREDICTED BY RF-SCORE:    0.00 PKD
ROOT
HETATM    1  C   UNL     1     -10.479   4.955  66.307  1.00  0.00    -0.349 C  
HETATM    2  C   UNL     1      -9.798   4.840  67.655  1.00  0.00    -0.152 C  
ENDROOT
BRANCH   2   3
HETATM    3  S   UNL     1      -8.191   5.617  67.651  1.00  0.00    -0.100 S  
HETATM    4  O   UNL     1      -7.309   4.868  68.515  1.00  0.00    -0.064 OA 
HETATM    5  O   UNL     1      -7.838   5.947  66.288  1.00  0.00    -0.098 OA 
BRANCH   3   6
HETATM    6  N   UNL     1      -8.579   7.054  68.444  1.00  0.00    -0.126 N  
HETATM    7  C   UNL     1      -8.994   7.183  69.871  1.00  0.00    -0.142 C  
HETATM    8  C   UNL     1      -8.519   8.674  69.868  1.00  0.00    -0.129 C  
HETATM    9  C   UNL     1      -7.693   8.241  68.614  1.00  0.00    -0.114 C  
BRANCH   8  10
HETATM   10  C   UNL     1      -7.797   9.178  71.110  1.00  0.00    -0.119 C  
BRANCH  10  11
HETATM   11  C   UNL     1      -6.577  10.012  70.753  1.00  0.00    -0.035 C  
HETATM   12  H1  UNL     1      -4.746  11.263  70.218  1.00  0.00     0.000 HD 
HETATM   13  N   UNL     1      -5.564  10.703  70.457  1.00  0.00    -0.079 NA 
HETATM   14  H2  UNL     1      -4.773  10.192  70.064  1.00  0.00     0.000 HD 
ENDBRANCH  10  11
ENDBRANCH   8  10
BRANCH   8  15
HETATM   15  N   UNL     1      -9.656   9.530  69.560  1.00  0.00    -0.177 NA 
HETATM   16  N   UNL     1     -10.841   9.346  70.184  1.00  0.00    -0.237 NA 
HETATM   17  C   UNL     1      -9.708  10.536  68.632  1.00  0.00    -0.173 A  
HETATM   18  C   UNL     1     -11.645  10.253  69.629  1.00  0.00    -0.201 A  
HETATM   19  C   UNL     1     -10.997  11.022  68.646  1.00  0.00    -0.271 A  
BRANCH  19  20
HETATM   20  C   UNL     1     -11.465  12.108  67.827  1.00  0.00    -0.332 A  
HETATM   21  C   UNL     1     -11.648  13.390  68.347  1.00  0.00    -0.368 A  
HETATM   22  C   UNL     1     -11.572  14.038  69.613  1.00  0.00    -0.348 A  
HETATM   23  C   UNL     1     -11.862  15.372  69.419  1.00  0.00    -0.351 A  
HETATM   24  N   UNL     1     -12.133  15.552  68.087  1.00  0.00    -0.390 NA 
HETATM   25  H   UNL     1     -12.378  16.441  67.652  1.00  0.00     0.000 HD 
HETATM   26  C   UNL     1     -12.025  14.356  67.430  1.00  0.00    -0.373 A  
HETATM   27  N   UNL     1     -12.247  14.184  66.118  1.00  0.00    -0.442 NA 
HETATM   28  C   UNL     1     -12.069  12.905  65.746  1.00  0.00    -0.457 A  
HETATM   29  N   UNL     1     -11.700  11.864  66.515  1.00  0.00    -0.562 NA 
ENDBRANCH  19  20
ENDBRANCH   8  15
ENDBRANCH   3   6
ENDBRANCH   2   3
TORSDOF 6
ENDMDL
MODEL      141
REMARK 921   NORMALIZED FREE ENERGY PREDICTED BY IDOCK:   -4.86 KCAL/MOL
REMARK 922        TOTAL FREE ENERGY PREDICTED BY IDOCK:   -7.08 KCAL/MOL
REMARK 923 INTER-LIGAND FREE ENERGY PREDICTED BY IDOCK:   -6.34 KCAL/MOL
REMARK 924 INTRA-LIGAND FREE ENERGY PREDICTED BY IDOCK:   -0.74 KCAL/MOL
REMARK 927      BINDING AFFINITY PREDICTED BY RF-SCORE:    0.00 PKD
ROOT
HETATM    1  C   UNL     1     -10.282  15.532  65.431  1.00  0.00    -0.409 C  
HETATM    2  C   UNL     1     -11.445  15.418  64.467  1.00  0.00    -0.311 C  
ENDROOT
BRANCH   2   3
HETATM    3  S   UNL     1     -12.292  13.857  64.635  1.00  0.00    -0.358 S  
HETATM    4  O   UNL     1     -13.376  14.013  65.578  1.00  0.00    -0.673 OA 
HETATM    5  O   UNL     1     -12.492  13.291  63.319  1.00  0.00    -0.736 OA 
BRANCH   3   6
HETATM    6  N   UNL     1     -11.080  12.967  65.399  1.00  0.00    -0.277 N  
HETATM    7  C   UNL     1     -11.204  12.262  66.709  1.00  0.00    -0.318 C  
HETATM    8  C   UNL     1     -10.031  11.311  66.300  1.00  0.00    -0.221 C  
HETATM    9  C   UNL     1     -10.370  11.777  64.847  1.00  0.00    -0.289 C  
BRANCH   8  10
HETATM   10  C   UNL     1     -10.164   9.840  66.670  1.00  0.00    -0.296 C  
BRANCH  10  11
HETATM   11  C   UNL     1      -9.486   9.527  67.994  1.00  0.00    -0.132 C  
HETATM   12  H1  UNL     1      -8.469   9.057  69.981  1.00  0.00     0.000 HD 
HETATM   13  N   UNL     1      -8.923   9.267  69.092  1.00  0.00    -0.141 NA 
HETATM   14  H2  UNL     1      -8.605   8.305  69.215  1.00  0.00     0.000 HD 
ENDBRANCH  10  11
ENDBRANCH   8  10
BRANCH   8  15
HETATM   15  N   UNL     1      -8.782  11.853  66.818  1.00  0.00    -0.191 NA 
HETATM   16  N   UNL     1      -7.609  11.227  66.570  1.00  0.00    -0.137 NA 
HETATM   17  C   UNL     1      -8.625  12.960  67.609  1.00  0.00    -0.182 A  
HETATM   18  C   UNL     1      -6.707  11.958  67.225  1.00  0.00    -0.138 A  
HETATM   19  C   UNL     1      -7.281  13.049  67.901  1.00  0.00    -0.129 A  
BRANCH  19  20
HETATM   20  C   UNL     1      -6.691  14.093  68.696  1.00  0.00    -0.094 A  
HETATM   21  C   UNL     1      -6.637  15.413  68.245  1.00  0.00    -0.125 A  
HETATM   22  C   UNL     1      -6.963  16.142  67.066  1.00  0.00    -0.234 A  
HETATM   23  C   UNL     1      -6.671  17.469  67.300  1.00  0.00    -0.166 A  
HETATM   24  N   UNL     1      -6.158  17.568  68.567  1.00  0.00    -0.169 NA 
HETATM   25  H   UNL     1      -5.855  18.434  69.013  1.00  0.00     0.000 HD 
HETATM   26  C   UNL     1      -6.114  16.328  69.144  1.00  0.00    -0.154 A  
HETATM   27  N   UNL     1      -5.646  16.076  70.376  1.00  0.00    -0.166 NA 
HETATM   28  C   UNL     1      -5.724  14.769  70.680  1.00  0.00    -0.155 A  
HETATM   29  N   UNL     1      -6.208  13.770  69.919  1.00  0.00    -0.137 NA 
ENDBRANCH  19  20
ENDBRANCH   8  15
ENDBRANCH   3   6
ENDBRANCH   2   3
TORSDOF 6
ENDMDL
MODEL      142
REMARK 921   NORMALIZED FREE ENERGY PREDICTED BY IDOCK:   -4.85 KCAL/MOL
REMARK 922        TOTAL FREE ENERGY PREDICTED BY IDOCK:   -7.06 KCAL/MOL
REMARK 923 INTER-LIGAND FREE ENERGY PREDICTED BY IDOCK:   -6.38 KCAL/MOL
REMARK 924 INTRA-LIGAND FREE ENERGY PREDICTED BY IDOCK:   -0.68 KCAL/MOL
REMARK 927      BINDING AFFINITY PREDICTED BY RF-SCORE:    0.00 PKD
ROOT
HETATM    1  C   UNL     1     -12.020   9.799  71.513  1.00  0.00    -0.488 C  
HETATM    2  C   UNL     1     -10.635   9.215  71.699  1.00  0.00    -0.357 C  
ENDROOT
BRANCH   2   3
HETATM    3  S   UNL     1     -10.055   8.405  70.218  1.00  0.00    -0.192 S  
HETATM    4  O   UNL     1      -8.667   8.048  70.395  1.00  0.00    -0.133 OA 
HETATM    5  O   UNL     1     -11.050   7.446  69.793  1.00  0.00    -0.234 OA 
BRANCH   3   6
HETATM    6  N   UNL     1     -10.111   9.711  69.151  1.00  0.00    -0.180 N  
HETATM    7  C   UNL     1      -9.025  10.123  68.215  1.00  0.00    -0.120 C  
HETATM    8  C   UNL     1     -10.085  10.841  67.313  1.00  0.00    -0.196 C  
HETATM    9  C   UNL     1     -11.107   9.926  68.062  1.00  0.00    -0.158 C  
BRANCH   8  10
HETATM   10  C   UNL     1      -9.920  10.710  65.805  1.00  0.00    -0.315 C  
BRANCH  10  11
HETATM   11  C   UNL     1     -10.669  11.803  65.059  1.00  0.00    -0.292 C  
HETATM   12  H1  UNL     1     -11.793  13.442  63.940  1.00  0.00     0.000 HD 
HETATM   13  N   UNL     1     -11.291  12.709  64.440  1.00  0.00    -0.324 NA 
HETATM   14  H2  UNL     1     -11.804  12.411  63.610  1.00  0.00     0.000 HD 
ENDBRANCH  10  11
ENDBRANCH   8  10
BRANCH   8  15
HETATM   15  N   UNL     1     -10.157  12.244  67.697  1.00  0.00    -0.198 NA 
HETATM   16  N   UNL     1     -11.347  12.809  68.004  1.00  0.00    -0.271 NA 
HETATM   17  C   UNL     1      -9.124  13.142  67.752  1.00  0.00    -0.200 A  
HETATM   18  C   UNL     1     -11.046  14.084  68.251  1.00  0.00    -0.254 A  
HETATM   19  C   UNL     1      -9.674  14.356  68.101  1.00  0.00    -0.223 A  
BRANCH  19  20
HETATM   20  C   UNL     1      -8.918  15.566  68.288  1.00  0.00    -0.185 A  
HETATM   21  C   UNL     1      -9.251  16.745  67.620  1.00  0.00    -0.223 A  
HETATM   22  C   UNL     1     -10.181  17.175  66.631  1.00  0.00    -0.319 A  
HETATM   23  C   UNL     1      -9.985  18.524  66.430  1.00  0.00    -0.379 A  
HETATM   24  N   UNL     1      -8.955  18.924  67.241  1.00  0.00    -0.278 NA 
HETATM   25  H   UNL     1      -8.592  19.875  67.304  1.00  0.00     0.000 HD 
HETATM   26  C   UNL     1      -8.489  17.853  67.954  1.00  0.00    -0.251 A  
HETATM   27  N   UNL     1      -7.470  17.902  68.825  1.00  0.00    -0.279 NA 
HETATM   28  C   UNL     1      -7.229  16.700  69.377  1.00  0.00    -0.132 A  
HETATM   29  N   UNL     1      -7.882  15.544  69.159  1.00  0.00    -0.197 NA 
ENDBRANCH  19  20
ENDBRANCH   8  15
ENDBRANCH   3   6
ENDBRANCH   2   3
TORSDOF 6
ENDMDL
MODEL      143
REMARK 921   NORMALIZED FREE ENERGY PREDICTED BY IDOCK:   -4.84 KCAL/MOL
REMARK 922        TOTAL FREE ENERGY PREDICTED BY IDOCK:   -7.05 KCAL/MOL
REMARK 923 INTER-LIGAND FREE ENERGY PREDICTED BY IDOCK:   -6.54 KCAL/MOL
REMARK 924 INTRA-LIGAND FREE ENERGY PREDICTED BY IDOCK:   -0.51 KCAL/MOL
REMARK 927      BINDING AFFINITY PREDICTED BY RF-SCORE:    0.00 PKD
ROOT
HETATM    1  C   UNL     1      -9.675   4.274  65.362  1.00  0.00    -0.204 C  
HETATM    2  C   UNL     1     -10.527   5.090  66.311  1.00  0.00    -0.303 C  
ENDROOT
BRANCH   2   3
HETATM    3  S   UNL     1      -9.669   5.439  67.836  1.00  0.00    -0.143 S  
HETATM    4  O   UNL     1     -10.457   4.943  68.940  1.00  0.00    -0.085 OA 
HETATM    5  O   UNL     1      -8.272   5.098  67.671  1.00  0.00    -0.099 OA 
BRANCH   3   6
HETATM    6  N   UNL     1      -9.790   7.122  67.841  1.00  0.00    -0.140 N  
HETATM    7  C   UNL     1     -10.958   7.914  68.325  1.00  0.00     0.209 C  
HETATM    8  C   UNL     1     -10.019   9.144  68.557  1.00  0.00    -0.174 C  
HETATM    9  C   UNL     1      -8.878   8.076  68.536  1.00  0.00    -0.134 C  
BRANCH   8  10
HETATM   10  C   UNL     1     -10.252   9.973  69.812  1.00  0.00    -0.286 C  
BRANCH  10  11
HETATM   11  C   UNL     1     -11.631   9.727  70.403  1.00  0.00    -0.258 C  
HETATM   12  H1  UNL     1     -13.700   9.358  71.290  1.00  0.00     0.000 HD 
HETATM   13  N   UNL     1     -12.775   9.523  70.894  1.00  0.00    -0.506 NA 
HETATM   14  H2  UNL     1     -12.895   9.786  71.872  1.00  0.00     0.000 HD 
ENDBRANCH  10  11
ENDBRANCH   8  10
BRANCH   8  15
HETATM   15  N   UNL     1     -10.054   9.993  67.374  1.00  0.00    -0.196 NA 
HETATM   16  N   UNL     1      -9.287   9.703  66.299  1.00  0.00    -0.172 NA 
HETATM   17  C   UNL     1     -10.773  11.147  67.204  1.00  0.00    -0.259 A  
HETATM   18  C   UNL     1      -9.532  10.698  65.447  1.00  0.00    -0.215 A  
HETATM   19  C   UNL     1     -10.446  11.636  65.958  1.00  0.00    -0.294 A  
BRANCH  19  20
HETATM   20  C   UNL     1     -11.005  12.831  65.383  1.00  0.00    -0.283 A  
HETATM   21  C   UNL     1     -10.432  14.085  65.602  1.00  0.00    -0.328 A  
HETATM   22  C   UNL     1      -9.369  14.643  66.368  1.00  0.00    -0.313 A  
HETATM   23  C   UNL     1      -9.324  15.994  66.100  1.00  0.00    -0.342 A  
HETATM   24  N   UNL     1     -10.335  16.281  65.219  1.00  0.00    -0.596 NA 
HETATM   25  H   UNL     1     -10.541  17.205  64.842  1.00  0.00     0.000 HD 
HETATM   26  C   UNL     1     -11.025  15.136  64.924  1.00  0.00    -0.419 A  
HETATM   27  N   UNL     1     -12.087  15.076  64.106  1.00  0.00    -0.535 NA 
HETATM   28  C   UNL     1     -12.565  13.824  64.002  1.00  0.00    -0.071 A  
HETATM   29  N   UNL     1     -12.096  12.708  64.590  1.00  0.00    -0.396 NA 
ENDBRANCH  19  20
ENDBRANCH   8  15
ENDBRANCH   3   6
ENDBRANCH   2   3
TORSDOF 6
ENDMDL
MODEL      144
REMARK 921   NORMALIZED FREE ENERGY PREDICTED BY IDOCK:   -4.84 KCAL/MOL
REMARK 922        TOTAL FREE ENERGY PREDICTED BY IDOCK:   -7.04 KCAL/MOL
REMARK 923 INTER-LIGAND FREE ENERGY PREDICTED BY IDOCK:   -6.11 KCAL/MOL
REMARK 924 INTRA-LIGAND FREE ENERGY PREDICTED BY IDOCK:   -0.93 KCAL/MOL
REMARK 927      BINDING AFFINITY PREDICTED BY RF-SCORE:    0.00 PKD
ROOT
HETATM    1  C   UNL     1      -6.853   7.521  62.708  1.00  0.00    -0.071 C  
HETATM    2  C   UNL     1      -6.094   8.260  63.790  1.00  0.00    -0.071 C  
ENDROOT
BRANCH   2   3
HETATM    3  S   UNL     1      -7.009   9.669  64.393  1.00  0.00    -0.124 S  
HETATM    4  O   UNL     1      -6.076  10.689  64.810  1.00  0.00    -0.093 OA 
HETATM    5  O   UNL     1      -8.094   9.946  63.476  1.00  0.00    -0.141 OA 
BRANCH   3   6
HETATM    6  N   UNL     1      -7.675   8.989  65.786  1.00  0.00    -0.090 N  
HETATM    7  C   UNL     1      -8.965   8.245  65.867  1.00  0.00    -0.163 C  
HETATM    8  C   UNL     1      -8.460   7.524  67.161  1.00  0.00    -0.121 C  
HETATM    9  C   UNL     1      -7.045   7.956  66.658  1.00  0.00    -0.076 C  
BRANCH   8  10
HETATM   10  C   UNL     1      -8.789   6.045  67.309  1.00  0.00    -0.107 C  
BRANCH  10  11
HETATM   11  C   UNL     1     -10.064   5.673  66.569  1.00  0.00    -0.185 C  
HETATM   12  H1  UNL     1     -11.978   5.116  65.460  1.00  0.00     0.000 HD 
HETATM   13  N   UNL     1     -11.123   5.365  65.956  1.00  0.00    -0.789 NA 
HETATM   14  H2  UNL     1     -11.977   5.817  66.285  1.00  0.00     0.000 HD 
ENDBRANCH  10  11
ENDBRANCH   8  10
BRANCH   8  15
HETATM   15  N   UNL     1      -8.925   8.266  68.325  1.00  0.00    -0.136 NA 
HETATM   16  N   UNL     1      -8.201   8.271  69.467  1.00  0.00    -0.117 NA 
HETATM   17  C   UNL     1     -10.093   8.971  68.445  1.00  0.00    -0.191 A  
HETATM   18  C   UNL     1      -8.937   8.991  70.314  1.00  0.00    -0.198 A  
HETATM   19  C   UNL     1     -10.135   9.449  69.737  1.00  0.00    -0.229 A  
BRANCH  19  20
HETATM   20  C   UNL     1     -11.195  10.264  70.267  1.00  0.00    -0.323 A  
HETATM   21  C   UNL     1     -12.139   9.747  71.156  1.00  0.00    -0.460 A  
HETATM   22  C   UNL     1     -12.472   8.487  71.732  1.00  0.00    -0.388 A  
HETATM   23  C   UNL     1     -13.541   8.684  72.579  1.00  0.00    -0.296 A  
HETATM   24  N   UNL     1     -13.885  10.010  72.521  1.00  0.00    -0.524 NA 
HETATM   25  H   UNL     1     -14.642  10.444  73.048  1.00  0.00     0.000 HD 
HETATM   26  C   UNL     1     -13.055  10.662  71.649  1.00  0.00    -0.450 A  
HETATM   27  N   UNL     1     -13.138  11.967  71.350  1.00  0.00    -0.299 NA 
HETATM   28  C   UNL     1     -12.197  12.334  70.463  1.00  0.00    -0.300 A  
HETATM   29  N   UNL     1     -11.242  11.568  69.904  1.00  0.00    -0.170 NA 
ENDBRANCH  19  20
ENDBRANCH   8  15
ENDBRANCH   3   6
ENDBRANCH   2   3
TORSDOF 6
ENDMDL
MODEL      145
REMARK 921   NORMALIZED FREE ENERGY PREDICTED BY IDOCK:   -4.83 KCAL/MOL
REMARK 922        TOTAL FREE ENERGY PREDICTED BY IDOCK:   -7.04 KCAL/MOL
REMARK 923 INTER-LIGAND FREE ENERGY PREDICTED BY IDOCK:   -6.03 KCAL/MOL
REMARK 924 INTRA-LIGAND FREE ENERGY PREDICTED BY IDOCK:   -1.01 KCAL/MOL
REMARK 927      BINDING AFFINITY PREDICTED BY RF-SCORE:    0.00 PKD
ROOT
HETATM    1  C   UNL     1     -11.517  10.091  70.081  1.00  0.00    -0.344 C  
HETATM    2  C   UNL     1     -11.852   9.826  71.534  1.00  0.00    -0.399 C  
ENDROOT
BRANCH   2   3
HETATM    3  S   UNL     1     -12.037   8.081  71.862  1.00  0.00    -0.335 S  
HETATM    4  O   UNL     1     -11.453   7.783  73.148  1.00  0.00    -0.330 OA 
HETATM    5  O   UNL     1     -13.385   7.684  71.517  1.00  0.00    -0.346 OA 
BRANCH   3   6
HETATM    6  N   UNL     1     -11.002   7.468  70.679  1.00  0.00    -0.245 N  
HETATM    7  C   UNL     1      -9.714   6.758  70.927  1.00  0.00    -0.178 C  
HETATM    8  C   UNL     1      -9.830   6.072  69.525  1.00  0.00    -0.161 C  
HETATM    9  C   UNL     1     -11.342   6.452  69.642  1.00  0.00    -0.412 C  
BRANCH   8  10
HETATM   10  C   UNL     1      -9.426   4.607  69.429  1.00  0.00    -0.239 C  
BRANCH  10  11
HETATM   11  C   UNL     1      -9.630   3.878  70.747  1.00  0.00    -0.188 C  
HETATM   12  H1  UNL     1      -9.935   2.784  72.725  1.00  0.00     0.000 HD 
HETATM   13  N   UNL     1      -9.798   3.273  71.841  1.00  0.00    -0.169 NA 
HETATM   14  H2  UNL     1      -9.146   2.513  72.036  1.00  0.00     0.000 HD 
ENDBRANCH  10  11
ENDBRANCH   8  10
BRANCH   8  15
HETATM   15  N   UNL     1      -9.095   6.866  68.550  1.00  0.00    -0.128 NA 
HETATM   16  N   UNL     1      -7.863   7.340  68.842  1.00  0.00    -0.116 NA 
HETATM   17  C   UNL     1      -9.525   7.262  67.311  1.00  0.00    -0.138 A  
HETATM   18  C   UNL     1      -7.523   8.048  67.764  1.00  0.00    -0.094 A  
HETATM   19  C   UNL     1      -8.524   8.044  66.776  1.00  0.00    -0.128 A  
BRANCH  19  20
HETATM   20  C   UNL     1      -8.573   8.643  65.469  1.00  0.00    -0.175 A  
HETATM   21  C   UNL     1      -9.268   9.830  65.234  1.00  0.00    -0.294 A  
HETATM   22  C   UNL     1     -10.111  10.722  65.956  1.00  0.00    -0.305 A  
HETATM   23  C   UNL     1     -10.454  11.753  65.107  1.00  0.00    -0.283 A  
HETATM   24  N   UNL     1      -9.871  11.506  63.892  1.00  0.00    -0.306 NA 
HETATM   25  H   UNL     1      -9.951  12.105  63.069  1.00  0.00     0.000 HD 
HETATM   26  C   UNL     1      -9.165  10.336  63.949  1.00  0.00    -0.274 A  
HETATM   27  N   UNL     1      -8.491   9.800  62.920  1.00  0.00    -0.160 NA 
HETATM   28  C   UNL     1      -7.893   8.647  63.263  1.00  0.00    -0.151 A  
HETATM   29  N   UNL     1      -7.897   8.038  64.463  1.00  0.00    -0.132 NA 
ENDBRANCH  19  20
ENDBRANCH   8  15
ENDBRANCH   3   6
ENDBRANCH   2   3
TORSDOF 6
ENDMDL
MODEL      146
REMARK 921   NORMALIZED FREE ENERGY PREDICTED BY IDOCK:   -4.83 KCAL/MOL
REMARK 922        TOTAL FREE ENERGY PREDICTED BY IDOCK:   -7.03 KCAL/MOL
REMARK 923 INTER-LIGAND FREE ENERGY PREDICTED BY IDOCK:   -6.38 KCAL/MOL
REMARK 924 INTRA-LIGAND FREE ENERGY PREDICTED BY IDOCK:   -0.65 KCAL/MOL
REMARK 927      BINDING AFFINITY PREDICTED BY RF-SCORE:    0.00 PKD
ROOT
HETATM    1  C   UNL     1     -10.811  11.162  68.306  1.00  0.00    -0.258 C  
HETATM    2  C   UNL     1     -11.765  12.033  67.516  1.00  0.00    -0.280 C  
ENDROOT
BRANCH   2   3
HETATM    3  S   UNL     1     -11.193  12.291  65.845  1.00  0.00    -0.354 S  
HETATM    4  O   UNL     1     -10.069  11.419  65.596  1.00  0.00    -0.227 OA 
HETATM    5  O   UNL     1     -12.339  12.342  64.964  1.00  0.00    -0.475 OA 
BRANCH   3   6
HETATM    6  N   UNL     1     -10.593  13.860  65.999  1.00  0.00    -0.288 N  
HETATM    7  C   UNL     1     -10.269  14.788  64.877  1.00  0.00    -0.275 C  
HETATM    8  C   UNL     1     -10.442  16.007  65.843  1.00  0.00    -0.359 C  
HETATM    9  C   UNL     1     -11.240  14.992  66.724  1.00  0.00    -0.322 C  
BRANCH   8  10
HETATM   10  C   UNL     1     -11.144  17.241  65.292  1.00  0.00     0.243 C  
BRANCH  10  11
HETATM   11  C   UNL     1     -10.653  18.515  65.960  1.00  0.00    -0.331 C  
HETATM   12  H1  UNL     1      -9.916  20.427  66.962  1.00  0.00     0.000 HD 
HETATM   13  N   UNL     1     -10.246  19.572  66.514  1.00  0.00    -0.426 NA 
HETATM   14  H2  UNL     1     -10.964  20.260  66.747  1.00  0.00     0.000 HD 
ENDBRANCH  10  11
ENDBRANCH   8  10
BRANCH   8  15
HETATM   15  N   UNL     1      -9.140  16.365  66.389  1.00  0.00    -0.280 NA 
HETATM   16  N   UNL     1      -8.173  16.858  65.582  1.00  0.00    -0.163 NA 
HETATM   17  C   UNL     1      -8.716  16.221  67.683  1.00  0.00    -0.182 A  
HETATM   18  C   UNL     1      -7.126  17.020  66.393  1.00  0.00    -0.250 A  
HETATM   19  C   UNL     1      -7.401  16.632  67.716  1.00  0.00    -0.163 A  
BRANCH  19  20
HETATM   20  C   UNL     1      -6.589  16.659  68.904  1.00  0.00    -0.178 A  
HETATM   21  C   UNL     1      -6.167  17.861  69.473  1.00  0.00    -0.237 A  
HETATM   22  C   UNL     1      -6.239  19.253  69.180  1.00  0.00    -0.302 A  
HETATM   23  C   UNL     1      -5.615  19.930  70.206  1.00  0.00    -0.265 A  
HETATM   24  N   UNL     1      -5.147  19.000  71.098  1.00  0.00    -0.265 NA 
HETATM   25  H   UNL     1      -4.644  19.213  71.960  1.00  0.00     0.000 HD 
HETATM   26  C   UNL     1      -5.459  17.742  70.657  1.00  0.00    -0.213 A  
HETATM   27  N   UNL     1      -5.126  16.608  71.291  1.00  0.00    -0.300 NA 
HETATM   28  C   UNL     1      -5.561  15.522  70.629  1.00  0.00    -0.094 A  
HETATM   29  N   UNL     1      -6.261  15.478  69.481  1.00  0.00    -0.136 NA 
ENDBRANCH  19  20
ENDBRANCH   8  15
ENDBRANCH   3   6
ENDBRANCH   2   3
TORSDOF 6
ENDMDL
MODEL      147
REMARK 921   NORMALIZED FREE ENERGY PREDICTED BY IDOCK:   -4.81 KCAL/MOL
REMARK 922        TOTAL FREE ENERGY PREDICTED BY IDOCK:   -7.01 KCAL/MOL
REMARK 923 INTER-LIGAND FREE ENERGY PREDICTED BY IDOCK:   -6.16 KCAL/MOL
REMARK 924 INTRA-LIGAND FREE ENERGY PREDICTED BY IDOCK:   -0.85 KCAL/MOL
REMARK 927      BINDING AFFINITY PREDICTED BY RF-SCORE:    0.00 PKD
ROOT
HETATM    1  C   UNL     1      -9.679   8.244  72.576  1.00  0.00    -0.368 C  
HETATM    2  C   UNL     1     -10.784   8.117  71.549  1.00  0.00    -0.233 C  
ENDROOT
BRANCH   2   3
HETATM    3  S   UNL     1     -10.436   6.832  70.360  1.00  0.00    -0.213 S  
HETATM    4  O   UNL     1      -9.320   6.048  70.834  1.00  0.00    -0.158 OA 
HETATM    5  O   UNL     1     -11.685   6.227  69.951  1.00  0.00    -0.408 OA 
BRANCH   3   6
HETATM    6  N   UNL     1      -9.882   7.783  69.082  1.00  0.00    -0.170 N  
HETATM    7  C   UNL     1      -8.695   8.687  69.113  1.00  0.00    -0.136 C  
HETATM    8  C   UNL     1      -8.587   8.588  67.555  1.00  0.00    -0.128 C  
HETATM    9  C   UNL     1      -9.458   7.302  67.736  1.00  0.00    -0.131 C  
BRANCH   8  10
HETATM   10  C   UNL     1      -7.191   8.475  66.958  1.00  0.00    -0.079 C  
BRANCH  10  11
HETATM   11  C   UNL     1      -6.309   7.532  67.760  1.00  0.00    -0.053 C  
HETATM   12  H1  UNL     1      -4.985   6.116  68.962  1.00  0.00     0.000 HD 
HETATM   13  N   UNL     1      -5.577   6.749  68.425  1.00  0.00    -0.016 NA 
HETATM   14  H2  UNL     1      -4.734   7.160  68.829  1.00  0.00     0.000 HD 
ENDBRANCH  10  11
ENDBRANCH   8  10
BRANCH   8  15
HETATM   15  N   UNL     1      -9.305   9.707  66.961  1.00  0.00    -0.144 NA 
HETATM   16  N   UNL     1      -9.984   9.548  65.803  1.00  0.00    -0.295 NA 
HETATM   17  C   UNL     1      -9.355  10.996  67.421  1.00  0.00    -0.155 A  
HETATM   18  C   UNL     1     -10.462  10.764  65.537  1.00  0.00    -0.194 A  
HETATM   19  C   UNL     1     -10.095  11.714  66.507  1.00  0.00    -0.239 A  
BRANCH  19  20
HETATM   20  C   UNL     1     -10.404  13.114  66.632  1.00  0.00    -0.265 A  
HETATM   21  C   UNL     1     -11.103  13.612  67.733  1.00  0.00    -0.293 A  
HETATM   22  C   UNL     1     -11.752  13.101  68.894  1.00  0.00    -0.368 A  
HETATM   23  C   UNL     1     -12.241  14.175  69.606  1.00  0.00    -0.326 A  
HETATM   24  N   UNL     1     -11.935  15.315  68.909  1.00  0.00    -0.531 NA 
HETATM   25  H   UNL     1     -12.172  16.264  69.200  1.00  0.00     0.000 HD 
HETATM   26  C   UNL     1     -11.262  14.987  67.763  1.00  0.00    -0.321 A  
HETATM   27  N   UNL     1     -10.836  15.872  66.849  1.00  0.00    -0.286 NA 
HETATM   28  C   UNL     1     -10.208  15.268  65.827  1.00  0.00    -0.349 A  
HETATM   29  N   UNL     1      -9.972  13.953  65.661  1.00  0.00    -0.301 NA 
ENDBRANCH  19  20
ENDBRANCH   8  15
ENDBRANCH   3   6
ENDBRANCH   2   3
TORSDOF 6
ENDMDL
MODEL      148
REMARK 921   NORMALIZED FREE ENERGY PREDICTED BY IDOCK:   -4.80 KCAL/MOL
REMARK 922        TOTAL FREE ENERGY PREDICTED BY IDOCK:   -6.99 KCAL/MOL
REMARK 923 INTER-LIGAND FREE ENERGY PREDICTED BY IDOCK:   -6.87 KCAL/MOL
REMARK 924 INTRA-LIGAND FREE ENERGY PREDICTED BY IDOCK:   -0.12 KCAL/MOL
REMARK 927      BINDING AFFINITY PREDICTED BY RF-SCORE:    0.00 PKD
ROOT
HETATM    1  C   UNL     1      -9.970  11.571  64.320  1.00  0.00    -0.312 C  
HETATM    2  C   UNL     1     -10.584  12.832  63.748  1.00  0.00    -0.336 C  
ENDROOT
BRANCH   2   3
HETATM    3  S   UNL     1     -10.954  14.024  65.023  1.00  0.00    -0.398 S  
HETATM    4  O   UNL     1      -9.800  14.869  65.223  1.00  0.00    -0.327 OA 
HETATM    5  O   UNL     1     -12.274  14.566  64.784  1.00  0.00    -0.428 OA 
BRANCH   3   6
HETATM    6  N   UNL     1     -11.058  12.985  66.349  1.00  0.00    -0.281 N  
HETATM    7  C   UNL     1     -10.276  13.099  67.614  1.00  0.00    -0.224 C  
HETATM    8  C   UNL     1     -11.379  12.280  68.362  1.00  0.00    -0.292 C  
HETATM    9  C   UNL     1     -12.279  12.691  67.152  1.00  0.00     0.080 C  
BRANCH   8  10
HETATM   10  C   UNL     1     -11.752  12.733  69.767  1.00  0.00    -0.352 C  
BRANCH  10  11
HETATM   11  C   UNL     1     -12.293  14.154  69.777  1.00  0.00    -0.299 C  
HETATM   12  H1  UNL     1     -13.105  16.285  69.791  1.00  0.00     0.000 HD 
HETATM   13  N   UNL     1     -12.742  15.332  69.785  1.00  0.00    -0.622 NA 
HETATM   14  H2  UNL     1     -13.675  15.458  69.390  1.00  0.00     0.000 HD 
ENDBRANCH  10  11
ENDBRANCH   8  10
BRANCH   8  15
HETATM   15  N   UNL     1     -11.001  10.873  68.366  1.00  0.00    -0.217 NA 
HETATM   16  N   UNL     1     -10.736  10.233  67.205  1.00  0.00    -0.269 NA 
HETATM   17  C   UNL     1     -10.913  10.043  69.452  1.00  0.00    -0.244 A  
HETATM   18  C   UNL     1     -10.481   8.978  67.578  1.00  0.00    -0.272 A  
HETATM   19  C   UNL     1     -10.584   8.795  68.969  1.00  0.00    -0.191 A  
BRANCH  19  20
HETATM   20  C   UNL     1     -10.374   7.635  69.793  1.00  0.00    -0.223 A  
HETATM   21  C   UNL     1      -9.683   7.714  71.004  1.00  0.00    -0.169 A  
HETATM   22  C   UNL     1      -8.969   8.693  71.752  1.00  0.00    -0.307 A  
HETATM   23  C   UNL     1      -8.540   8.097  72.918  1.00  0.00    -0.205 A  
HETATM   24  N   UNL     1      -8.946   6.788  72.895  1.00  0.00    -0.127 NA 
HETATM   25  H   UNL     1      -8.770   6.105  73.631  1.00  0.00     0.000 HD 
HETATM   26  C   UNL     1      -9.624   6.538  71.732  1.00  0.00    -0.152 A  
HETATM   27  N   UNL     1     -10.137   5.346  71.390  1.00  0.00    -0.194 NA 
HETATM   28  C   UNL     1     -10.748   5.392  70.194  1.00  0.00    -0.225 A  
HETATM   29  N   UNL     1     -10.891   6.454  69.379  1.00  0.00    -0.285 NA 
ENDBRANCH  19  20
ENDBRANCH   8  15
ENDBRANCH   3   6
ENDBRANCH   2   3
TORSDOF 6
ENDMDL
MODEL      149
REMARK 921   NORMALIZED FREE ENERGY PREDICTED BY IDOCK:   -4.78 KCAL/MOL
REMARK 922        TOTAL FREE ENERGY PREDICTED BY IDOCK:   -6.97 KCAL/MOL
REMARK 923 INTER-LIGAND FREE ENERGY PREDICTED BY IDOCK:   -6.73 KCAL/MOL
REMARK 924 INTRA-LIGAND FREE ENERGY PREDICTED BY IDOCK:   -0.24 KCAL/MOL
REMARK 927      BINDING AFFINITY PREDICTED BY RF-SCORE:    0.00 PKD
ROOT
HETATM    1  C   UNL     1      -6.080  11.364  69.026  1.00  0.00    -0.054 C  
HETATM    2  C   UNL     1      -6.409  10.906  70.431  1.00  0.00    -0.089 C  
ENDROOT
BRANCH   2   3
HETATM    3  S   UNL     1      -7.352   9.391  70.428  1.00  0.00    -0.135 S  
HETATM    4  O   UNL     1      -6.534   8.332  69.886  1.00  0.00    -0.038 OA 
HETATM    5  O   UNL     1      -8.033   9.265  71.698  1.00  0.00    -0.321 OA 
BRANCH   3   6
HETATM    6  N   UNL     1      -8.506   9.787  69.263  1.00  0.00    -0.139 N  
HETATM    7  C   UNL     1      -8.272   9.869  67.792  1.00  0.00    -0.114 C  
HETATM    8  C   UNL     1      -9.799   9.632  67.543  1.00  0.00    -0.169 C  
HETATM    9  C   UNL     1      -9.787   9.070  69.001  1.00  0.00    -0.175 C  
BRANCH   8  10
HETATM   10  C   UNL     1     -10.185   8.720  66.387  1.00  0.00    -0.256 C  
BRANCH  10  11
HETATM   11  C   UNL     1     -10.675   7.366  66.875  1.00  0.00    -0.254 C  
HETATM   12  H1  UNL     1     -11.410   5.335  67.608  1.00  0.00     0.000 HD 
HETATM   13  N   UNL     1     -11.081   6.244  67.280  1.00  0.00    -0.539 NA 
HETATM   14  H2  UNL     1     -11.199   6.148  68.290  1.00  0.00     0.000 HD 
ENDBRANCH  10  11
ENDBRANCH   8  10
BRANCH   8  15
HETATM   15  N   UNL     1     -10.462  10.923  67.414  1.00  0.00    -0.210 NA 
HETATM   16  N   UNL     1     -11.589  11.187  68.111  1.00  0.00    -0.477 NA 
HETATM   17  C   UNL     1     -10.100  11.961  66.596  1.00  0.00    -0.200 A  
HETATM   18  C   UNL     1     -11.936  12.412  67.715  1.00  0.00    -0.186 A  
HETATM   19  C   UNL     1     -11.050  12.945  66.763  1.00  0.00    -0.315 A  
BRANCH  19  20
HETATM   20  C   UNL     1     -11.025  14.219  66.094  1.00  0.00    -0.313 A  
HETATM   21  C   UNL     1     -10.362  15.318  66.642  1.00  0.00    -0.281 A  
HETATM   22  C   UNL     1      -9.664  15.644  67.840  1.00  0.00    -0.211 A  
HETATM   23  C   UNL     1      -9.220  16.944  67.725  1.00  0.00    -0.230 A  
HETATM   24  N   UNL     1      -9.643  17.426  66.514  1.00  0.00    -0.270 NA 
HETATM   25  H   UNL     1      -9.457  18.364  66.157  1.00  0.00     0.000 HD 
HETATM   26  C   UNL     1     -10.351  16.458  65.855  1.00  0.00    -0.362 A  
HETATM   27  N   UNL     1     -10.919  16.616  64.650  1.00  0.00    -0.836 NA 
HETATM   28  C   UNL     1     -11.552  15.500  64.248  1.00  0.00    -0.194 A  
HETATM   29  N   UNL     1     -11.643  14.323  64.894  1.00  0.00    -0.365 NA 
ENDBRANCH  19  20
ENDBRANCH   8  15
ENDBRANCH   3   6
ENDBRANCH   2   3
TORSDOF 6
ENDMDL
MODEL      150
REMARK 921   NORMALIZED FREE ENERGY PREDICTED BY IDOCK:   -4.78 KCAL/MOL
REMARK 922        TOTAL FREE ENERGY PREDICTED BY IDOCK:   -6.97 KCAL/MOL
REMARK 923 INTER-LIGAND FREE ENERGY PREDICTED BY IDOCK:   -6.36 KCAL/MOL
REMARK 924 INTRA-LIGAND FREE ENERGY PREDICTED BY IDOCK:   -0.61 KCAL/MOL
REMARK 927      BINDING AFFINITY PREDICTED BY RF-SCORE:    0.00 PKD
ROOT
HETATM    1  C   UNL     1      -9.525  19.505  65.993  1.00  0.00    -0.309 C  
HETATM    2  C   UNL     1      -8.273  20.200  66.486  1.00  0.00    -0.271 C  
ENDROOT
BRANCH   2   3
HETATM    3  S   UNL     1      -6.814  19.212  66.202  1.00  0.00    -0.245 S  
HETATM    4  O   UNL     1      -6.872  18.668  64.865  1.00  0.00    -0.450 OA 
HETATM    5  O   UNL     1      -5.660  19.935  66.690  1.00  0.00    -0.169 OA 
BRANCH   3   6
HETATM    6  N   UNL     1      -7.123  17.950  67.277  1.00  0.00    -0.181 N  
HETATM    7  C   UNL     1      -6.302  16.714  67.436  1.00  0.00    -0.169 C  
HETATM    8  C   UNL     1      -6.862  16.536  68.886  1.00  0.00    -0.186 C  
HETATM    9  C   UNL     1      -7.222  18.052  68.762  1.00  0.00    -0.278 C  
BRANCH   8  10
HETATM   10  C   UNL     1      -5.884  16.080  69.961  1.00  0.00    -0.173 C  
BRANCH  10  11
HETATM   11  C   UNL     1      -6.067  14.610  70.303  1.00  0.00    -0.167 C  
HETATM   12  H1  UNL     1      -6.342  12.405  70.816  1.00  0.00     0.000 HD 
HETATM   13  N   UNL     1      -6.219  13.391  70.586  1.00  0.00    -0.409 NA 
HETATM   14  H2  UNL     1      -5.455  12.770  70.316  1.00  0.00     0.000 HD 
ENDBRANCH  10  11
ENDBRANCH   8  10
BRANCH   8  15
HETATM   15  N   UNL     1      -8.016  15.649  68.841  1.00  0.00    -0.176 NA 
HETATM   16  N   UNL     1      -9.058  15.838  69.681  1.00  0.00    -0.200 NA 
HETATM   17  C   UNL     1      -8.185  14.551  68.040  1.00  0.00    -0.145 A  
HETATM   18  C   UNL     1      -9.889  14.834  69.398  1.00  0.00    -0.062 A  
HETATM   19  C   UNL     1      -9.395  13.991  68.387  1.00  0.00    -0.210 A  
BRANCH  19  20
HETATM   20  C   UNL     1      -9.958  12.823  67.763  1.00  0.00    -0.219 A  
HETATM   21  C   UNL     1     -10.987  12.922  66.824  1.00  0.00    -0.300 A  
HETATM   22  C   UNL     1     -11.811  13.938  66.261  1.00  0.00    -0.431 A  
HETATM   23  C   UNL     1     -12.640  13.339  65.336  1.00  0.00    -0.468 A  
HETATM   24  N   UNL     1     -12.366  11.996  65.335  1.00  0.00    -0.369 NA 
HETATM   25  H   UNL     1     -12.826  11.303  64.745  1.00  0.00     0.000 HD 
HETATM   26  C   UNL     1     -11.380  11.727  66.245  1.00  0.00    -0.287 A  
HETATM   27  N   UNL     1     -10.893  10.504  66.502  1.00  0.00    -0.120 NA 
HETATM   28  C   UNL     1      -9.933  10.538  67.442  1.00  0.00    -0.179 A  
HETATM   29  N   UNL     1      -9.444  11.613  68.087  1.00  0.00    -0.185 NA 
ENDBRANCH  19  20
ENDBRANCH   8  15
ENDBRANCH   3   6
ENDBRANCH   2   3
TORSDOF 6
ENDMDL
MODEL      151
REMARK 921   NORMALIZED FREE ENERGY PREDICTED BY IDOCK:   -4.77 KCAL/MOL
REMARK 922        TOTAL FREE ENERGY PREDICTED BY IDOCK:   -6.96 KCAL/MOL
REMARK 923 INTER-LIGAND FREE ENERGY PREDICTED BY IDOCK:   -6.47 KCAL/MOL
REMARK 924 INTRA-LIGAND FREE ENERGY PREDICTED BY IDOCK:   -0.49 KCAL/MOL
REMARK 927      BINDING AFFINITY PREDICTED BY RF-SCORE:    0.00 PKD
ROOT
HETATM    1  C   UNL     1      -7.322  15.847  69.401  1.00  0.00    -0.217 C  
HETATM    2  C   UNL     1      -8.302  16.592  68.518  1.00  0.00    -0.210 C  
ENDROOT
BRANCH   2   3
HETATM    3  S   UNL     1      -8.277  15.980  66.842  1.00  0.00    -0.268 S  
HETATM    4  O   UNL     1      -9.009  16.896  65.999  1.00  0.00    -0.458 OA 
HETATM    5  O   UNL     1      -6.934  15.546  66.525  1.00  0.00     0.092 OA 
BRANCH   3   6
HETATM    6  N   UNL     1      -9.230  14.601  67.038  1.00  0.00    -0.227 N  
HETATM    7  C   UNL     1     -10.649  14.575  67.497  1.00  0.00    -0.262 C  
HETATM    8  C   UNL     1     -10.844  13.190  66.795  1.00  0.00    -0.276 C  
HETATM    9  C   UNL     1      -9.571  13.600  65.986  1.00  0.00    -0.166 C  
BRANCH   8  10
HETATM   10  C   UNL     1     -12.159  12.957  66.065  1.00  0.00    -0.484 C  
BRANCH  10  11
HETATM   11  C   UNL     1     -11.947  12.263  64.729  1.00  0.00    -0.362 C  
HETATM   12  H1  UNL     1     -11.629  11.221  62.725  1.00  0.00     0.000 HD 
HETATM   13  N   UNL     1     -11.771  11.687  63.621  1.00  0.00    -0.570 NA 
HETATM   14  H2  UNL     1     -11.571  12.297  62.827  1.00  0.00     0.000 HD 
ENDBRANCH  10  11
ENDBRANCH   8  10
BRANCH   8  15
HETATM   15  N   UNL     1     -10.609  12.132  67.768  1.00  0.00    -0.200 NA 
HETATM   16  N   UNL     1      -9.348  11.774  68.100  1.00  0.00    -0.185 NA 
HETATM   17  C   UNL     1     -11.552  11.368  68.404  1.00  0.00    -0.315 A  
HETATM   18  C   UNL     1      -9.512  10.766  68.957  1.00  0.00    -0.166 A  
HETATM   19  C   UNL     1     -10.866  10.460  69.180  1.00  0.00    -0.274 A  
BRANCH  19  20
HETATM   20  C   UNL     1     -11.492   9.482  70.030  1.00  0.00    -0.109 A  
HETATM   21  C   UNL     1     -12.358   9.855  71.059  1.00  0.00    -0.451 A  
HETATM   22  C   UNL     1     -12.834  11.057  71.658  1.00  0.00    -0.540 A  
HETATM   23  C   UNL     1     -13.723  10.707  72.651  1.00  0.00     0.896 A  
HETATM   24  N   UNL     1     -13.787   9.338  72.693  1.00  0.00    -0.754 NA 
HETATM   25  H   UNL     1     -14.369   8.796  73.332  1.00  0.00     0.000 HD 
HETATM   26  C   UNL     1     -12.951   8.809  71.746  1.00  0.00    -0.361 A  
HETATM   27  N   UNL     1     -12.766   7.497  71.540  1.00  0.00    -0.348 NA 
HETATM   28  C   UNL     1     -11.889   7.268  70.548  1.00  0.00    -0.199 A  
HETATM   29  N   UNL     1     -11.242   8.172  69.790  1.00  0.00    -0.056 NA 
ENDBRANCH  19  20
ENDBRANCH   8  15
ENDBRANCH   3   6
ENDBRANCH   2   3
TORSDOF 6
ENDMDL
MODEL      152
REMARK 921   NORMALIZED FREE ENERGY PREDICTED BY IDOCK:   -4.75 KCAL/MOL
REMARK 922        TOTAL FREE ENERGY PREDICTED BY IDOCK:   -6.92 KCAL/MOL
REMARK 923 INTER-LIGAND FREE ENERGY PREDICTED BY IDOCK:   -6.05 KCAL/MOL
REMARK 924 INTRA-LIGAND FREE ENERGY PREDICTED BY IDOCK:   -0.87 KCAL/MOL
REMARK 927      BINDING AFFINITY PREDICTED BY RF-SCORE:    0.00 PKD
ROOT
HETATM    1  C   UNL     1      -9.992   9.671  70.389  1.00  0.00    -0.330 C  
HETATM    2  C   UNL     1     -10.376  10.078  68.983  1.00  0.00    -0.206 C  
ENDROOT
BRANCH   2   3
HETATM    3  S   UNL     1      -8.945  10.490  68.000  1.00  0.00    -0.137 S  
HETATM    4  O   UNL     1      -7.766  10.397  68.829  1.00  0.00    -0.090 OA 
HETATM    5  O   UNL     1      -9.046   9.813  66.725  1.00  0.00    -0.143 OA 
BRANCH   3   6
HETATM    6  N   UNL     1      -9.253  12.128  67.738  1.00  0.00    -0.182 N  
HETATM    7  C   UNL     1      -8.730  12.947  66.606  1.00  0.00    -0.037 C  
HETATM    8  C   UNL     1      -9.919  13.948  66.790  1.00  0.00    -0.269 C  
HETATM    9  C   UNL     1     -10.590  12.762  67.555  1.00  0.00    -0.229 C  
BRANCH   8  10
HETATM   10  C   UNL     1     -10.571  14.497  65.528  1.00  0.00    -0.364 C  
BRANCH  10  11
HETATM   11  C   UNL     1     -10.670  13.441  64.439  1.00  0.00    -0.408 C  
HETATM   12  H1  UNL     1     -10.817  11.857  62.805  1.00  0.00     0.000 HD 
HETATM   13  N   UNL     1     -10.751  12.565  63.536  1.00  0.00    -0.464 NA 
HETATM   14  H2  UNL     1     -10.722  11.594  63.851  1.00  0.00     0.000 HD 
ENDBRANCH  10  11
ENDBRANCH   8  10
BRANCH   8  15
HETATM   15  N   UNL     1      -9.487  15.039  67.654  1.00  0.00    -0.194 NA 
HETATM   16  N   UNL     1     -10.257  15.436  68.692  1.00  0.00    -0.212 NA 
HETATM   17  C   UNL     1      -8.353  15.797  67.526  1.00  0.00    -0.166 A  
HETATM   18  C   UNL     1      -9.590  16.464  69.217  1.00  0.00    -0.198 A  
HETATM   19  C   UNL     1      -8.397  16.743  68.527  1.00  0.00    -0.243 A  
BRANCH  19  20
HETATM   20  C   UNL     1      -7.374  17.729  68.757  1.00  0.00    -0.271 A  
HETATM   21  C   UNL     1      -7.299  18.896  67.994  1.00  0.00    -0.274 A  
HETATM   22  C   UNL     1      -7.959  19.468  66.869  1.00  0.00    -0.301 A  
HETATM   23  C   UNL     1      -7.388  20.701  66.632  1.00  0.00    -0.189 A  
HETATM   24  N   UNL     1      -6.392  20.886  67.556  1.00  0.00    -0.295 NA 
HETATM   25  H   UNL     1      -5.800  21.714  67.622  1.00  0.00     0.000 HD 
HETATM   26  C   UNL     1      -6.315  19.793  68.375  1.00  0.00    -0.263 A  
HETATM   27  N   UNL     1      -5.430  19.649  69.373  1.00  0.00    -0.195 NA 
HETATM   28  C   UNL     1      -5.584  18.475  70.009  1.00  0.00    -0.238 A  
HETATM   29  N   UNL     1      -6.491  17.512  69.760  1.00  0.00    -0.152 NA 
ENDBRANCH  19  20
ENDBRANCH   8  15
ENDBRANCH   3   6
ENDBRANCH   2   3
TORSDOF 6
ENDMDL
MODEL      153
REMARK 921   NORMALIZED FREE ENERGY PREDICTED BY IDOCK:   -4.73 KCAL/MOL
REMARK 922        TOTAL FREE ENERGY PREDICTED BY IDOCK:   -6.90 KCAL/MOL
REMARK 923 INTER-LIGAND FREE ENERGY PREDICTED BY IDOCK:   -6.47 KCAL/MOL
REMARK 924 INTRA-LIGAND FREE ENERGY PREDICTED BY IDOCK:   -0.44 KCAL/MOL
REMARK 927      BINDING AFFINITY PREDICTED BY RF-SCORE:    0.00 PKD
ROOT
HETATM    1  C   UNL     1      -8.208  15.753  66.609  1.00  0.00    -0.305 C  
HETATM    2  C   UNL     1      -8.386  15.024  67.925  1.00  0.00    -0.148 C  
ENDROOT
BRANCH   2   3
HETATM    3  S   UNL     1      -7.135  13.774  68.162  1.00  0.00    -0.139 S  
HETATM    4  O   UNL     1      -6.085  13.974  67.191  1.00  0.00    -0.201 OA 
HETATM    5  O   UNL     1      -6.862  13.652  69.578  1.00  0.00    -0.075 OA 
BRANCH   3   6
HETATM    6  N   UNL     1      -8.012  12.413  67.688  1.00  0.00    -0.151 N  
HETATM    7  C   UNL     1      -9.338  12.420  67.005  1.00  0.00    -0.204 C  
HETATM    8  C   UNL     1      -9.046  10.991  66.438  1.00  0.00    -0.178 C  
HETATM    9  C   UNL     1      -7.556  11.344  66.754  1.00  0.00    -0.143 C  
BRANCH   8  10
HETATM   10  C   UNL     1      -9.466  10.711  65.001  1.00  0.00    -0.293 C  
BRANCH  10  11
HETATM   11  C   UNL     1      -9.842  11.987  64.264  1.00  0.00    -0.169 C  
HETATM   12  H1  UNL     1     -10.407  13.901  63.159  1.00  0.00     0.000 HD 
HETATM   13  N   UNL     1     -10.154  13.045  63.654  1.00  0.00    -0.686 NA 
HETATM   14  H2  UNL     1      -9.768  13.911  64.033  1.00  0.00     0.000 HD 
ENDBRANCH  10  11
ENDBRANCH   8  10
BRANCH   8  15
HETATM   15  N   UNL     1      -9.622  10.001  67.337  1.00  0.00    -0.152 NA 
HETATM   16  N   UNL     1     -10.331   8.960  66.845  1.00  0.00    -0.271 NA 
HETATM   17  C   UNL     1      -9.577  10.000  68.706  1.00  0.00    -0.168 A  
HETATM   18  C   UNL     1     -10.739   8.303  67.931  1.00  0.00    -0.070 A  
HETATM   19  C   UNL     1     -10.307   8.909  69.124  1.00  0.00    -0.230 A  
BRANCH  19  20
HETATM   20  C   UNL     1     -10.490   8.534  70.502  1.00  0.00    -0.204 A  
HETATM   21  C   UNL     1     -11.699   8.754  71.164  1.00  0.00    -0.344 A  
HETATM   22  C   UNL     1     -12.954   9.372  70.897  1.00  0.00    -0.129 A  
HETATM   23  C   UNL     1     -13.746   9.210  72.014  1.00  0.00    -0.448 A  
HETATM   24  N   UNL     1     -13.010   8.539  72.956  1.00  0.00    -0.661 NA 
HETATM   25  H   UNL     1     -13.342   8.277  73.884  1.00  0.00     0.000 HD 
HETATM   26  C   UNL     1     -11.762   8.273  72.461  1.00  0.00    -0.383 A  
HETATM   27  N   UNL     1     -10.791   7.644  73.140  1.00  0.00    -0.399 NA 
HETATM   28  C   UNL     1      -9.671   7.521  72.407  1.00  0.00    -0.161 A  
HETATM   29  N   UNL     1      -9.461   7.929  71.142  1.00  0.00    -0.157 NA 
ENDBRANCH  19  20
ENDBRANCH   8  15
ENDBRANCH   3   6
ENDBRANCH   2   3
TORSDOF 6
ENDMDL
MODEL      154
REMARK 921   NORMALIZED FREE ENERGY PREDICTED BY IDOCK:   -4.72 KCAL/MOL
REMARK 922        TOTAL FREE ENERGY PREDICTED BY IDOCK:   -6.89 KCAL/MOL
REMARK 923 INTER-LIGAND FREE ENERGY PREDICTED BY IDOCK:   -6.35 KCAL/MOL
REMARK 924 INTRA-LIGAND FREE ENERGY PREDICTED BY IDOCK:   -0.54 KCAL/MOL
REMARK 927      BINDING AFFINITY PREDICTED BY RF-SCORE:    0.00 PKD
ROOT
HETATM    1  C   UNL     1     -10.354   6.317  73.296  1.00  0.00    -0.248 C  
HETATM    2  C   UNL     1     -10.829   7.743  73.112  1.00  0.00    -0.339 C  
ENDROOT
BRANCH   2   3
HETATM    3  S   UNL     1     -12.052   7.869  71.818  1.00  0.00    -0.317 S  
HETATM    4  O   UNL     1     -12.536   6.546  71.502  1.00  0.00    -0.314 OA 
HETATM    5  O   UNL     1     -12.947   8.963  72.130  1.00  0.00    -0.360 OA 
BRANCH   3   6
HETATM    6  N   UNL     1     -11.059   8.364  70.548  1.00  0.00    -0.254 N  
HETATM    7  C   UNL     1      -9.919   9.321  70.649  1.00  0.00    -0.273 C  
HETATM    8  C   UNL     1      -9.292   8.699  69.357  1.00  0.00    -0.150 C  
HETATM    9  C   UNL     1     -10.221   7.485  69.682  1.00  0.00    -0.205 C  
BRANCH   8  10
HETATM   10  C   UNL     1      -7.781   8.508  69.337  1.00  0.00    -0.092 C  
BRANCH  10  11
HETATM   11  C   UNL     1      -7.200   8.462  70.741  1.00  0.00    -0.055 C  
HETATM   12  H1  UNL     1      -6.328   8.394  72.848  1.00  0.00     0.000 HD 
HETATM   13  N   UNL     1      -6.718   8.425  71.906  1.00  0.00    -0.076 NA 
HETATM   14  H2  UNL     1      -6.299   9.292  72.245  1.00  0.00     0.000 HD 
ENDBRANCH  10  11
ENDBRANCH   8  10
BRANCH   8  15
HETATM   15  N   UNL     1      -9.719   9.478  68.203  1.00  0.00    -0.144 NA 
HETATM   16  N   UNL     1     -10.036   8.863  67.041  1.00  0.00    -0.236 NA 
HETATM   17  C   UNL     1      -9.810  10.842  68.112  1.00  0.00    -0.175 A  
HETATM   18  C   UNL     1     -10.326   9.867  66.212  1.00  0.00    -0.163 A  
HETATM   19  C   UNL     1     -10.195  11.127  66.820  1.00  0.00    -0.272 A  
BRANCH  19  20
HETATM   20  C   UNL     1     -10.426  12.455  66.316  1.00  0.00    -0.245 A  
HETATM   21  C   UNL     1     -10.636  13.536  67.174  1.00  0.00    -0.264 A  
HETATM   22  C   UNL     1     -10.779  13.764  68.573  1.00  0.00    -0.274 A  
HETATM   23  C   UNL     1     -10.947  15.120  68.761  1.00  0.00    -0.255 A  
HETATM   24  N   UNL     1     -10.935  15.718  67.528  1.00  0.00    -0.315 NA 
HETATM   25  H   UNL     1     -11.036  16.719  67.359  1.00  0.00     0.000 HD 
HETATM   26  C   UNL     1     -10.766  14.769  66.557  1.00  0.00    -0.319 A  
HETATM   27  N   UNL     1     -10.729  15.023  65.240  1.00  0.00    -0.359 NA 
HETATM   28  C   UNL     1     -10.553  13.901  64.522  1.00  0.00    -0.354 A  
HETATM   29  N   UNL     1     -10.406  12.642  64.975  1.00  0.00    -0.295 NA 
ENDBRANCH  19  20
ENDBRANCH   8  15
ENDBRANCH   3   6
ENDBRANCH   2   3
TORSDOF 6
ENDMDL
MODEL      155
REMARK 921   NORMALIZED FREE ENERGY PREDICTED BY IDOCK:   -4.71 KCAL/MOL
REMARK 922        TOTAL FREE ENERGY PREDICTED BY IDOCK:   -6.87 KCAL/MOL
REMARK 923 INTER-LIGAND FREE ENERGY PREDICTED BY IDOCK:   -6.45 KCAL/MOL
REMARK 924 INTRA-LIGAND FREE ENERGY PREDICTED BY IDOCK:   -0.42 KCAL/MOL
REMARK 927      BINDING AFFINITY PREDICTED BY RF-SCORE:    0.00 PKD
ROOT
HETATM    1  C   UNL     1     -10.321   5.887  71.831  1.00  0.00    -0.255 C  
HETATM    2  C   UNL     1     -11.455   6.814  71.446  1.00  0.00    -0.292 C  
ENDROOT
BRANCH   2   3
HETATM    3  S   UNL     1     -11.092   8.510  71.867  1.00  0.00    -0.350 S  
HETATM    4  O   UNL     1     -12.313   9.159  72.285  1.00  0.00    -0.359 OA 
HETATM    5  O   UNL     1      -9.889   8.543  72.669  1.00  0.00    -0.281 OA 
BRANCH   3   6
HETATM    6  N   UNL     1     -10.705   9.097  70.334  1.00  0.00    -0.223 N  
HETATM    7  C   UNL     1      -9.333   9.409  69.836  1.00  0.00    -0.214 C  
HETATM    8  C   UNL     1      -9.834   9.229  68.364  1.00  0.00    -0.155 C  
HETATM    9  C   UNL     1     -11.010   8.443  69.029  1.00  0.00     0.120 C  
BRANCH   8  10
HETATM   10  C   UNL     1      -8.903   8.515  67.394  1.00  0.00    -0.140 C  
BRANCH  10  11
HETATM   11  C   UNL     1      -9.595   7.354  66.698  1.00  0.00    -0.190 C  
HETATM   12  H1  UNL     1     -10.635   5.612  65.655  1.00  0.00     0.000 HD 
HETATM   13  N   UNL     1     -10.171   6.391  66.121  1.00  0.00    -0.404 NA 
HETATM   14  H2  UNL     1     -11.000   6.628  65.576  1.00  0.00     0.000 HD 
ENDBRANCH  10  11
ENDBRANCH   8  10
BRANCH   8  15
HETATM   15  N   UNL     1     -10.218  10.530  67.835  1.00  0.00    -0.175 NA 
HETATM   16  N   UNL     1     -11.472  10.738  67.375  1.00  0.00    -0.460 NA 
HETATM   17  C   UNL     1      -9.419  11.633  67.689  1.00  0.00    -0.177 A  
HETATM   18  C   UNL     1     -11.450  11.996  66.931  1.00  0.00    -0.337 A  
HETATM   19  C   UNL     1     -10.193  12.605  67.092  1.00  0.00    -0.230 A  
BRANCH  19  20
HETATM   20  C   UNL     1      -9.733  13.932  66.782  1.00  0.00    -0.279 A  
HETATM   21  C   UNL     1      -8.499  14.403  67.236  1.00  0.00    -0.229 A  
HETATM   22  C   UNL     1      -7.438  13.952  68.072  1.00  0.00    -0.135 A  
HETATM   23  C   UNL     1      -6.468  14.931  68.081  1.00  0.00    -0.133 A  
HETATM   24  N   UNL     1      -6.911  15.968  67.301  1.00  0.00    -0.189 NA 
HETATM   25  H   UNL     1      -6.396  16.830  67.122  1.00  0.00     0.000 HD 
HETATM   26  C   UNL     1      -8.148  15.669  66.797  1.00  0.00    -0.244 A  
HETATM   27  N   UNL     1      -8.868  16.482  66.010  1.00  0.00    -0.463 NA 
HETATM   28  C   UNL     1     -10.044  15.930  65.668  1.00  0.00    -0.358 A  
HETATM   29  N   UNL     1     -10.519  14.717  66.007  1.00  0.00    -0.293 NA 
ENDBRANCH  19  20
ENDBRANCH   8  15
ENDBRANCH   3   6
ENDBRANCH   2   3
TORSDOF 6
ENDMDL
MODEL      156
REMARK 921   NORMALIZED FREE ENERGY PREDICTED BY IDOCK:   -4.71 KCAL/MOL
REMARK 922        TOTAL FREE ENERGY PREDICTED BY IDOCK:   -6.87 KCAL/MOL
REMARK 923 INTER-LIGAND FREE ENERGY PREDICTED BY IDOCK:   -6.18 KCAL/MOL
REMARK 924 INTRA-LIGAND FREE ENERGY PREDICTED BY IDOCK:   -0.68 KCAL/MOL
REMARK 927      BINDING AFFINITY PREDICTED BY RF-SCORE:    0.00 PKD
ROOT
HETATM    1  C   UNL     1      -7.588  15.105  68.881  1.00  0.00    -0.148 C  
HETATM    2  C   UNL     1      -8.230  14.785  67.548  1.00  0.00    -0.185 C  
ENDROOT
BRANCH   2   3
HETATM    3  S   UNL     1     -10.007  14.932  67.618  1.00  0.00    -0.226 S  
HETATM    4  O   UNL     1     -10.373  15.590  68.851  1.00  0.00    -0.207 OA 
HETATM    5  O   UNL     1     -10.488  15.385  66.331  1.00  0.00    -0.287 OA 
BRANCH   3   6
HETATM    6  N   UNL     1     -10.412  13.302  67.774  1.00  0.00    -0.235 N  
HETATM    7  C   UNL     1     -11.511  12.600  67.050  1.00  0.00    -0.346 C  
HETATM    8  C   UNL     1     -10.773  11.236  67.265  1.00  0.00    -0.251 C  
HETATM    9  C   UNL     1      -9.519  12.136  67.511  1.00  0.00    -0.180 C  
BRANCH   8  10
HETATM   10  C   UNL     1     -10.777  10.250  66.106  1.00  0.00    -0.042 C  
BRANCH  10  11
HETATM   11  C   UNL     1      -9.841  10.686  64.991  1.00  0.00    -0.293 C  
HETATM   12  H1  UNL     1      -8.435  11.339  63.317  1.00  0.00     0.000 HD 
HETATM   13  N   UNL     1      -9.063  11.047  64.066  1.00  0.00    -0.343 NA 
HETATM   14  H2  UNL     1      -8.174  10.549  64.009  1.00  0.00     0.000 HD 
ENDBRANCH  10  11
ENDBRANCH   8  10
BRANCH   8  15
HETATM   15  N   UNL     1     -11.292  10.605  68.471  1.00  0.00    -0.284 NA 
HETATM   16  N   UNL     1     -12.327  11.159  69.142  1.00  0.00    -0.424 NA 
HETATM   17  C   UNL     1     -10.819   9.475  69.083  1.00  0.00    -0.173 A  
HETATM   18  C   UNL     1     -12.496  10.358  70.195  1.00  0.00    -0.176 A  
HETATM   19  C   UNL     1     -11.578   9.293  70.219  1.00  0.00    -0.151 A  
BRANCH  19  20
HETATM   20  C   UNL     1     -11.416   8.198  71.137  1.00  0.00    -0.276 A  
HETATM   21  C   UNL     1     -10.304   8.107  71.977  1.00  0.00    -0.320 A  
HETATM   22  C   UNL     1      -9.086   8.810  72.198  1.00  0.00    -0.218 A  
HETATM   23  C   UNL     1      -8.423   8.184  73.232  1.00  0.00    -0.230 A  
HETATM   24  N   UNL     1      -9.182   7.114  73.630  1.00  0.00    -0.178 NA 
HETATM   25  H   UNL     1      -8.940   6.468  74.381  1.00  0.00     0.000 HD 
HETATM   26  C   UNL     1     -10.316   7.045  72.866  1.00  0.00    -0.239 A  
HETATM   27  N   UNL     1     -11.261   6.101  72.987  1.00  0.00    -0.215 NA 
HETATM   28  C   UNL     1     -12.259   6.280  72.106  1.00  0.00    -0.203 A  
HETATM   29  N   UNL     1     -12.391   7.260  71.192  1.00  0.00    -0.351 NA 
ENDBRANCH  19  20
ENDBRANCH   8  15
ENDBRANCH   3   6
ENDBRANCH   2   3
TORSDOF 6
ENDMDL
MODEL      157
REMARK 921   NORMALIZED FREE ENERGY PREDICTED BY IDOCK:   -4.70 KCAL/MOL
REMARK 922        TOTAL FREE ENERGY PREDICTED BY IDOCK:   -6.86 KCAL/MOL
REMARK 923 INTER-LIGAND FREE ENERGY PREDICTED BY IDOCK:   -5.93 KCAL/MOL
REMARK 924 INTRA-LIGAND FREE ENERGY PREDICTED BY IDOCK:   -0.93 KCAL/MOL
REMARK 927      BINDING AFFINITY PREDICTED BY RF-SCORE:    0.00 PKD
ROOT
HETATM    1  C   UNL     1     -10.411  16.222  66.065  1.00  0.00    -0.363 C  
HETATM    2  C   UNL     1     -10.749  17.583  65.492  1.00  0.00    -0.062 C  
ENDROOT
BRANCH   2   3
HETATM    3  S   UNL     1     -10.134  18.904  66.521  1.00  0.00    -0.423 S  
HETATM    4  O   UNL     1      -9.545  19.918  65.678  1.00  0.00    -0.333 OA 
HETATM    5  O   UNL     1     -11.132  19.219  67.520  1.00  0.00    -0.423 OA 
BRANCH   3   6
HETATM    6  N   UNL     1      -8.874  18.090  67.292  1.00  0.00    -0.244 N  
HETATM    7  C   UNL     1      -7.457  18.031  66.828  1.00  0.00    -0.214 C  
HETATM    8  C   UNL     1      -6.998  17.722  68.293  1.00  0.00    -0.223 C  
HETATM    9  C   UNL     1      -8.390  18.316  68.684  1.00  0.00    -0.287 C  
BRANCH   8  10
HETATM   10  C   UNL     1      -5.725  18.399  68.782  1.00  0.00    -0.196 C  
BRANCH  10  11
HETATM   11  C   UNL     1      -6.022  19.491  69.797  1.00  0.00    -0.275 C  
HETATM   12  H1  UNL     1      -6.466  21.131  71.320  1.00  0.00     0.000 HD 
HETATM   13  N   UNL     1      -6.266  20.398  70.639  1.00  0.00    -0.529 NA 
HETATM   14  H2  UNL     1      -5.475  20.982  70.910  1.00  0.00     0.000 HD 
ENDBRANCH  10  11
ENDBRANCH   8  10
BRANCH   8  15
HETATM   15  N   UNL     1      -6.903  16.278  68.462  1.00  0.00    -0.133 NA 
HETATM   16  N   UNL     1      -6.701  15.745  69.688  1.00  0.00    -0.187 NA 
HETATM   17  C   UNL     1      -6.950  15.325  67.480  1.00  0.00    -0.196 A  
HETATM   18  C   UNL     1      -6.617  14.434  69.462  1.00  0.00    -0.141 A  
HETATM   19  C   UNL     1      -6.756  14.110  68.100  1.00  0.00    -0.125 A  
BRANCH  19  20
HETATM   20  C   UNL     1      -6.757  12.842  67.420  1.00  0.00    -0.134 A  
HETATM   21  C   UNL     1      -7.935  12.122  67.218  1.00  0.00    -0.176 A  
HETATM   22  C   UNL     1      -9.311  12.222  67.573  1.00  0.00    -0.183 A  
HETATM   23  C   UNL     1      -9.968  11.149  67.010  1.00  0.00    -0.192 A  
HETATM   24  N   UNL     1      -9.039  10.390  66.347  1.00  0.00    -0.154 NA 
HETATM   25  H   UNL     1      -9.241   9.533  65.832  1.00  0.00     0.000 HD 
HETATM   26  C   UNL     1      -7.801  10.957  66.480  1.00  0.00    -0.152 A  
HETATM   27  N   UNL     1      -6.671  10.451  65.965  1.00  0.00    -0.116 NA 
HETATM   28  C   UNL     1      -5.605  11.217  66.254  1.00  0.00    -0.149 A  
HETATM   29  N   UNL     1      -5.578  12.369  66.949  1.00  0.00    -0.321 NA 
ENDBRANCH  19  20
ENDBRANCH   8  15
ENDBRANCH   3   6
ENDBRANCH   2   3
TORSDOF 6
ENDMDL
MODEL      158
REMARK 921   NORMALIZED FREE ENERGY PREDICTED BY IDOCK:   -4.70 KCAL/MOL
REMARK 922        TOTAL FREE ENERGY PREDICTED BY IDOCK:   -6.85 KCAL/MOL
REMARK 923 INTER-LIGAND FREE ENERGY PREDICTED BY IDOCK:   -6.26 KCAL/MOL
REMARK 924 INTRA-LIGAND FREE ENERGY PREDICTED BY IDOCK:   -0.60 KCAL/MOL
REMARK 927      BINDING AFFINITY PREDICTED BY RF-SCORE:    0.00 PKD
ROOT
HETATM    1  C   UNL     1     -11.882  11.597  69.217  1.00  0.00    -0.396 C  
HETATM    2  C   UNL     1     -11.331  12.802  68.483  1.00  0.00    -0.291 C  
ENDROOT
BRANCH   2   3
HETATM    3  S   UNL     1     -10.903  12.408  66.796  1.00  0.00    -0.258 S  
HETATM    4  O   UNL     1     -12.113  12.344  66.010  1.00  0.00    -0.600 OA 
HETATM    5  O   UNL     1      -9.771  13.218  66.403  1.00  0.00    -0.269 OA 
BRANCH   3   6
HETATM    6  N   UNL     1     -10.355  10.828  67.013  1.00  0.00    -0.217 N  
HETATM    7  C   UNL     1     -10.152   9.816  65.936  1.00  0.00    -0.243 C  
HETATM    8  C   UNL     1      -9.135   9.056  66.850  1.00  0.00    -0.132 C  
HETATM    9  C   UNL     1      -9.058  10.413  67.621  1.00  0.00    -0.138 C  
BRANCH   8  10
HETATM   10  C   UNL     1      -7.885   8.494  66.187  1.00  0.00    -0.098 C  
BRANCH  10  11
HETATM   11  C   UNL     1      -8.195   7.264  65.349  1.00  0.00    -0.137 C  
HETATM   12  H1  UNL     1      -8.660   5.419  64.092  1.00  0.00     0.000 HD 
HETATM   13  N   UNL     1      -8.452   6.243  64.654  1.00  0.00    -0.335 NA 
HETATM   14  H2  UNL     1      -8.775   5.423  65.168  1.00  0.00     0.000 HD 
ENDBRANCH  10  11
ENDBRANCH   8  10
BRANCH   8  15
HETATM   15  N   UNL     1      -9.842   8.006  67.572  1.00  0.00    -0.160 NA 
HETATM   16  N   UNL     1     -10.653   7.150  66.911  1.00  0.00    -0.315 NA 
HETATM   17  C   UNL     1      -9.832   7.779  68.922  1.00  0.00    -0.166 A  
HETATM   18  C   UNL     1     -11.160   6.377  67.873  1.00  0.00    -0.270 A  
HETATM   19  C   UNL     1     -10.691   6.727  69.152  1.00  0.00    -0.287 A  
BRANCH  19  20
HETATM   20  C   UNL     1     -10.951   6.158  70.448  1.00  0.00    -0.337 A  
HETATM   21  C   UNL     1     -10.137   5.157  70.982  1.00  0.00    -0.297 A  
HETATM   22  C   UNL     1      -9.024   4.368  70.573  1.00  0.00    -0.155 A  
HETATM   23  C   UNL     1      -8.678   3.553  71.630  1.00  0.00    -0.089 A  
HETATM   24  N   UNL     1      -9.554   3.801  72.655  1.00  0.00    -0.128 NA 
HETATM   25  H   UNL     1      -9.537   3.344  73.567  1.00  0.00     0.000 HD 
HETATM   26  C   UNL     1     -10.454   4.757  72.270  1.00  0.00    -0.189 A  
HETATM   27  N   UNL     1     -11.458   5.213  73.035  1.00  0.00    -0.314 NA 
HETATM   28  C   UNL     1     -12.184   6.147  72.398  1.00  0.00    -0.074 A  
HETATM   29  N   UNL     1     -11.997   6.639  71.160  1.00  0.00    -0.362 NA 
ENDBRANCH  19  20
ENDBRANCH   8  15
ENDBRANCH   3   6
ENDBRANCH   2   3
TORSDOF 6
ENDMDL
MODEL      159
REMARK 921   NORMALIZED FREE ENERGY PREDICTED BY IDOCK:   -4.69 KCAL/MOL
REMARK 922        TOTAL FREE ENERGY PREDICTED BY IDOCK:   -6.84 KCAL/MOL
REMARK 923 INTER-LIGAND FREE ENERGY PREDICTED BY IDOCK:   -6.06 KCAL/MOL
REMARK 924 INTRA-LIGAND FREE ENERGY PREDICTED BY IDOCK:   -0.78 KCAL/MOL
REMARK 927      BINDING AFFINITY PREDICTED BY RF-SCORE:    0.00 PKD
ROOT
HETATM    1  C   UNL     1      -7.596   5.953  72.490  1.00  0.00    -0.100 C  
HETATM    2  C   UNL     1      -8.778   6.445  71.681  1.00  0.00    -0.133 C  
ENDROOT
BRANCH   2   3
HETATM    3  S   UNL     1      -9.382   8.014  72.281  1.00  0.00    -0.222 S  
HETATM    4  O   UNL     1     -10.554   7.782  73.093  1.00  0.00    -0.359 OA 
HETATM    5  O   UNL     1      -8.260   8.795  72.753  1.00  0.00    -0.407 OA 
BRANCH   3   6
HETATM    6  N   UNL     1      -9.900   8.686  70.823  1.00  0.00    -0.181 N  
HETATM    7  C   UNL     1      -9.056   8.907  69.613  1.00  0.00    -0.151 C  
HETATM    8  C   UNL     1     -10.343   8.896  68.722  1.00  0.00    -0.211 C  
HETATM    9  C   UNL     1     -10.991   8.171  69.946  1.00  0.00    -0.168 C  
BRANCH   8  10
HETATM   10  C   UNL     1     -10.257   8.180  67.381  1.00  0.00    -0.327 C  
BRANCH  10  11
HETATM   11  C   UNL     1      -8.849   8.221  66.809  1.00  0.00    -0.140 C  
HETATM   12  H1  UNL     1      -6.736   8.281  65.951  1.00  0.00     0.000 HD 
HETATM   13  N   UNL     1      -7.681   8.254  66.334  1.00  0.00    -0.090 NA 
HETATM   14  H2  UNL     1      -7.607   8.497  65.346  1.00  0.00     0.000 HD 
ENDBRANCH  10  11
ENDBRANCH   8  10
BRANCH   8  15
HETATM   15  N   UNL     1     -10.800  10.267  68.537  1.00  0.00    -0.226 NA 
HETATM   16  N   UNL     1     -12.065  10.615  68.862  1.00  0.00    -0.344 NA 
HETATM   17  C   UNL     1     -10.092  11.311  68.006  1.00  0.00    -0.177 A  
HETATM   18  C   UNL     1     -12.145  11.902  68.520  1.00  0.00    -0.059 A  
HETATM   19  C   UNL     1     -10.946  12.391  67.972  1.00  0.00    -0.262 A  
BRANCH  19  20
HETATM   20  C   UNL     1     -10.582  13.701  67.499  1.00  0.00    -0.241 A  
HETATM   21  C   UNL     1     -10.594  14.812  68.344  1.00  0.00    -0.242 A  
HETATM   22  C   UNL     1     -10.963  15.117  69.686  1.00  0.00    -0.291 A  
HETATM   23  C   UNL     1     -10.688  16.450  69.902  1.00  0.00    -0.300 A  
HETATM   24  N   UNL     1     -10.189  16.970  68.736  1.00  0.00    -0.298 NA 
HETATM   25  H   UNL     1      -9.896  17.938  68.603  1.00  0.00     0.000 HD 
HETATM   26  C   UNL     1     -10.144  15.994  67.779  1.00  0.00    -0.243 A  
HETATM   27  N   UNL     1      -9.723  16.180  66.519  1.00  0.00    -0.247 NA 
HETATM   28  C   UNL     1      -9.789  15.046  65.800  1.00  0.00    -0.353 A  
HETATM   29  N   UNL     1     -10.194  13.830  66.208  1.00  0.00    -0.290 NA 
ENDBRANCH  19  20
ENDBRANCH   8  15
ENDBRANCH   3   6
ENDBRANCH   2   3
TORSDOF 6
ENDMDL
MODEL      160
REMARK 921   NORMALIZED FREE ENERGY PREDICTED BY IDOCK:   -4.68 KCAL/MOL
REMARK 922        TOTAL FREE ENERGY PREDICTED BY IDOCK:   -6.83 KCAL/MOL
REMARK 923 INTER-LIGAND FREE ENERGY PREDICTED BY IDOCK:   -5.96 KCAL/MOL
REMARK 924 INTRA-LIGAND FREE ENERGY PREDICTED BY IDOCK:   -0.88 KCAL/MOL
REMARK 927      BINDING AFFINITY PREDICTED BY RF-SCORE:    0.00 PKD
ROOT
HETATM    1  C   UNL     1     -11.017  14.620  65.857  1.00  0.00    -0.332 C  
HETATM    2  C   UNL     1     -10.749  16.040  65.402  1.00  0.00    -0.383 C  
ENDROOT
BRANCH   2   3
HETATM    3  S   UNL     1      -9.926  16.994  66.666  1.00  0.00    -0.315 S  
HETATM    4  O   UNL     1      -9.120  18.011  66.032  1.00  0.00    -0.509 OA 
HETATM    5  O   UNL     1     -10.880  17.306  67.708  1.00  0.00    -0.351 OA 
BRANCH   3   6
HETATM    6  N   UNL     1      -8.879  15.815  67.264  1.00  0.00    -0.188 N  
HETATM    7  C   UNL     1      -7.408  15.747  67.024  1.00  0.00    -0.191 C  
HETATM    8  C   UNL     1      -7.242  14.895  68.327  1.00  0.00    -0.113 C  
HETATM    9  C   UNL     1      -8.643  15.482  68.698  1.00  0.00    -0.179 C  
BRANCH   8  10
HETATM   10  C   UNL     1      -6.040  15.198  69.210  1.00  0.00    -0.109 C  
BRANCH  10  11
HETATM   11  C   UNL     1      -6.092  14.427  70.519  1.00  0.00    -0.185 C  
HETATM   12  H1  UNL     1      -6.172  13.271  72.483  1.00  0.00     0.000 HD 
HETATM   13  N   UNL     1      -6.137  13.788  71.605  1.00  0.00    -0.556 NA 
HETATM   14  H2  UNL     1      -6.723  14.190  72.337  1.00  0.00     0.000 HD 
ENDBRANCH  10  11
ENDBRANCH   8  10
BRANCH   8  15
HETATM   15  N   UNL     1      -7.268  13.483  67.972  1.00  0.00    -0.107 NA 
HETATM   16  N   UNL     1      -6.202  12.908  67.371  1.00  0.00    -0.248 NA 
HETATM   17  C   UNL     1      -8.309  12.607  68.135  1.00  0.00    -0.175 A  
HETATM   18  C   UNL     1      -6.591  11.651  67.154  1.00  0.00    -0.134 A  
HETATM   19  C   UNL     1      -7.901  11.405  67.601  1.00  0.00    -0.122 A  
BRANCH  19  20
HETATM   20  C   UNL     1      -8.699  10.208  67.591  1.00  0.00    -0.121 A  
HETATM   21  C   UNL     1      -9.138   9.613  68.775  1.00  0.00    -0.134 A  
HETATM   22  C   UNL     1      -8.972   9.799  70.178  1.00  0.00    -0.235 A  
HETATM   23  C   UNL     1      -9.729   8.841  70.819  1.00  0.00    -0.208 A  
HETATM   24  N   UNL     1     -10.328   8.068  69.859  1.00  0.00    -0.216 NA 
HETATM   25  H   UNL     1     -10.950   7.281  70.043  1.00  0.00     0.000 HD 
HETATM   26  C   UNL     1      -9.964   8.512  68.617  1.00  0.00    -0.184 A  
HETATM   27  N   UNL     1     -10.363   7.959  67.462  1.00  0.00    -0.238 NA 
HETATM   28  C   UNL     1      -9.850   8.601  66.399  1.00  0.00    -0.270 A  
HETATM   29  N   UNL     1      -9.045   9.680  66.393  1.00  0.00    -0.151 NA 
ENDBRANCH  19  20
ENDBRANCH   8  15
ENDBRANCH   3   6
ENDBRANCH   2   3
TORSDOF 6
ENDMDL
MODEL      161
REMARK 921   NORMALIZED FREE ENERGY PREDICTED BY IDOCK:   -4.62 KCAL/MOL
REMARK 922        TOTAL FREE ENERGY PREDICTED BY IDOCK:   -6.76 KCAL/MOL
REMARK 923 INTER-LIGAND FREE ENERGY PREDICTED BY IDOCK:   -6.03 KCAL/MOL
REMARK 924 INTRA-LIGAND FREE ENERGY PREDICTED BY IDOCK:   -0.73 KCAL/MOL
REMARK 927      BINDING AFFINITY PREDICTED BY RF-SCORE:    0.00 PKD
ROOT
HETATM    1  C   UNL     1     -12.891  13.288  65.131  1.00  0.00    -0.376 C  
HETATM    2  C   UNL     1     -12.081  13.443  66.401  1.00  0.00    -0.409 C  
ENDROOT
BRANCH   2   3
HETATM    3  S   UNL     1     -10.352  13.714  66.053  1.00  0.00    -0.310 S  
HETATM    4  O   UNL     1     -10.184  13.888  64.629  1.00  0.00    -0.417 OA 
HETATM    5  O   UNL     1      -9.828  14.661  67.012  1.00  0.00    -0.236 OA 
BRANCH   3   6
HETATM    6  N   UNL     1      -9.749  12.190  66.452  1.00  0.00    -0.226 N  
HETATM    7  C   UNL     1      -9.135  11.216  65.504  1.00  0.00    -0.195 C  
HETATM    8  C   UNL     1      -8.375  10.544  66.696  1.00  0.00    -0.131 C  
HETATM    9  C   UNL     1      -8.663  11.894  67.431  1.00  0.00    -0.166 C  
BRANCH   8  10
HETATM   10  C   UNL     1      -6.936  10.112  66.451  1.00  0.00    -0.105 C  
BRANCH  10  11
HETATM   11  C   UNL     1      -6.539  10.274  64.993  1.00  0.00    -0.114 C  
HETATM   12  H1  UNL     1      -5.943  10.517  62.805  1.00  0.00     0.000 HD 
HETATM   13  N   UNL     1      -6.210  10.408  63.783  1.00  0.00    -0.291 NA 
HETATM   14  H2  UNL     1      -6.899  10.857  63.179  1.00  0.00     0.000 HD 
ENDBRANCH  10  11
ENDBRANCH   8  10
BRANCH   8  15
HETATM   15  N   UNL     1      -9.166   9.424  67.188  1.00  0.00    -0.133 NA 
HETATM   16  N   UNL     1     -10.115   8.862  66.407  1.00  0.00    -0.291 NA 
HETATM   17  C   UNL     1      -9.105   8.850  68.430  1.00  0.00    -0.137 A  
HETATM   18  C   UNL     1     -10.658   7.922  67.182  1.00  0.00    -0.313 A  
HETATM   19  C   UNL     1     -10.075   7.872  68.461  1.00  0.00    -0.216 A  
BRANCH  19  20
HETATM   20  C   UNL     1     -10.327   7.013  69.588  1.00  0.00    -0.209 A  
HETATM   21  C   UNL     1      -9.970   5.664  69.573  1.00  0.00    -0.263 A  
HETATM   22  C   UNL     1      -9.422   4.725  68.652  1.00  0.00    -0.208 A  
HETATM   23  C   UNL     1      -9.297   3.520  69.309  1.00  0.00    -0.172 A  
HETATM   24  N   UNL     1      -9.771   3.686  70.585  1.00  0.00    -0.180 NA 
HETATM   25  H   UNL     1      -9.799   2.960  71.301  1.00  0.00     0.000 HD 
HETATM   26  C   UNL     1     -10.198   4.975  70.752  1.00  0.00    -0.229 A  
HETATM   27  N   UNL     1     -10.735   5.460  71.882  1.00  0.00    -0.227 NA 
HETATM   28  C   UNL     1     -11.065   6.757  71.760  1.00  0.00    -0.242 A  
HETATM   29  N   UNL     1     -10.900   7.555  70.689  1.00  0.00    -0.235 NA 
ENDBRANCH  19  20
ENDBRANCH   8  15
ENDBRANCH   3   6
ENDBRANCH   2   3
TORSDOF 6
ENDMDL
MODEL      162
REMARK 921   NORMALIZED FREE ENERGY PREDICTED BY IDOCK:   -4.61 KCAL/MOL
REMARK 922        TOTAL FREE ENERGY PREDICTED BY IDOCK:   -6.74 KCAL/MOL
REMARK 923 INTER-LIGAND FREE ENERGY PREDICTED BY IDOCK:   -6.08 KCAL/MOL
REMARK 924 INTRA-LIGAND FREE ENERGY PREDICTED BY IDOCK:   -0.67 KCAL/MOL
REMARK 927      BINDING AFFINITY PREDICTED BY RF-SCORE:    0.00 PKD
ROOT
HETATM    1  C   UNL     1      -8.618  18.595  66.339  1.00  0.00    -0.284 C  
HETATM    2  C   UNL     1      -9.099  17.173  66.542  1.00  0.00    -0.269 C  
ENDROOT
BRANCH   2   3
HETATM    3  S   UNL     1      -8.915  16.649  68.238  1.00  0.00    -0.221 S  
HETATM    4  O   UNL     1      -7.540  16.840  68.639  1.00  0.00    -0.198 OA 
HETATM    5  O   UNL     1     -10.022  17.172  69.008  1.00  0.00    -0.288 OA 
BRANCH   3   6
HETATM    6  N   UNL     1      -9.161  14.992  68.042  1.00  0.00    -0.181 N  
HETATM    7  C   UNL     1      -9.412  14.291  66.749  1.00  0.00    -0.275 C  
HETATM    8  C   UNL     1      -8.888  12.958  67.378  1.00  0.00    -0.199 C  
HETATM    9  C   UNL     1      -8.220  13.902  68.429  1.00  0.00    -0.153 C  
BRANCH   8  10
HETATM   10  C   UNL     1      -8.016  12.069  66.502  1.00  0.00     0.092 C  
BRANCH  10  11
HETATM   11  C   UNL     1      -8.834  11.009  65.782  1.00  0.00    -0.191 C  
HETATM   12  H1  UNL     1     -10.062   9.418  64.702  1.00  0.00     0.000 HD 
HETATM   13  N   UNL     1      -9.512  10.129  65.185  1.00  0.00    -0.237 NA 
HETATM   14  H2  UNL     1      -9.207   9.164  65.316  1.00  0.00     0.000 HD 
ENDBRANCH  10  11
ENDBRANCH   8  10
BRANCH   8  15
HETATM   15  N   UNL     1     -10.020  12.204  67.898  1.00  0.00    -0.194 NA 
HETATM   16  N   UNL     1     -11.203  12.206  67.242  1.00  0.00    -0.286 NA 
HETATM   17  C   UNL     1     -10.070  11.478  69.058  1.00  0.00    -0.054 A  
HETATM   18  C   UNL     1     -12.003  11.471  68.014  1.00  0.00    -0.104 A  
HETATM   19  C   UNL     1     -11.356  10.995  69.168  1.00  0.00    -0.348 A  
BRANCH  19  20
HETATM   20  C   UNL     1     -11.820  10.160  70.243  1.00  0.00    -0.261 A  
HETATM   21  C   UNL     1     -11.154   8.986  70.597  1.00  0.00    -0.314 A  
HETATM   22  C   UNL     1     -10.053   8.212  70.130  1.00  0.00    -0.194 A  
HETATM   23  C   UNL     1      -9.905   7.138  70.981  1.00  0.00    -0.180 A  
HETATM   24  N   UNL     1     -10.889   7.218  71.932  1.00  0.00    -0.223 NA 
HETATM   25  H   UNL     1     -11.023   6.556  72.696  1.00  0.00     0.000 HD 
HETATM   26  C   UNL     1     -11.664   8.322  71.701  1.00  0.00    -0.292 A  
HETATM   27  N   UNL     1     -12.726   8.677  72.440  1.00  0.00    -0.389 NA 
HETATM   28  C   UNL     1     -13.297   9.804  71.981  1.00  0.00    -0.451 A  
HETATM   29  N   UNL     1     -12.916  10.557  70.933  1.00  0.00    -0.382 NA 
ENDBRANCH  19  20
ENDBRANCH   8  15
ENDBRANCH   3   6
ENDBRANCH   2   3
TORSDOF 6
ENDMDL
MODEL      163
REMARK 921   NORMALIZED FREE ENERGY PREDICTED BY IDOCK:   -4.61 KCAL/MOL
REMARK 922        TOTAL FREE ENERGY PREDICTED BY IDOCK:   -6.74 KCAL/MOL
REMARK 923 INTER-LIGAND FREE ENERGY PREDICTED BY IDOCK:   -6.30 KCAL/MOL
REMARK 924 INTRA-LIGAND FREE ENERGY PREDICTED BY IDOCK:   -0.44 KCAL/MOL
REMARK 927      BINDING AFFINITY PREDICTED BY RF-SCORE:    0.00 PKD
ROOT
HETATM    1  C   UNL     1     -10.763  15.579  65.786  1.00  0.00    -0.362 C  
HETATM    2  C   UNL     1     -10.697  17.024  65.340  1.00  0.00    -0.116 C  
ENDROOT
BRANCH   2   3
HETATM    3  S   UNL     1      -9.899  18.056  66.558  1.00  0.00    -0.360 S  
HETATM    4  O   UNL     1      -9.220  19.137  65.881  1.00  0.00    -0.436 OA 
HETATM    5  O   UNL     1     -10.822  18.288  67.647  1.00  0.00    -0.396 OA 
BRANCH   3   6
HETATM    6  N   UNL     1      -8.721  16.978  67.102  1.00  0.00    -0.205 N  
HETATM    7  C   UNL     1      -7.310  16.909  66.624  1.00  0.00    -0.263 C  
HETATM    8  C   UNL     1      -6.894  16.226  67.969  1.00  0.00    -0.131 C  
HETATM    9  C   UNL     1      -8.235  16.828  68.503  1.00  0.00    -0.242 C  
BRANCH   8  10
HETATM   10  C   UNL     1      -5.574  16.658  68.592  1.00  0.00    -0.119 C  
BRANCH  10  11
HETATM   11  C   UNL     1      -5.597  18.119  69.010  1.00  0.00    -0.194 C  
HETATM   12  H1  UNL     1      -5.633  20.312  69.637  1.00  0.00     0.000 HD 
HETATM   13  N   UNL     1      -5.616  19.332  69.356  1.00  0.00    -0.212 NA 
HETATM   14  H2  UNL     1      -5.080  19.972  68.771  1.00  0.00     0.000 HD 
ENDBRANCH  10  11
ENDBRANCH   8  10
BRANCH   8  15
HETATM   15  N   UNL     1      -6.924  14.781  67.793  1.00  0.00    -0.159 NA 
HETATM   16  N   UNL     1      -5.786  14.099  67.535  1.00  0.00    -0.354 NA 
HETATM   17  C   UNL     1      -8.026  13.967  67.812  1.00  0.00    -0.171 A  
HETATM   18  C   UNL     1      -6.190  12.837  67.386  1.00  0.00    -0.129 A  
HETATM   19  C   UNL     1      -7.580  12.692  67.540  1.00  0.00    -0.160 A  
BRANCH  19  20
HETATM   20  C   UNL     1      -8.427  11.530  67.488  1.00  0.00    -0.143 A  
HETATM   21  C   UNL     1      -9.769  11.586  67.865  1.00  0.00    -0.187 A  
HETATM   22  C   UNL     1     -10.673  12.537  68.420  1.00  0.00    -0.259 A  
HETATM   23  C   UNL     1     -11.907  11.931  68.523  1.00  0.00    -0.297 A  
HETATM   24  N   UNL     1     -11.780  10.642  68.074  1.00  0.00    -0.747 NA 
HETATM   25  H   UNL     1     -12.534   9.956  68.033  1.00  0.00     0.000 HD 
HETATM   26  C   UNL     1     -10.486  10.414  67.690  1.00  0.00    -0.233 A  
HETATM   27  N   UNL     1     -10.024   9.245  67.221  1.00  0.00    -0.192 NA 
HETATM   28  C   UNL     1      -8.715   9.310  66.924  1.00  0.00    -0.127 A  
HETATM   29  N   UNL     1      -7.894  10.371  67.033  1.00  0.00    -0.110 NA 
ENDBRANCH  19  20
ENDBRANCH   8  15
ENDBRANCH   3   6
ENDBRANCH   2   3
TORSDOF 6
ENDMDL
MODEL      164
REMARK 921   NORMALIZED FREE ENERGY PREDICTED BY IDOCK:   -4.61 KCAL/MOL
REMARK 922        TOTAL FREE ENERGY PREDICTED BY IDOCK:   -6.74 KCAL/MOL
REMARK 923 INTER-LIGAND FREE ENERGY PREDICTED BY IDOCK:   -6.24 KCAL/MOL
REMARK 924 INTRA-LIGAND FREE ENERGY PREDICTED BY IDOCK:   -0.49 KCAL/MOL
REMARK 927      BINDING AFFINITY PREDICTED BY RF-SCORE:    0.00 PKD
ROOT
HETATM    1  C   UNL     1      -6.589   9.477  65.062  1.00  0.00    -0.088 C  
HETATM    2  C   UNL     1      -5.669   8.518  65.789  1.00  0.00    -0.043 C  
ENDROOT
BRANCH   2   3
HETATM    3  S   UNL     1      -6.416   6.911  65.990  1.00  0.00    -0.052 S  
HETATM    4  O   UNL     1      -6.850   6.432  64.698  1.00  0.00    -0.041 OA 
HETATM    5  O   UNL     1      -5.582   6.117  66.866  1.00  0.00    -0.009 OA 
BRANCH   3   6
HETATM    6  N   UNL     1      -7.794   7.354  66.856  1.00  0.00    -0.112 N  
HETATM    7  C   UNL     1      -9.187   7.397  66.323  1.00  0.00    -0.135 C  
HETATM    8  C   UNL     1      -9.741   7.246  67.779  1.00  0.00    -0.140 C  
HETATM    9  C   UNL     1      -8.309   6.709  68.098  1.00  0.00    -0.117 C  
BRANCH   8  10
HETATM   10  C   UNL     1     -10.948   6.338  67.975  1.00  0.00    -0.418 C  
BRANCH  10  11
HETATM   11  C   UNL     1     -11.602   6.554  69.331  1.00  0.00    -0.180 C  
HETATM   12  H1  UNL     1     -12.584   6.878  71.364  1.00  0.00     0.000 HD 
HETATM   13  N   UNL     1     -12.145   6.733  70.455  1.00  0.00    -0.589 NA 
HETATM   14  H2  UNL     1     -13.146   6.539  70.504  1.00  0.00     0.000 HD 
ENDBRANCH  10  11
ENDBRANCH   8  10
BRANCH   8  15
HETATM   15  N   UNL     1     -10.010   8.571  68.320  1.00  0.00    -0.177 NA 
HETATM   16  N   UNL     1      -9.771   8.839  69.624  1.00  0.00    -0.170 NA 
HETATM   17  C   UNL     1     -10.547   9.643  67.658  1.00  0.00    -0.275 A  
HETATM   18  C   UNL     1     -10.172  10.102  69.774  1.00  0.00    -0.247 A  
HETATM   19  C   UNL     1     -10.674  10.656  68.583  1.00  0.00    -0.239 A  
BRANCH  19  20
HETATM   20  C   UNL     1     -11.182  11.969  68.286  1.00  0.00    -0.261 A  
HETATM   21  C   UNL     1     -11.786  12.758  69.265  1.00  0.00    -0.376 A  
HETATM   22  C   UNL     1     -12.170  12.639  70.632  1.00  0.00    -0.373 A  
HETATM   23  C   UNL     1     -12.717  13.843  71.019  1.00  0.00    -0.357 A  
HETATM   24  N   UNL     1     -12.701  14.680  69.934  1.00  0.00    -0.569 NA 
HETATM   25  H   UNL     1     -13.042  15.641  69.928  1.00  0.00     0.000 HD 
HETATM   26  C   UNL     1     -12.156  14.030  68.860  1.00  0.00    -0.316 A  
HETATM   27  N   UNL     1     -12.013  14.564  67.638  1.00  0.00    -0.359 NA 
HETATM   28  C   UNL     1     -11.449  13.697  66.779  1.00  0.00    -0.346 A  
HETATM   29  N   UNL     1     -11.034  12.441  67.025  1.00  0.00    -0.250 NA 
ENDBRANCH  19  20
ENDBRANCH   8  15
ENDBRANCH   3   6
ENDBRANCH   2   3
TORSDOF 6
ENDMDL
MODEL      165
REMARK 921   NORMALIZED FREE ENERGY PREDICTED BY IDOCK:   -4.59 KCAL/MOL
REMARK 922        TOTAL FREE ENERGY PREDICTED BY IDOCK:   -6.71 KCAL/MOL
REMARK 923 INTER-LIGAND FREE ENERGY PREDICTED BY IDOCK:   -6.64 KCAL/MOL
REMARK 924 INTRA-LIGAND FREE ENERGY PREDICTED BY IDOCK:   -0.07 KCAL/MOL
REMARK 927      BINDING AFFINITY PREDICTED BY RF-SCORE:    0.00 PKD
ROOT
HETATM    1  C   UNL     1      -6.940  11.168  69.599  1.00  0.00    -0.088 C  
HETATM    2  C   UNL     1      -6.141  10.258  70.509  1.00  0.00    -0.114 C  
ENDROOT
BRANCH   2   3
HETATM    3  S   UNL     1      -7.017   8.744  70.864  1.00  0.00    -0.081 S  
HETATM    4  O   UNL     1      -6.061   7.669  70.987  1.00  0.00    -0.035 OA 
HETATM    5  O   UNL     1      -8.012   9.010  71.879  1.00  0.00    -0.348 OA 
BRANCH   3   6
HETATM    6  N   UNL     1      -7.822   8.542  69.395  1.00  0.00    -0.096 N  
HETATM    7  C   UNL     1      -7.209   8.077  68.117  1.00  0.00    -0.094 C  
HETATM    8  C   UNL     1      -8.617   7.606  67.621  1.00  0.00    -0.116 C  
HETATM    9  C   UNL     1      -8.989   7.650  69.138  1.00  0.00    -0.135 C  
BRANCH   8  10
HETATM   10  C   UNL     1      -8.684   6.285  66.866  1.00  0.00    -0.113 C  
BRANCH  10  11
HETATM   11  C   UNL     1     -10.107   5.941  66.457  1.00  0.00    -0.156 C  
HETATM   12  H1  UNL     1     -12.242   5.424  65.844  1.00  0.00     0.000 HD 
HETATM   13  N   UNL     1     -11.287   5.655  66.118  1.00  0.00    -0.629 NA 
HETATM   14  H2  UNL     1     -11.787   6.372  65.590  1.00  0.00     0.000 HD 
ENDBRANCH  10  11
ENDBRANCH   8  10
BRANCH   8  15
HETATM   15  N   UNL     1      -9.220   8.672  66.833  1.00  0.00    -0.151 NA 
HETATM   16  N   UNL     1      -9.109   8.674  65.486  1.00  0.00    -0.171 NA 
HETATM   17  C   UNL     1      -9.894   9.768  67.303  1.00  0.00    -0.181 A  
HETATM   18  C   UNL     1      -9.722   9.797  65.112  1.00  0.00    -0.268 A  
HETATM   19  C   UNL     1     -10.226  10.528  66.203  1.00  0.00    -0.299 A  
BRANCH  19  20
HETATM   20  C   UNL     1     -10.965  11.762  66.261  1.00  0.00    -0.300 A  
HETATM   21  C   UNL     1     -11.460  12.372  65.107  1.00  0.00    -0.379 A  
HETATM   22  C   UNL     1     -11.405  12.172  63.698  1.00  0.00    -0.545 A  
HETATM   23  C   UNL     1     -12.161  13.161  63.105  1.00  0.00    -0.196 A  
HETATM   24  N   UNL     1     -12.652  13.966  64.100  1.00  0.00    -0.684 NA 
HETATM   25  H   UNL     1     -13.249  14.781  63.956  1.00  0.00     0.000 HD 
HETATM   26  C   UNL     1     -12.221  13.510  65.316  1.00  0.00    -0.441 A  
HETATM   27  N   UNL     1     -12.508  14.087  66.493  1.00  0.00    -0.402 NA 
HETATM   28  C   UNL     1     -11.950  13.426  67.521  1.00  0.00    -0.339 A  
HETATM   29  N   UNL     1     -11.197  12.311  67.477  1.00  0.00    -0.278 NA 
ENDBRANCH  19  20
ENDBRANCH   8  15
ENDBRANCH   3   6
ENDBRANCH   2   3
TORSDOF 6
ENDMDL
MODEL      166
REMARK 921   NORMALIZED FREE ENERGY PREDICTED BY IDOCK:   -4.58 KCAL/MOL
REMARK 922        TOTAL FREE ENERGY PREDICTED BY IDOCK:   -6.70 KCAL/MOL
REMARK 923 INTER-LIGAND FREE ENERGY PREDICTED BY IDOCK:   -5.95 KCAL/MOL
REMARK 924 INTRA-LIGAND FREE ENERGY PREDICTED BY IDOCK:   -0.75 KCAL/MOL
REMARK 927      BINDING AFFINITY PREDICTED BY RF-SCORE:    0.00 PKD
ROOT
HETATM    1  C   UNL     1     -11.780  15.835  70.834  1.00  0.00    -0.441 C  
HETATM    2  C   UNL     1     -12.034  14.699  69.865  1.00  0.00    -0.329 C  
ENDROOT
BRANCH   2   3
HETATM    3  S   UNL     1     -11.227  14.976  68.297  1.00  0.00    -0.313 S  
HETATM    4  O   UNL     1     -12.133  14.608  67.234  1.00  0.00    -0.358 OA 
HETATM    5  O   UNL     1     -10.567  16.263  68.336  1.00  0.00    -0.271 OA 
BRANCH   3   6
HETATM    6  N   UNL     1     -10.037  13.785  68.386  1.00  0.00    -0.238 N  
HETATM    7  C   UNL     1      -9.447  13.049  67.230  1.00  0.00    -0.224 C  
HETATM    8  C   UNL     1      -8.171  12.744  68.084  1.00  0.00    -0.167 C  
HETATM    9  C   UNL     1      -8.671  13.935  68.964  1.00  0.00     0.222 C  
BRANCH   8  10
HETATM   10  C   UNL     1      -6.823  12.839  67.383  1.00  0.00    -0.137 C  
BRANCH  10  11
HETATM   11  C   UNL     1      -6.178  14.201  67.580  1.00  0.00    -0.085 C  
HETATM   12  H1  UNL     1      -5.211  16.245  67.876  1.00  0.00     0.000 HD 
HETATM   13  N   UNL     1      -5.644  15.332  67.744  1.00  0.00    -0.245 NA 
HETATM   14  H2  UNL     1      -6.180  16.133  67.408  1.00  0.00     0.000 HD 
ENDBRANCH  10  11
ENDBRANCH   8  10
BRANCH   8  15
HETATM   15  N   UNL     1      -8.325  11.440  68.713  1.00  0.00    -0.132 NA 
HETATM   16  N   UNL     1      -7.341  10.933  69.489  1.00  0.00    -0.122 NA 
HETATM   17  C   UNL     1      -9.383  10.578  68.585  1.00  0.00    -0.172 A  
HETATM   18  C   UNL     1      -7.795   9.731  69.846  1.00  0.00    -0.161 A  
HETATM   19  C   UNL     1      -9.062   9.449  69.306  1.00  0.00    -0.152 A  
BRANCH  19  20
HETATM   20  C   UNL     1      -9.922   8.304  69.446  1.00  0.00    -0.188 A  
HETATM   21  C   UNL     1     -10.816   8.188  70.512  1.00  0.00    -0.247 A  
HETATM   22  C   UNL     1     -11.147   8.905  71.698  1.00  0.00    -0.420 A  
HETATM   23  C   UNL     1     -12.177   8.233  72.319  1.00  0.00    -0.370 A  
HETATM   24  N   UNL     1     -12.467   7.123  71.568  1.00  0.00    -0.363 NA 
HETATM   25  H   UNL     1     -13.192   6.439  71.786  1.00  0.00     0.000 HD 
HETATM   26  C   UNL     1     -11.638   7.074  70.480  1.00  0.00    -0.319 A  
HETATM   27  N   UNL     1     -11.650   6.102  69.556  1.00  0.00    -0.266 NA 
HETATM   28  C   UNL     1     -10.725   6.312  68.602  1.00  0.00    -0.298 A  
HETATM   29  N   UNL     1      -9.866   7.342  68.495  1.00  0.00    -0.153 NA 
ENDBRANCH  19  20
ENDBRANCH   8  15
ENDBRANCH   3   6
ENDBRANCH   2   3
TORSDOF 6
ENDMDL
MODEL      167
REMARK 921   NORMALIZED FREE ENERGY PREDICTED BY IDOCK:   -4.57 KCAL/MOL
REMARK 922        TOTAL FREE ENERGY PREDICTED BY IDOCK:   -6.68 KCAL/MOL
REMARK 923 INTER-LIGAND FREE ENERGY PREDICTED BY IDOCK:   -6.77 KCAL/MOL
REMARK 924 INTRA-LIGAND FREE ENERGY PREDICTED BY IDOCK:    0.09 KCAL/MOL
REMARK 927      BINDING AFFINITY PREDICTED BY RF-SCORE:    0.00 PKD
ROOT
HETATM    1  C   UNL     1      -8.257   4.333  73.663  1.00  0.00    -0.093 C  
HETATM    2  C   UNL     1      -8.048   5.048  72.345  1.00  0.00    -0.109 C  
ENDROOT
BRANCH   2   3
HETATM    3  S   UNL     1      -8.981   4.289  71.027  1.00  0.00    -0.123 S  
HETATM    4  O   UNL     1      -8.065   3.622  70.130  1.00  0.00    -0.047 OA 
HETATM    5  O   UNL     1     -10.128   3.616  71.597  1.00  0.00    -0.157 OA 
BRANCH   3   6
HETATM    6  N   UNL     1      -9.535   5.677  70.246  1.00  0.00    -0.157 N  
HETATM    7  C   UNL     1      -8.760   6.505  69.276  1.00  0.00    -0.130 C  
HETATM    8  C   UNL     1     -10.101   7.039  68.671  1.00  0.00    -0.166 C  
HETATM    9  C   UNL     1     -10.726   5.780  69.354  1.00  0.00    -0.326 C  
BRANCH   8  10
HETATM   10  C   UNL     1     -10.173   7.190  67.158  1.00  0.00    -0.327 C  
BRANCH  10  11
HETATM   11  C   UNL     1     -10.778   5.962  66.497  1.00  0.00    -0.181 C  
HETATM   12  H1  UNL     1     -11.687   4.120  65.504  1.00  0.00     0.000 HD 
HETATM   13  N   UNL     1     -11.281   4.944  65.948  1.00  0.00    -0.815 NA 
HETATM   14  H2  UNL     1     -12.284   4.811  66.085  1.00  0.00     0.000 HD 
ENDBRANCH  10  11
ENDBRANCH   8  10
BRANCH   8  15
HETATM   15  N   UNL     1     -10.445   8.296  69.323  1.00  0.00    -0.219 NA 
HETATM   16  N   UNL     1     -10.540   8.364  70.670  1.00  0.00    -0.204 NA 
HETATM   17  C   UNL     1     -10.748   9.487  68.718  1.00  0.00    -0.190 A  
HETATM   18  C   UNL     1     -10.912   9.623  70.905  1.00  0.00    -0.342 A  
HETATM   19  C   UNL     1     -11.067  10.371  69.725  1.00  0.00    -0.352 A  
BRANCH  19  20
HETATM   20  C   UNL     1     -11.426  11.748  69.512  1.00  0.00    -0.295 A  
HETATM   21  C   UNL     1     -11.429  12.314  68.236  1.00  0.00    -0.367 A  
HETATM   22  C   UNL     1     -11.082  11.932  66.909  1.00  0.00    -0.356 A  
HETATM   23  C   UNL     1     -11.361  12.997  66.080  1.00  0.00    -0.310 A  
HETATM   24  N   UNL     1     -11.842  14.018  66.857  1.00  0.00    -0.408 NA 
HETATM   25  H   UNL     1     -12.134  14.933  66.512  1.00  0.00     0.000 HD 
HETATM   26  C   UNL     1     -11.871  13.625  68.168  1.00  0.00    -0.372 A  
HETATM   27  N   UNL     1     -12.272  14.398  69.188  1.00  0.00    -0.269 NA 
HETATM   28  C   UNL     1     -12.193  13.752  70.363  1.00  0.00    -0.363 A  
HETATM   29  N   UNL     1     -11.793  12.486  70.587  1.00  0.00    -0.096 NA 
ENDBRANCH  19  20
ENDBRANCH   8  15
ENDBRANCH   3   6
ENDBRANCH   2   3
TORSDOF 6
ENDMDL
MODEL      168
REMARK 921   NORMALIZED FREE ENERGY PREDICTED BY IDOCK:   -4.55 KCAL/MOL
REMARK 922        TOTAL FREE ENERGY PREDICTED BY IDOCK:   -6.65 KCAL/MOL
REMARK 923 INTER-LIGAND FREE ENERGY PREDICTED BY IDOCK:   -6.37 KCAL/MOL
REMARK 924 INTRA-LIGAND FREE ENERGY PREDICTED BY IDOCK:   -0.28 KCAL/MOL
REMARK 927      BINDING AFFINITY PREDICTED BY RF-SCORE:    0.00 PKD
ROOT
HETATM    1  C   UNL     1      -9.802   8.398  72.394  1.00  0.00    -0.378 C  
HETATM    2  C   UNL     1     -11.012   8.217  71.502  1.00  0.00    -0.254 C  
ENDROOT
BRANCH   2   3
HETATM    3  S   UNL     1     -10.791   6.869  70.354  1.00  0.00    -0.276 S  
HETATM    4  O   UNL     1      -9.901   5.896  70.943  1.00  0.00    -0.172 OA 
HETATM    5  O   UNL     1     -12.082   6.504  69.812  1.00  0.00    -0.167 OA 
BRANCH   3   6
HETATM    6  N   UNL     1      -9.935   7.675  69.145  1.00  0.00    -0.176 N  
HETATM    7  C   UNL     1      -8.833   8.657  69.359  1.00  0.00    -0.144 C  
HETATM    8  C   UNL     1      -8.293   8.356  67.922  1.00  0.00    -0.131 C  
HETATM    9  C   UNL     1      -9.138   7.047  68.052  1.00  0.00    -0.127 C  
BRANCH   8  10
HETATM   10  C   UNL     1      -6.783   8.264  67.748  1.00  0.00    -0.066 C  
BRANCH  10  11
HETATM   11  C   UNL     1      -6.118   7.590  68.937  1.00  0.00    -0.031 C  
HETATM   12  H1  UNL     1      -5.120   6.578  70.721  1.00  0.00     0.000 HD 
HETATM   13  N   UNL     1      -5.566   7.031  69.923  1.00  0.00    -0.022 NA 
HETATM   14  H2  UNL     1      -4.885   7.594  70.433  1.00  0.00     0.000 HD 
ENDBRANCH  10  11
ENDBRANCH   8  10
BRANCH   8  15
HETATM   15  N   UNL     1      -8.853   9.329  66.994  1.00  0.00    -0.123 NA 
HETATM   16  N   UNL     1      -9.262   8.946  65.764  1.00  0.00    -0.223 NA 
HETATM   17  C   UNL     1      -8.992  10.677  67.193  1.00  0.00    -0.136 A  
HETATM   18  C   UNL     1      -9.660  10.080  65.186  1.00  0.00    -0.291 A  
HETATM   19  C   UNL     1      -9.507  11.198  66.026  1.00  0.00    -0.234 A  
BRANCH  19  20
HETATM   20  C   UNL     1      -9.824  12.587  65.827  1.00  0.00    -0.234 A  
HETATM   21  C   UNL     1     -10.750  12.994  64.865  1.00  0.00    -0.349 A  
HETATM   22  C   UNL     1     -11.537  12.402  63.837  1.00  0.00    -0.518 A  
HETATM   23  C   UNL     1     -12.282  13.403  63.250  1.00  0.00    -0.243 A  
HETATM   24  N   UNL     1     -11.959  14.583  63.868  1.00  0.00    -0.815 NA 
HETATM   25  H   UNL     1     -12.358  15.494  63.642  1.00  0.00     0.000 HD 
HETATM   26  C   UNL     1     -11.019  14.353  64.836  1.00  0.00    -0.406 A  
HETATM   27  N   UNL     1     -10.475  15.303  65.612  1.00  0.00    -0.331 NA 
HETATM   28  C   UNL     1      -9.579  14.789  66.472  1.00  0.00    -0.284 A  
HETATM   29  N   UNL     1      -9.220  13.501  66.622  1.00  0.00    -0.238 NA 
ENDBRANCH  19  20
ENDBRANCH   8  15
ENDBRANCH   3   6
ENDBRANCH   2   3
TORSDOF 6
ENDMDL
MODEL      169
REMARK 921   NORMALIZED FREE ENERGY PREDICTED BY IDOCK:   -4.54 KCAL/MOL
REMARK 922        TOTAL FREE ENERGY PREDICTED BY IDOCK:   -6.64 KCAL/MOL
REMARK 923 INTER-LIGAND FREE ENERGY PREDICTED BY IDOCK:   -5.81 KCAL/MOL
REMARK 924 INTRA-LIGAND FREE ENERGY PREDICTED BY IDOCK:   -0.83 KCAL/MOL
REMARK 927      BINDING AFFINITY PREDICTED BY RF-SCORE:    0.00 PKD
ROOT
HETATM    1  C   UNL     1      -7.440  10.986  62.420  1.00  0.00    -0.042 C  
HETATM    2  C   UNL     1      -6.953   9.954  63.416  1.00  0.00    -0.124 C  
ENDROOT
BRANCH   2   3
HETATM    3  S   UNL     1      -8.195   8.715  63.743  1.00  0.00    -0.109 S  
HETATM    4  O   UNL     1      -9.251   8.842  62.766  1.00  0.00     0.123 OA 
HETATM    5  O   UNL     1      -7.536   7.454  64.005  1.00  0.00    -0.085 OA 
BRANCH   3   6
HETATM    6  N   UNL     1      -8.788   9.300  65.210  1.00  0.00    -0.186 N  
HETATM    7  C   UNL     1      -9.806   8.631  66.072  1.00  0.00    -0.113 C  
HETATM    8  C   UNL     1      -9.264   9.420  67.311  1.00  0.00    -0.130 C  
HETATM    9  C   UNL     1      -7.989   9.615  66.429  1.00  0.00    -0.108 C  
BRANCH   8  10
HETATM   10  C   UNL     1      -9.162   8.664  68.629  1.00  0.00    -0.138 C  
BRANCH  10  11
HETATM   11  C   UNL     1     -10.267   7.630  68.773  1.00  0.00    -0.199 C  
HETATM   12  H1  UNL     1     -11.924   6.078  68.990  1.00  0.00     0.000 HD 
HETATM   13  N   UNL     1     -11.183   6.772  68.893  1.00  0.00    -0.531 NA 
HETATM   14  H2  UNL     1     -12.091   7.127  69.197  1.00  0.00     0.000 HD 
ENDBRANCH  10  11
ENDBRANCH   8  10
BRANCH   8  15
HETATM   15  N   UNL     1     -10.055  10.632  67.481  1.00  0.00    -0.178 NA 
HETATM   16  N   UNL     1     -11.393  10.609  67.285  1.00  0.00    -0.379 NA 
HETATM   17  C   UNL     1      -9.595  11.884  67.790  1.00  0.00    -0.190 A  
HETATM   18  C   UNL     1     -11.770  11.874  67.473  1.00  0.00    -0.265 A  
HETATM   19  C   UNL     1     -10.690  12.720  67.783  1.00  0.00    -0.237 A  
BRANCH  19  20
HETATM   20  C   UNL     1     -10.640  14.126  68.082  1.00  0.00    -0.246 A  
HETATM   21  C   UNL     1     -11.300  14.661  69.190  1.00  0.00    -0.305 A  
HETATM   22  C   UNL     1     -12.176  14.212  70.219  1.00  0.00    -0.416 A  
HETATM   23  C   UNL     1     -12.445  15.286  71.040  1.00  0.00    -0.384 A  
HETATM   24  N   UNL     1     -11.784  16.375  70.534  1.00  0.00    -0.456 NA 
HETATM   25  H   UNL     1     -11.798  17.312  70.939  1.00  0.00     0.000 HD 
HETATM   26  C   UNL     1     -11.101  16.016  69.404  1.00  0.00    -0.331 A  
HETATM   27  N   UNL     1     -10.368  16.854  68.656  1.00  0.00    -0.309 NA 
HETATM   28  C   UNL     1      -9.812  16.227  67.605  1.00  0.00    -0.238 A  
HETATM   29  N   UNL     1      -9.907  14.927  67.273  1.00  0.00    -0.228 NA 
ENDBRANCH  19  20
ENDBRANCH   8  15
ENDBRANCH   3   6
ENDBRANCH   2   3
TORSDOF 6
ENDMDL
MODEL      170
REMARK 921   NORMALIZED FREE ENERGY PREDICTED BY IDOCK:   -4.51 KCAL/MOL
REMARK 922        TOTAL FREE ENERGY PREDICTED BY IDOCK:   -6.61 KCAL/MOL
REMARK 923 INTER-LIGAND FREE ENERGY PREDICTED BY IDOCK:   -5.85 KCAL/MOL
REMARK 924 INTRA-LIGAND FREE ENERGY PREDICTED BY IDOCK:   -0.75 KCAL/MOL
REMARK 927      BINDING AFFINITY PREDICTED BY RF-SCORE:    0.00 PKD
ROOT
HETATM    1  C   UNL     1     -14.411  15.450  72.138  1.00  0.00    -0.642 C  
HETATM    2  C   UNL     1     -13.458  15.305  70.970  1.00  0.00    -0.452 C  
ENDROOT
BRANCH   2   3
HETATM    3  S   UNL     1     -11.962  14.453  71.440  1.00  0.00    -0.171 S  
HETATM    4  O   UNL     1     -11.159  15.335  72.255  1.00  0.00    -0.332 OA 
HETATM    5  O   UNL     1     -12.304  13.112  71.862  1.00  0.00     0.039 OA 
BRANCH   3   6
HETATM    6  N   UNL     1     -11.221  14.343  69.929  1.00  0.00    -0.218 N  
HETATM    7  C   UNL     1     -11.827  14.745  68.626  1.00  0.00    -0.300 C  
HETATM    8  C   UNL     1     -10.394  14.917  68.020  1.00  0.00    -0.244 C  
HETATM    9  C   UNL     1      -9.945  14.995  69.516  1.00  0.00    -0.142 C  
BRANCH   8  10
HETATM   10  C   UNL     1     -10.163  16.109  67.101  1.00  0.00    -0.281 C  
BRANCH  10  11
HETATM   11  C   UNL     1     -10.477  17.425  67.794  1.00  0.00    -0.376 C  
HETATM   12  H1  UNL     1     -10.947  19.400  68.834  1.00  0.00     0.000 HD 
HETATM   13  N   UNL     1     -10.737  18.517  68.369  1.00  0.00    -0.300 NA 
HETATM   14  H2  UNL     1     -11.102  18.446  69.320  1.00  0.00     0.000 HD 
ENDBRANCH  10  11
ENDBRANCH   8  10
BRANCH   8  15
HETATM   15  N   UNL     1     -10.013  13.680  67.353  1.00  0.00    -0.231 NA 
HETATM   16  N   UNL     1     -10.546  13.357  66.153  1.00  0.00    -0.289 NA 
HETATM   17  C   UNL     1      -9.164  12.713  67.824  1.00  0.00    -0.195 A  
HETATM   18  C   UNL     1     -10.020  12.163  65.875  1.00  0.00    -0.245 A  
HETATM   19  C   UNL     1      -9.157  11.704  66.885  1.00  0.00    -0.188 A  
BRANCH  19  20
HETATM   20  C   UNL     1      -8.369  10.504  66.990  1.00  0.00    -0.128 A  
HETATM   21  C   UNL     1      -8.965   9.246  67.099  1.00  0.00    -0.141 A  
HETATM   22  C   UNL     1     -10.276   8.704  67.223  1.00  0.00    -0.337 A  
HETATM   23  C   UNL     1     -10.159   7.331  67.263  1.00  0.00    -0.225 A  
HETATM   24  N   UNL     1      -8.826   7.022  67.192  1.00  0.00    -0.119 NA 
HETATM   25  H   UNL     1      -8.440   6.077  67.198  1.00  0.00     0.000 HD 
HETATM   26  C   UNL     1      -8.090   8.173  67.111  1.00  0.00    -0.116 A  
HETATM   27  N   UNL     1      -6.751   8.219  67.049  1.00  0.00    -0.061 NA 
HETATM   28  C   UNL     1      -6.299   9.483  66.978  1.00  0.00    -0.066 A  
HETATM   29  N   UNL     1      -7.020  10.619  66.950  1.00  0.00    -0.094 NA 
ENDBRANCH  19  20
ENDBRANCH   8  15
ENDBRANCH   3   6
ENDBRANCH   2   3
TORSDOF 6
ENDMDL
MODEL      171
REMARK 921   NORMALIZED FREE ENERGY PREDICTED BY IDOCK:   -4.49 KCAL/MOL
REMARK 922        TOTAL FREE ENERGY PREDICTED BY IDOCK:   -6.57 KCAL/MOL
REMARK 923 INTER-LIGAND FREE ENERGY PREDICTED BY IDOCK:   -5.75 KCAL/MOL
REMARK 924 INTRA-LIGAND FREE ENERGY PREDICTED BY IDOCK:   -0.82 KCAL/MOL
REMARK 927      BINDING AFFINITY PREDICTED BY RF-SCORE:    0.00 PKD
ROOT
HETATM    1  C   UNL     1     -10.990  15.214  66.132  1.00  0.00    -0.331 C  
HETATM    2  C   UNL     1     -10.480  16.513  65.544  1.00  0.00    -0.301 C  
ENDROOT
BRANCH   2   3
HETATM    3  S   UNL     1      -9.573  17.471  66.746  1.00  0.00    -0.294 S  
HETATM    4  O   UNL     1      -8.738  18.423  66.051  1.00  0.00    -0.499 OA 
HETATM    5  O   UNL     1     -10.477  17.866  67.804  1.00  0.00    -0.371 OA 
BRANCH   3   6
HETATM    6  N   UNL     1      -8.565  16.263  67.356  1.00  0.00    -0.175 N  
HETATM    7  C   UNL     1      -7.079  16.214  67.226  1.00  0.00    -0.196 C  
HETATM    8  C   UNL     1      -7.006  15.291  68.488  1.00  0.00    -0.113 C  
HETATM    9  C   UNL     1      -8.435  15.851  68.783  1.00  0.00    -0.204 C  
BRANCH   8  10
HETATM   10  C   UNL     1      -5.877  15.548  69.476  1.00  0.00    -0.121 C  
BRANCH  10  11
HETATM   11  C   UNL     1      -5.942  14.604  70.666  1.00  0.00    -0.164 C  
HETATM   12  H1  UNL     1      -6.039  13.188  72.451  1.00  0.00     0.000 HD 
HETATM   13  N   UNL     1      -5.995  13.821  71.653  1.00  0.00    -0.565 NA 
HETATM   14  H2  UNL     1      -5.165  13.792  72.246  1.00  0.00     0.000 HD 
ENDBRANCH  10  11
ENDBRANCH   8  10
BRANCH   8  15
HETATM   15  N   UNL     1      -6.995  13.901  68.055  1.00  0.00    -0.122 NA 
HETATM   16  N   UNL     1      -5.921  13.395  67.407  1.00  0.00    -0.348 NA 
HETATM   17  C   UNL     1      -8.005  12.985  68.183  1.00  0.00    -0.154 A  
HETATM   18  C   UNL     1      -6.274  12.140  67.125  1.00  0.00    -0.143 A  
HETATM   19  C   UNL     1      -7.569  11.828  67.576  1.00  0.00    -0.135 A  
BRANCH  19  20
HETATM   20  C   UNL     1      -8.330  10.608  67.510  1.00  0.00    -0.115 A  
HETATM   21  C   UNL     1      -8.445   9.882  66.324  1.00  0.00    -0.133 A  
HETATM   22  C   UNL     1      -8.052  10.012  64.961  1.00  0.00    -0.145 A  
HETATM   23  C   UNL     1      -8.479   8.885  64.292  1.00  0.00    -0.149 A  
HETATM   24  N   UNL     1      -9.137   8.088  65.193  1.00  0.00    -0.361 NA 
HETATM   25  H   UNL     1      -9.560   7.184  64.979  1.00  0.00     0.000 HD 
HETATM   26  C   UNL     1      -9.140   8.688  66.423  1.00  0.00    -0.174 A  
HETATM   27  N   UNL     1      -9.720   8.177  67.519  1.00  0.00    -0.153 NA 
HETATM   28  C   UNL     1      -9.566   8.982  68.584  1.00  0.00    -0.153 A  
HETATM   29  N   UNL     1      -8.917  10.159  68.645  1.00  0.00    -0.130 NA 
ENDBRANCH  19  20
ENDBRANCH   8  15
ENDBRANCH   3   6
ENDBRANCH   2   3
TORSDOF 6
ENDMDL
MODEL      172
REMARK 921   NORMALIZED FREE ENERGY PREDICTED BY IDOCK:   -4.48 KCAL/MOL
REMARK 922        TOTAL FREE ENERGY PREDICTED BY IDOCK:   -6.57 KCAL/MOL
REMARK 923 INTER-LIGAND FREE ENERGY PREDICTED BY IDOCK:   -6.08 KCAL/MOL
REMARK 924 INTRA-LIGAND FREE ENERGY PREDICTED BY IDOCK:   -0.49 KCAL/MOL
REMARK 927      BINDING AFFINITY PREDICTED BY RF-SCORE:    0.00 PKD
ROOT
HETATM    1  C   UNL     1      -9.750  15.637  68.979  1.00  0.00    -0.241 C  
HETATM    2  C   UNL     1     -10.161  15.244  67.575  1.00  0.00    -0.239 C  
ENDROOT
BRANCH   2   3
HETATM    3  S   UNL     1     -11.631  14.232  67.576  1.00  0.00    -0.381 S  
HETATM    4  O   UNL     1     -12.270  14.338  68.867  1.00  0.00    -0.306 OA 
HETATM    5  O   UNL     1     -12.349  14.453  66.340  1.00  0.00    -0.409 OA 
BRANCH   3   6
HETATM    6  N   UNL     1     -10.914  12.707  67.488  1.00  0.00    -0.238 N  
HETATM    7  C   UNL     1     -11.526  11.485  66.890  1.00  0.00    -0.184 C  
HETATM    8  C   UNL     1     -10.098  10.885  66.670  1.00  0.00    -0.219 C  
HETATM    9  C   UNL     1      -9.626  12.368  66.817  1.00  0.00    -0.224 C  
BRANCH   8  10
HETATM   10  C   UNL     1      -9.847  10.141  65.366  1.00  0.00    -0.375 C  
BRANCH  10  11
HETATM   11  C   UNL     1      -9.501  11.091  64.231  1.00  0.00    -0.235 C  
HETATM   12  H1  UNL     1      -8.982  12.517  62.528  1.00  0.00     0.000 HD 
HETATM   13  N   UNL     1      -9.214  11.879  63.289  1.00  0.00    -0.649 NA 
HETATM   14  H2  UNL     1      -8.286  12.304  63.329  1.00  0.00     0.000 HD 
ENDBRANCH  10  11
ENDBRANCH   8  10
BRANCH   8  15
HETATM   15  N   UNL     1      -9.760  10.042  67.809  1.00  0.00    -0.148 NA 
HETATM   16  N   UNL     1      -8.919  10.492  68.767  1.00  0.00    -0.158 NA 
HETATM   17  C   UNL     1     -10.171   8.756  68.038  1.00  0.00    -0.213 A  
HETATM   18  C   UNL     1      -8.802   9.461  69.605  1.00  0.00    -0.172 A  
HETATM   19  C   UNL     1      -9.554   8.345  69.199  1.00  0.00    -0.164 A  
BRANCH  19  20
HETATM   20  C   UNL     1      -9.739   7.052  69.802  1.00  0.00    -0.168 A  
HETATM   21  C   UNL     1      -9.726   6.884  71.188  1.00  0.00    -0.177 A  
HETATM   22  C   UNL     1      -9.494   7.677  72.348  1.00  0.00    -0.217 A  
HETATM   23  C   UNL     1      -9.669   6.868  73.450  1.00  0.00    -0.200 A  
HETATM   24  N   UNL     1      -9.976   5.610  73.002  1.00  0.00    -0.170 NA 
HETATM   25  H   UNL     1     -10.162   4.803  73.598  1.00  0.00     0.000 HD 
HETATM   26  C   UNL     1      -9.996   5.600  71.634  1.00  0.00    -0.174 A  
HETATM   27  N   UNL     1     -10.245   4.518  70.882  1.00  0.00    -0.155 NA 
HETATM   28  C   UNL     1     -10.197   4.802  69.569  1.00  0.00    -0.110 A  
HETATM   29  N   UNL     1      -9.956   5.991  68.988  1.00  0.00    -0.149 NA 
ENDBRANCH  19  20
ENDBRANCH   8  15
ENDBRANCH   3   6
ENDBRANCH   2   3
TORSDOF 6
ENDMDL
MODEL      173
REMARK 921   NORMALIZED FREE ENERGY PREDICTED BY IDOCK:   -4.48 KCAL/MOL
REMARK 922        TOTAL FREE ENERGY PREDICTED BY IDOCK:   -6.57 KCAL/MOL
REMARK 923 INTER-LIGAND FREE ENERGY PREDICTED BY IDOCK:   -6.29 KCAL/MOL
REMARK 924 INTRA-LIGAND FREE ENERGY PREDICTED BY IDOCK:   -0.27 KCAL/MOL
REMARK 927      BINDING AFFINITY PREDICTED BY RF-SCORE:    0.00 PKD
ROOT
HETATM    1  C   UNL     1      -8.447   8.153  66.474  1.00  0.00    -0.132 C  
HETATM    2  C   UNL     1      -8.087   8.374  65.019  1.00  0.00    -0.147 C  
ENDROOT
BRANCH   2   3
HETATM    3  S   UNL     1      -7.564  10.053  64.717  1.00  0.00    -0.141 S  
HETATM    4  O   UNL     1      -6.233  10.230  65.249  1.00  0.00    -0.110 OA 
HETATM    5  O   UNL     1      -7.903  10.408  63.356  1.00  0.00    -0.152 OA 
BRANCH   3   6
HETATM    6  N   UNL     1      -8.632  10.863  65.741  1.00  0.00    -0.180 N  
HETATM    7  C   UNL     1      -8.256  11.846  66.798  1.00  0.00    -0.129 C  
HETATM    8  C   UNL     1      -9.690  12.467  66.722  1.00  0.00    -0.223 C  
HETATM    9  C   UNL     1      -9.748  11.762  65.328  1.00  0.00    -0.211 C  
BRANCH   8  10
HETATM   10  C   UNL     1      -9.800  13.983  66.805  1.00  0.00    -0.275 C  
BRANCH  10  11
HETATM   11  C   UNL     1     -10.050  14.454  68.228  1.00  0.00    -0.239 C  
HETATM   12  H1  UNL     1     -10.424  15.161  70.365  1.00  0.00     0.000 HD 
HETATM   13  N   UNL     1     -10.257  14.846  69.409  1.00  0.00    -0.326 NA 
HETATM   14  H2  UNL     1     -10.208  15.854  69.561  1.00  0.00     0.000 HD 
ENDBRANCH  10  11
ENDBRANCH   8  10
BRANCH   8  15
HETATM   15  N   UNL     1     -10.529  11.841  67.736  1.00  0.00    -0.190 NA 
HETATM   16  N   UNL     1     -11.845  12.139  67.814  1.00  0.00    -0.514 NA 
HETATM   17  C   UNL     1     -10.133  10.967  68.713  1.00  0.00    -0.203 A  
HETATM   18  C   UNL     1     -12.274  11.438  68.864  1.00  0.00    -0.087 A  
HETATM   19  C   UNL     1     -11.249  10.693  69.473  1.00  0.00    -0.331 A  
BRANCH  19  20
HETATM   20  C   UNL     1     -11.266   9.794  70.596  1.00  0.00    -0.334 A  
HETATM   21  C   UNL     1     -10.094   9.218  71.089  1.00  0.00    -0.374 A  
HETATM   22  C   UNL     1      -8.711   9.179  70.750  1.00  0.00    -0.285 A  
HETATM   23  C   UNL     1      -8.068   8.417  71.702  1.00  0.00    -0.144 A  
HETATM   24  N   UNL     1      -9.012   7.974  72.592  1.00  0.00    -0.194 NA 
HETATM   25  H   UNL     1      -8.823   7.389  73.406  1.00  0.00     0.000 HD 
HETATM   26  C   UNL     1     -10.246   8.436  72.222  1.00  0.00    -0.326 A  
HETATM   27  N   UNL     1     -11.387   8.166  72.872  1.00  0.00    -0.339 NA 
HETATM   28  C   UNL     1     -12.445   8.751  72.284  1.00  0.00    -0.386 A  
HETATM   29  N   UNL     1     -12.455   9.537  71.192  1.00  0.00    -0.319 NA 
ENDBRANCH  19  20
ENDBRANCH   8  15
ENDBRANCH   3   6
ENDBRANCH   2   3
TORSDOF 6
ENDMDL
MODEL      174
REMARK 921   NORMALIZED FREE ENERGY PREDICTED BY IDOCK:   -4.46 KCAL/MOL
REMARK 922        TOTAL FREE ENERGY PREDICTED BY IDOCK:   -6.54 KCAL/MOL
REMARK 923 INTER-LIGAND FREE ENERGY PREDICTED BY IDOCK:   -5.95 KCAL/MOL
REMARK 924 INTRA-LIGAND FREE ENERGY PREDICTED BY IDOCK:   -0.59 KCAL/MOL
REMARK 927      BINDING AFFINITY PREDICTED BY RF-SCORE:    0.00 PKD
ROOT
HETATM    1  C   UNL     1      -8.774  10.947  62.705  1.00  0.00    -0.308 C  
HETATM    2  C   UNL     1      -9.069   9.557  63.229  1.00  0.00    -0.113 C  
ENDROOT
BRANCH   2   3
HETATM    3  S   UNL     1      -7.744   8.943  64.256  1.00  0.00    -0.129 S  
HETATM    4  O   UNL     1      -7.918   7.522  64.442  1.00  0.00    -0.135 OA 
HETATM    5  O   UNL     1      -6.497   9.513  63.794  1.00  0.00    -0.093 OA 
BRANCH   3   6
HETATM    6  N   UNL     1      -8.149   9.699  65.708  1.00  0.00    -0.111 N  
HETATM    7  C   UNL     1      -7.439  10.862  66.318  1.00  0.00    -0.129 C  
HETATM    8  C   UNL     1      -8.736  11.227  67.114  1.00  0.00    -0.151 C  
HETATM    9  C   UNL     1      -9.451  10.344  66.042  1.00  0.00    -0.185 C  
BRANCH   8  10
HETATM   10  C   UNL     1      -9.089  12.704  67.231  1.00  0.00    -0.191 C  
BRANCH  10  11
HETATM   11  C   UNL     1     -10.216  12.937  68.224  1.00  0.00    -0.245 C  
HETATM   12  H1  UNL     1     -11.908  13.287  69.714  1.00  0.00     0.000 HD 
HETATM   13  N   UNL     1     -11.151  13.131  69.048  1.00  0.00    -0.314 NA 
HETATM   14  H2  UNL     1     -10.881  13.163  70.032  1.00  0.00     0.000 HD 
ENDBRANCH  10  11
ENDBRANCH   8  10
BRANCH   8  15
HETATM   15  N   UNL     1      -8.667  10.615  68.434  1.00  0.00    -0.134 NA 
HETATM   16  N   UNL     1      -7.552  10.739  69.188  1.00  0.00    -0.124 NA 
HETATM   17  C   UNL     1      -9.623   9.844  69.039  1.00  0.00    -0.186 A  
HETATM   18  C   UNL     1      -7.821  10.026  70.283  1.00  0.00    -0.040 A  
HETATM   19  C   UNL     1      -9.096   9.436  70.245  1.00  0.00    -0.283 A  
BRANCH  19  20
HETATM   20  C   UNL     1      -9.796   8.620  71.202  1.00  0.00    -0.222 A  
HETATM   21  C   UNL     1     -11.056   8.977  71.684  1.00  0.00    -0.433 A  
HETATM   22  C   UNL     1     -11.964  10.068  71.564  1.00  0.00    -0.438 A  
HETATM   23  C   UNL     1     -13.084   9.764  72.308  1.00  0.00    -0.356 A  
HETATM   24  N   UNL     1     -12.879   8.541  72.894  1.00  0.00    -0.677 NA 
HETATM   25  H   UNL     1     -13.543   8.062  73.501  1.00  0.00     0.000 HD 
HETATM   26  C   UNL     1     -11.647   8.062  72.539  1.00  0.00    -0.403 A  
HETATM   27  N   UNL     1     -11.132   6.897  72.959  1.00  0.00    -0.259 NA 
HETATM   28  C   UNL     1      -9.906   6.683  72.452  1.00  0.00    -0.158 A  
HETATM   29  N   UNL     1      -9.210   7.470  71.611  1.00  0.00    -0.134 NA 
ENDBRANCH  19  20
ENDBRANCH   8  15
ENDBRANCH   3   6
ENDBRANCH   2   3
TORSDOF 6
ENDMDL
MODEL      175
REMARK 921   NORMALIZED FREE ENERGY PREDICTED BY IDOCK:   -4.44 KCAL/MOL
REMARK 922        TOTAL FREE ENERGY PREDICTED BY IDOCK:   -6.50 KCAL/MOL
REMARK 923 INTER-LIGAND FREE ENERGY PREDICTED BY IDOCK:   -5.80 KCAL/MOL
REMARK 924 INTRA-LIGAND FREE ENERGY PREDICTED BY IDOCK:   -0.70 KCAL/MOL
REMARK 927      BINDING AFFINITY PREDICTED BY RF-SCORE:    0.00 PKD
ROOT
HETATM    1  C   UNL     1      -7.426  15.697  69.292  1.00  0.00    -0.216 C  
HETATM    2  C   UNL     1      -8.486  16.760  69.094  1.00  0.00    -0.084 C  
ENDROOT
BRANCH   2   3
HETATM    3  S   UNL     1      -9.126  16.753  67.429  1.00  0.00    -0.218 S  
HETATM    4  O   UNL     1     -10.256  17.650  67.359  1.00  0.00    -0.319 OA 
HETATM    5  O   UNL     1      -8.018  16.836  66.504  1.00  0.00    -0.239 OA 
BRANCH   3   6
HETATM    6  N   UNL     1      -9.726  15.177  67.372  1.00  0.00    -0.209 N  
HETATM    7  C   UNL     1     -11.096  14.746  67.777  1.00  0.00    -0.299 C  
HETATM    8  C   UNL     1     -10.965  13.487  66.856  1.00  0.00    -0.288 C  
HETATM    9  C   UNL     1      -9.831  14.310  66.163  1.00  0.00    -0.316 C  
BRANCH   8  10
HETATM   10  C   UNL     1     -12.194  13.077  66.057  1.00  0.00    -0.463 C  
BRANCH  10  11
HETATM   11  C   UNL     1     -12.295  13.839  64.745  1.00  0.00    -0.386 C  
HETATM   12  H1  UNL     1     -12.447  14.982  62.777  1.00  0.00     0.000 HD 
HETATM   13  N   UNL     1     -12.379  14.470  63.657  1.00  0.00    -1.104 NA 
HETATM   14  H2  UNL     1     -12.299  13.910  62.808  1.00  0.00     0.000 HD 
ENDBRANCH  10  11
ENDBRANCH   8  10
BRANCH   8  15
HETATM   15  N   UNL     1     -10.481  12.369  67.653  1.00  0.00    -0.213 NA 
HETATM   16  N   UNL     1     -11.351  11.570  68.311  1.00  0.00    -0.259 NA 
HETATM   17  C   UNL     1      -9.177  12.016  67.879  1.00  0.00    -0.190 A  
HETATM   18  C   UNL     1     -10.570  10.706  68.961  1.00  0.00    -0.219 A  
HETATM   19  C   UNL     1      -9.202  10.939  68.738  1.00  0.00    -0.187 A  
BRANCH  19  20
HETATM   20  C   UNL     1      -8.030  10.249  69.209  1.00  0.00    -0.149 A  
HETATM   21  C   UNL     1      -7.181   9.570  68.334  1.00  0.00    -0.075 A  
HETATM   22  C   UNL     1      -7.131   9.243  66.949  1.00  0.00    -0.082 A  
HETATM   23  C   UNL     1      -5.962   8.547  66.725  1.00  0.00    -0.053 A  
HETATM   24  N   UNL     1      -5.314   8.419  67.926  1.00  0.00    -0.034 NA 
HETATM   25  H   UNL     1      -4.419   7.950  68.063  1.00  0.00     0.000 HD 
HETATM   26  C   UNL     1      -6.050   9.018  68.912  1.00  0.00    -0.044 A  
HETATM   27  N   UNL     1      -5.703   9.053  70.207  1.00  0.00    -0.033 NA 
HETATM   28  C   UNL     1      -6.614   9.706  70.949  1.00  0.00    -0.072 A  
HETATM   29  N   UNL     1      -7.750  10.296  70.533  1.00  0.00    -0.050 NA 
ENDBRANCH  19  20
ENDBRANCH   8  15
ENDBRANCH   3   6
ENDBRANCH   2   3
TORSDOF 6
ENDMDL
MODEL      176
REMARK 921   NORMALIZED FREE ENERGY PREDICTED BY IDOCK:   -4.42 KCAL/MOL
REMARK 922        TOTAL FREE ENERGY PREDICTED BY IDOCK:   -6.49 KCAL/MOL
REMARK 923 INTER-LIGAND FREE ENERGY PREDICTED BY IDOCK:   -5.66 KCAL/MOL
REMARK 924 INTRA-LIGAND FREE ENERGY PREDICTED BY IDOCK:   -0.83 KCAL/MOL
REMARK 927      BINDING AFFINITY PREDICTED BY RF-SCORE:    0.00 PKD
ROOT
HETATM    1  C   UNL     1      -7.007   8.449  72.182  1.00  0.00    -0.103 C  
HETATM    2  C   UNL     1      -7.690   7.704  71.054  1.00  0.00    -0.088 C  
ENDROOT
BRANCH   2   3
HETATM    3  S   UNL     1      -9.465   7.879  71.127  1.00  0.00    -0.160 S  
HETATM    4  O   UNL     1     -10.072   6.600  70.842  1.00  0.00    -0.187 OA 
HETATM    5  O   UNL     1      -9.808   8.649  72.302  1.00  0.00    -0.305 OA 
BRANCH   3   6
HETATM    6  N   UNL     1      -9.701   8.865  69.779  1.00  0.00    -0.171 N  
HETATM    7  C   UNL     1      -8.632   9.563  69.007  1.00  0.00    -0.133 C  
HETATM    8  C   UNL     1      -9.577   9.618  67.761  1.00  0.00    -0.139 C  
HETATM    9  C   UNL     1     -10.347   8.472  68.494  1.00  0.00    -0.198 C  
BRANCH   8  10
HETATM   10  C   UNL     1      -8.951   9.354  66.398  1.00  0.00    -0.182 C  
BRANCH  10  11
HETATM   11  C   UNL     1      -7.530   8.829  66.522  1.00  0.00    -0.085 C  
HETATM   12  H1  UNL     1      -5.398   8.040  66.708  1.00  0.00     0.000 HD 
HETATM   13  N   UNL     1      -6.351   8.392  66.625  1.00  0.00    -0.054 NA 
HETATM   14  H2  UNL     1      -6.128   7.570  66.063  1.00  0.00     0.000 HD 
ENDBRANCH  10  11
ENDBRANCH   8  10
BRANCH   8  15
HETATM   15  N   UNL     1     -10.280  10.894  67.759  1.00  0.00    -0.176 NA 
HETATM   16  N   UNL     1     -11.528  10.986  67.248  1.00  0.00    -0.481 NA 
HETATM   17  C   UNL     1      -9.803  12.102  68.192  1.00  0.00    -0.207 A  
HETATM   18  C   UNL     1     -11.831  12.280  67.363  1.00  0.00    -0.257 A  
HETATM   19  C   UNL     1     -10.790  13.030  67.938  1.00  0.00    -0.260 A  
BRANCH  19  20
HETATM   20  C   UNL     1     -10.694  14.428  68.266  1.00  0.00    -0.242 A  
HETATM   21  C   UNL     1      -9.892  15.298  67.527  1.00  0.00    -0.213 A  
HETATM   22  C   UNL     1      -8.963  15.224  66.450  1.00  0.00    -0.339 A  
HETATM   23  C   UNL     1      -8.530  16.505  66.181  1.00  0.00    -0.285 A  
HETATM   24  N   UNL     1      -9.142  17.350  67.071  1.00  0.00    -0.236 NA 
HETATM   25  H   UNL     1      -9.012  18.361  67.106  1.00  0.00     0.000 HD 
HETATM   26  C   UNL     1      -9.955  16.630  67.903  1.00  0.00    -0.254 A  
HETATM   27  N   UNL     1     -10.683  17.156  68.900  1.00  0.00    -0.302 NA 
HETATM   28  C   UNL     1     -11.386  16.214  69.554  1.00  0.00    -0.321 A  
HETATM   29  N   UNL     1     -11.431  14.893  69.303  1.00  0.00    -0.285 NA 
ENDBRANCH  19  20
ENDBRANCH   8  15
ENDBRANCH   3   6
ENDBRANCH   2   3
TORSDOF 6
ENDMDL
MODEL      177
REMARK 921   NORMALIZED FREE ENERGY PREDICTED BY IDOCK:   -4.42 KCAL/MOL
REMARK 922        TOTAL FREE ENERGY PREDICTED BY IDOCK:   -6.48 KCAL/MOL
REMARK 923 INTER-LIGAND FREE ENERGY PREDICTED BY IDOCK:   -5.49 KCAL/MOL
REMARK 924 INTRA-LIGAND FREE ENERGY PREDICTED BY IDOCK:   -0.98 KCAL/MOL
REMARK 927      BINDING AFFINITY PREDICTED BY RF-SCORE:    0.00 PKD
ROOT
HETATM    1  C   UNL     1      -9.148   8.284  67.156  1.00  0.00    -0.162 C  
HETATM    2  C   UNL     1      -8.254   7.172  66.650  1.00  0.00    -0.112 C  
ENDROOT
BRANCH   2   3
HETATM    3  S   UNL     1      -7.480   6.284  67.991  1.00  0.00    -0.091 S  
HETATM    4  O   UNL     1      -7.542   4.868  67.711  1.00  0.00    -0.081 OA 
HETATM    5  O   UNL     1      -6.241   6.948  68.334  1.00  0.00    -0.031 OA 
BRANCH   3   6
HETATM    6  N   UNL     1      -8.594   6.609  69.215  1.00  0.00    -0.131 N  
HETATM    7  C   UNL     1      -9.622   5.662  69.736  1.00  0.00    -0.159 C  
HETATM    8  C   UNL     1      -9.670   6.464  71.079  1.00  0.00    -0.176 C  
HETATM    9  C   UNL     1      -8.281   7.012  70.616  1.00  0.00    -0.119 C  
BRANCH   8  10
HETATM   10  C   UNL     1      -9.771   5.661  72.369  1.00  0.00    -0.177 C  
BRANCH  10  11
HETATM   11  C   UNL     1     -10.052   6.551  73.568  1.00  0.00    -0.240 C  
HETATM   12  H1  UNL     1     -10.473   7.887  75.368  1.00  0.00     0.000 HD 
HETATM   13  N   UNL     1     -10.284   7.290  74.563  1.00  0.00    -0.328 NA 
HETATM   14  H2  UNL     1      -9.662   8.090  74.681  1.00  0.00     0.000 HD 
ENDBRANCH  10  11
ENDBRANCH   8  10
BRANCH   8  15
HETATM   15  N   UNL     1     -10.746   7.444  71.006  1.00  0.00    -0.229 NA 
HETATM   16  N   UNL     1     -12.028   7.041  70.856  1.00  0.00    -0.359 NA 
HETATM   17  C   UNL     1     -10.626   8.808  71.027  1.00  0.00    -0.230 A  
HETATM   18  C   UNL     1     -12.718   8.180  70.778  1.00  0.00     0.243 A  
HETATM   19  C   UNL     1     -11.896   9.318  70.869  1.00  0.00    -0.346 A  
BRANCH  19  20
HETATM   20  C   UNL     1     -12.212  10.722  70.858  1.00  0.00    -0.384 A  
HETATM   21  C   UNL     1     -11.950  11.520  69.744  1.00  0.00    -0.415 A  
HETATM   22  C   UNL     1     -11.327  11.387  68.470  1.00  0.00    -0.333 A  
HETATM   23  C   UNL     1     -11.433  12.600  67.823  1.00  0.00    -0.322 A  
HETATM   24  N   UNL     1     -12.075  13.470  68.666  1.00  0.00    -0.329 NA 
HETATM   25  H   UNL     1     -12.295  14.443  68.451  1.00  0.00     0.000 HD 
HETATM   26  C   UNL     1     -12.377  12.834  69.840  1.00  0.00    -0.070 A  
HETATM   27  N   UNL     1     -12.990  13.412  70.884  1.00  0.00    -0.182 NA 
HETATM   28  C   UNL     1     -13.157  12.550  71.902  1.00  0.00    -0.368 A  
HETATM   29  N   UNL     1     -12.804  11.253  71.954  1.00  0.00    -0.361 NA 
ENDBRANCH  19  20
ENDBRANCH   8  15
ENDBRANCH   3   6
ENDBRANCH   2   3
TORSDOF 6
ENDMDL
MODEL      178
REMARK 921   NORMALIZED FREE ENERGY PREDICTED BY IDOCK:   -4.40 KCAL/MOL
REMARK 922        TOTAL FREE ENERGY PREDICTED BY IDOCK:   -6.46 KCAL/MOL
REMARK 923 INTER-LIGAND FREE ENERGY PREDICTED BY IDOCK:   -5.75 KCAL/MOL
REMARK 924 INTRA-LIGAND FREE ENERGY PREDICTED BY IDOCK:   -0.71 KCAL/MOL
REMARK 927      BINDING AFFINITY PREDICTED BY RF-SCORE:    0.00 PKD
ROOT
HETATM    1  C   UNL     1     -12.571  13.130  64.466  1.00  0.00    -0.344 C  
HETATM    2  C   UNL     1     -12.512  13.412  65.953  1.00  0.00    -0.408 C  
ENDROOT
BRANCH   2   3
HETATM    3  S   UNL     1     -11.180  14.527  66.362  1.00  0.00    -0.346 S  
HETATM    4  O   UNL     1     -10.659  15.099  65.142  1.00  0.00    -0.370 OA 
HETATM    5  O   UNL     1     -11.586  15.344  67.484  1.00  0.00    -0.294 OA 
BRANCH   3   6
HETATM    6  N   UNL     1     -10.048  13.409  66.922  1.00  0.00    -0.250 N  
HETATM    7  C   UNL     1      -8.759  13.059  66.257  1.00  0.00     0.313 C  
HETATM    8  C   UNL     1      -8.189  12.576  67.632  1.00  0.00    -0.172 C  
HETATM    9  C   UNL     1      -9.340  13.444  68.234  1.00  0.00    -0.205 C  
BRANCH   8  10
HETATM   10  C   UNL     1      -6.740  12.922  67.946  1.00  0.00    -0.123 C  
BRANCH  10  11
HETATM   11  C   UNL     1      -6.507  13.076  69.440  1.00  0.00    -0.094 C  
HETATM   12  H1  UNL     1      -6.159  13.308  71.683  1.00  0.00     0.000 HD 
HETATM   13  N   UNL     1      -6.316  13.204  70.680  1.00  0.00    -0.470 NA 
HETATM   14  H2  UNL     1      -7.141  13.107  71.273  1.00  0.00     0.000 HD 
ENDBRANCH  10  11
ENDBRANCH   8  10
BRANCH   8  15
HETATM   15  N   UNL     1      -8.405  11.141  67.753  1.00  0.00    -0.120 NA 
HETATM   16  N   UNL     1      -7.772  10.280  66.925  1.00  0.00    -0.103 NA 
HETATM   17  C   UNL     1      -9.251  10.502  68.621  1.00  0.00    -0.172 A  
HETATM   18  C   UNL     1      -8.237   9.083  67.284  1.00  0.00    -0.103 A  
HETATM   19  C   UNL     1      -9.172   9.157  68.332  1.00  0.00    -0.132 A  
BRANCH  19  20
HETATM   20  C   UNL     1      -9.894   8.131  69.036  1.00  0.00    -0.176 A  
HETATM   21  C   UNL     1      -9.968   8.114  70.429  1.00  0.00    -0.190 A  
HETATM   22  C   UNL     1      -9.431   8.848  71.526  1.00  0.00    -0.347 A  
HETATM   23  C   UNL     1      -9.944   8.305  72.684  1.00  0.00    -0.287 A  
HETATM   24  N   UNL     1     -10.753   7.255  72.333  1.00  0.00    -0.232 NA 
HETATM   25  H   UNL     1     -11.270   6.667  72.986  1.00  0.00     0.000 HD 
HETATM   26  C   UNL     1     -10.762   7.117  70.971  1.00  0.00    -0.232 A  
HETATM   27  N   UNL     1     -11.440   6.171  70.305  1.00  0.00    -0.352 NA 
HETATM   28  C   UNL     1     -11.264   6.274  68.976  1.00  0.00    -0.343 A  
HETATM   29  N   UNL     1     -10.534   7.186  68.307  1.00  0.00    -0.195 NA 
ENDBRANCH  19  20
ENDBRANCH   8  15
ENDBRANCH   3   6
ENDBRANCH   2   3
TORSDOF 6
ENDMDL
MODEL      179
REMARK 921   NORMALIZED FREE ENERGY PREDICTED BY IDOCK:   -4.40 KCAL/MOL
REMARK 922        TOTAL FREE ENERGY PREDICTED BY IDOCK:   -6.46 KCAL/MOL
REMARK 923 INTER-LIGAND FREE ENERGY PREDICTED BY IDOCK:   -5.59 KCAL/MOL
REMARK 924 INTRA-LIGAND FREE ENERGY PREDICTED BY IDOCK:   -0.87 KCAL/MOL
REMARK 927      BINDING AFFINITY PREDICTED BY RF-SCORE:    0.00 PKD
ROOT
HETATM    1  C   UNL     1      -6.839   8.579  71.947  1.00  0.00    -0.097 C  
HETATM    2  C   UNL     1      -7.446   7.866  70.757  1.00  0.00    -0.072 C  
ENDROOT
BRANCH   2   3
HETATM    3  S   UNL     1      -9.220   8.059  70.707  1.00  0.00    -0.159 S  
HETATM    4  O   UNL     1      -9.814   6.806  70.302  1.00  0.00    -0.174 OA 
HETATM    5  O   UNL     1      -9.645   8.765  71.895  1.00  0.00    -0.277 OA 
BRANCH   3   6
HETATM    6  N   UNL     1      -9.344   9.123  69.404  1.00  0.00    -0.156 N  
HETATM    7  C   UNL     1      -8.273  10.043  68.919  1.00  0.00    -0.121 C  
HETATM    8  C   UNL     1      -8.950  10.076  67.508  1.00  0.00    -0.134 C  
HETATM    9  C   UNL     1      -9.650   8.764  67.989  1.00  0.00    -0.142 C  
BRANCH   8  10
HETATM   10  C   UNL     1      -8.032  10.039  66.294  1.00  0.00    -0.111 C  
BRANCH  10  11
HETATM   11  C   UNL     1      -6.585   9.790  66.687  1.00  0.00    -0.071 C  
HETATM   12  H1  UNL     1      -4.414   9.416  67.277  1.00  0.00     0.000 HD 
HETATM   13  N   UNL     1      -5.385   9.583  67.014  1.00  0.00    -0.038 NA 
HETATM   14  H2  UNL     1      -5.240   9.079  67.889  1.00  0.00     0.000 HD 
ENDBRANCH  10  11
ENDBRANCH   8  10
BRANCH   8  15
HETATM   15  N   UNL     1      -9.838  11.228  67.439  1.00  0.00    -0.180 NA 
HETATM   16  N   UNL     1     -11.045  11.126  66.837  1.00  0.00    -0.280 NA 
HETATM   17  C   UNL     1      -9.587  12.496  67.891  1.00  0.00    -0.206 A  
HETATM   18  C   UNL     1     -11.550  12.358  66.914  1.00  0.00    -0.370 A  
HETATM   19  C   UNL     1     -10.683  13.260  67.554  1.00  0.00    -0.259 A  
BRANCH  19  20
HETATM   20  C   UNL     1     -10.828  14.656  67.872  1.00  0.00    -0.259 A  
HETATM   21  C   UNL     1     -11.184  15.081  69.153  1.00  0.00    -0.293 A  
HETATM   22  C   UNL     1     -11.565  14.495  70.394  1.00  0.00    -0.308 A  
HETATM   23  C   UNL     1     -11.766  15.518  71.296  1.00  0.00    -0.401 A  
HETATM   24  N   UNL     1     -11.545  16.702  70.642  1.00  0.00    -0.416 NA 
HETATM   25  H   UNL     1     -11.618  17.629  71.063  1.00  0.00     0.000 HD 
HETATM   26  C   UNL     1     -11.210  16.453  69.338  1.00  0.00    -0.267 A  
HETATM   27  N   UNL     1     -10.950  17.399  68.423  1.00  0.00    -0.221 NA 
HETATM   28  C   UNL     1     -10.651  16.865  67.227  1.00  0.00    -0.270 A  
HETATM   29  N   UNL     1     -10.580  15.562  66.896  1.00  0.00    -0.304 NA 
ENDBRANCH  19  20
ENDBRANCH   8  15
ENDBRANCH   3   6
ENDBRANCH   2   3
TORSDOF 6
ENDMDL
MODEL      180
REMARK 921   NORMALIZED FREE ENERGY PREDICTED BY IDOCK:   -4.39 KCAL/MOL
REMARK 922        TOTAL FREE ENERGY PREDICTED BY IDOCK:   -6.44 KCAL/MOL
REMARK 923 INTER-LIGAND FREE ENERGY PREDICTED BY IDOCK:   -6.78 KCAL/MOL
REMARK 924 INTRA-LIGAND FREE ENERGY PREDICTED BY IDOCK:    0.34 KCAL/MOL
REMARK 927      BINDING AFFINITY PREDICTED BY RF-SCORE:    0.00 PKD
ROOT
HETATM    1  C   UNL     1     -11.052   6.633  72.982  1.00  0.00    -0.238 C  
HETATM    2  C   UNL     1     -10.897   7.719  71.937  1.00  0.00    -0.235 C  
ENDROOT
BRANCH   2   3
HETATM    3  S   UNL     1      -9.181   8.020  71.548  1.00  0.00    -0.157 S  
HETATM    4  O   UNL     1      -8.636   8.939  72.520  1.00  0.00    -0.396 OA 
HETATM    5  O   UNL     1      -8.546   6.757  71.240  1.00  0.00    -0.124 OA 
BRANCH   3   6
HETATM    6  N   UNL     1      -9.372   8.866  70.101  1.00  0.00    -0.170 N  
HETATM    7  C   UNL     1      -8.302   9.608  69.373  1.00  0.00    -0.145 C  
HETATM    8  C   UNL     1      -9.116   9.465  68.045  1.00  0.00    -0.127 C  
HETATM    9  C   UNL     1      -9.843   8.307  68.801  1.00  0.00    -0.173 C  
BRANCH   8  10
HETATM   10  C   UNL     1      -8.332   9.161  66.775  1.00  0.00    -0.123 C  
BRANCH  10  11
HETATM   11  C   UNL     1      -7.384  10.293  66.413  1.00  0.00    -0.114 C  
HETATM   12  H1  UNL     1      -5.962  11.991  65.869  1.00  0.00     0.000 HD 
HETATM   13  N   UNL     1      -6.597  11.232  66.112  1.00  0.00    -0.355 NA 
HETATM   14  H2  UNL     1      -5.881  11.454  66.805  1.00  0.00     0.000 HD 
ENDBRANCH  10  11
ENDBRANCH   8  10
BRANCH   8  15
HETATM   15  N   UNL     1      -9.934  10.657  67.863  1.00  0.00    -0.163 NA 
HETATM   16  N   UNL     1     -10.817  11.032  68.815  1.00  0.00    -0.195 NA 
HETATM   17  C   UNL     1      -9.965  11.480  66.769  1.00  0.00    -0.208 A  
HETATM   18  C   UNL     1     -11.411  12.109  68.300  1.00  0.00    -0.305 A  
HETATM   19  C   UNL     1     -10.928  12.433  67.020  1.00  0.00    -0.303 A  
BRANCH  19  20
HETATM   20  C   UNL     1     -11.260  13.508  66.122  1.00  0.00    -0.295 A  
HETATM   21  C   UNL     1     -10.681  14.771  66.249  1.00  0.00    -0.313 A  
HETATM   22  C   UNL     1      -9.798  15.446  67.140  1.00  0.00    -0.221 A  
HETATM   23  C   UNL     1      -9.608  16.722  66.656  1.00  0.00    -0.258 A  
HETATM   24  N   UNL     1     -10.361  16.855  65.518  1.00  0.00    -0.614 NA 
HETATM   25  H   UNL     1     -10.414  17.696  64.943  1.00  0.00     0.000 HD 
HETATM   26  C   UNL     1     -11.030  15.687  65.270  1.00  0.00    -0.364 A  
HETATM   27  N   UNL     1     -11.869  15.492  64.242  1.00  0.00    -0.417 NA 
HETATM   28  C   UNL     1     -12.384  14.250  64.248  1.00  0.00    -0.377 A  
HETATM   29  N   UNL     1     -12.137  13.257  65.121  1.00  0.00    -0.387 NA 
ENDBRANCH  19  20
ENDBRANCH   8  15
ENDBRANCH   3   6
ENDBRANCH   2   3
TORSDOF 6
ENDMDL
MODEL      181
REMARK 921   NORMALIZED FREE ENERGY PREDICTED BY IDOCK:   -4.39 KCAL/MOL
REMARK 922        TOTAL FREE ENERGY PREDICTED BY IDOCK:   -6.44 KCAL/MOL
REMARK 923 INTER-LIGAND FREE ENERGY PREDICTED BY IDOCK:   -6.03 KCAL/MOL
REMARK 924 INTRA-LIGAND FREE ENERGY PREDICTED BY IDOCK:   -0.40 KCAL/MOL
REMARK 927      BINDING AFFINITY PREDICTED BY RF-SCORE:    0.00 PKD
ROOT
HETATM    1  C   UNL     1      -9.008  15.493  67.479  1.00  0.00    -0.196 C  
HETATM    2  C   UNL     1      -9.008  14.363  68.488  1.00  0.00    -0.187 C  
ENDROOT
BRANCH   2   3
HETATM    3  S   UNL     1      -7.622  13.265  68.248  1.00  0.00    -0.149 S  
HETATM    4  O   UNL     1      -6.815  13.761  67.158  1.00  0.00    -0.141 OA 
HETATM    5  O   UNL     1      -7.057  12.940  69.540  1.00  0.00     0.090 OA 
BRANCH   3   6
HETATM    6  N   UNL     1      -8.445  11.902  67.690  1.00  0.00    -0.148 N  
HETATM    7  C   UNL     1      -9.824  11.884  67.121  1.00  0.00    -0.194 C  
HETATM    8  C   UNL     1      -9.489  10.553  66.369  1.00  0.00    -0.171 C  
HETATM    9  C   UNL     1      -8.004  10.982  66.603  1.00  0.00    -0.156 C  
BRANCH   8  10
HETATM   10  C   UNL     1     -10.016  10.403  64.948  1.00  0.00    -0.409 C  
BRANCH  10  11
HETATM   11  C   UNL     1      -9.974  11.720  64.189  1.00  0.00    -0.272 C  
HETATM   12  H1  UNL     1      -9.911  13.696  63.051  1.00  0.00     0.000 HD 
HETATM   13  N   UNL     1      -9.939  12.813  63.560  1.00  0.00    -0.687 NA 
HETATM   14  H2  UNL     1      -9.924  13.658  64.132  1.00  0.00     0.000 HD 
ENDBRANCH  10  11
ENDBRANCH   8  10
BRANCH   8  15
HETATM   15  N   UNL     1      -9.915   9.427  67.189  1.00  0.00    -0.190 NA 
HETATM   16  N   UNL     1     -10.266   8.255  66.613  1.00  0.00    -0.296 NA 
HETATM   17  C   UNL     1     -10.059   9.403  68.551  1.00  0.00    -0.187 A  
HETATM   18  C   UNL     1     -10.640   7.489  67.639  1.00  0.00    -0.233 A  
HETATM   19  C   UNL     1     -10.541   8.154  68.875  1.00  0.00    -0.161 A  
BRANCH  19  20
HETATM   20  C   UNL     1     -10.811   7.710  70.217  1.00  0.00    -0.246 A  
HETATM   21  C   UNL     1     -10.429   6.442  70.658  1.00  0.00    -0.269 A  
HETATM   22  C   UNL     1      -9.838   5.266  70.113  1.00  0.00    -0.290 A  
HETATM   23  C   UNL     1      -9.711   4.350  71.135  1.00  0.00    -0.186 A  
HETATM   24  N   UNL     1     -10.225   4.916  72.273  1.00  0.00    -0.191 NA 
HETATM   25  H   UNL     1     -10.261   4.467  73.188  1.00  0.00     0.000 HD 
HETATM   26  C   UNL     1     -10.680   6.177  71.994  1.00  0.00    -0.233 A  
HETATM   27  N   UNL     1     -11.259   6.993  72.887  1.00  0.00    -0.264 NA 
HETATM   28  C   UNL     1     -11.608   8.168  72.334  1.00  0.00    -0.399 A  
HETATM   29  N   UNL     1     -11.426   8.570  71.063  1.00  0.00    -0.269 NA 
ENDBRANCH  19  20
ENDBRANCH   8  15
ENDBRANCH   3   6
ENDBRANCH   2   3
TORSDOF 6
ENDMDL
MODEL      182
REMARK 921   NORMALIZED FREE ENERGY PREDICTED BY IDOCK:   -4.38 KCAL/MOL
REMARK 922        TOTAL FREE ENERGY PREDICTED BY IDOCK:   -6.43 KCAL/MOL
REMARK 923 INTER-LIGAND FREE ENERGY PREDICTED BY IDOCK:   -5.96 KCAL/MOL
REMARK 924 INTRA-LIGAND FREE ENERGY PREDICTED BY IDOCK:   -0.47 KCAL/MOL
REMARK 927      BINDING AFFINITY PREDICTED BY RF-SCORE:    0.00 PKD
ROOT
HETATM    1  C   UNL     1     -10.454  19.353  67.921  1.00  0.00    -0.536 C  
HETATM    2  C   UNL     1      -9.776  18.930  66.635  1.00  0.00    -0.347 C  
ENDROOT
BRANCH   2   3
HETATM    3  S   UNL     1      -8.343  17.914  66.947  1.00  0.00    -0.251 S  
HETATM    4  O   UNL     1      -7.504  17.915  65.771  1.00  0.00    -0.520 OA 
HETATM    5  O   UNL     1      -7.827  18.229  68.261  1.00  0.00    -0.277 OA 
BRANCH   3   6
HETATM    6  N   UNL     1      -9.090  16.404  67.036  1.00  0.00    -0.208 N  
HETATM    7  C   UNL     1      -9.379  15.642  68.286  1.00  0.00    -0.192 C  
HETATM    8  C   UNL     1     -10.514  14.864  67.541  1.00  0.00    -0.254 C  
HETATM    9  C   UNL     1     -10.448  16.054  66.530  1.00  0.00    -0.302 C  
BRANCH   8  10
HETATM   10  C   UNL     1     -11.800  14.598  68.311  1.00  0.00    -0.333 C  
BRANCH  10  11
HETATM   11  C   UNL     1     -11.575  14.632  69.814  1.00  0.00    -0.296 C  
HETATM   12  H1  UNL     1     -11.236  14.681  72.070  1.00  0.00     0.000 HD 
HETATM   13  N   UNL     1     -11.387  14.659  71.061  1.00  0.00    -0.529 NA 
HETATM   14  H2  UNL     1     -10.563  15.172  71.378  1.00  0.00     0.000 HD 
ENDBRANCH  10  11
ENDBRANCH   8  10
BRANCH   8  15
HETATM   15  N   UNL     1      -9.967  13.617  67.022  1.00  0.00    -0.243 NA 
HETATM   16  N   UNL     1     -10.223  13.235  65.750  1.00  0.00    -0.289 NA 
HETATM   17  C   UNL     1      -9.215  12.696  67.701  1.00  0.00    -0.191 A  
HETATM   18  C   UNL     1      -9.620  12.051  65.640  1.00  0.00    -0.189 A  
HETATM   19  C   UNL     1      -8.981  11.656  66.828  1.00  0.00    -0.189 A  
BRANCH  19  20
HETATM   20  C   UNL     1      -8.204  10.488  67.147  1.00  0.00    -0.123 A  
HETATM   21  C   UNL     1      -7.472  10.398  68.333  1.00  0.00    -0.091 A  
HETATM   22  C   UNL     1      -7.154  11.229  69.445  1.00  0.00    -0.090 A  
HETATM   23  C   UNL     1      -6.377  10.490  70.311  1.00  0.00    -0.137 A  
HETATM   24  N   UNL     1      -6.193   9.250  69.755  1.00  0.00    -0.038 NA 
HETATM   25  H   UNL     1      -5.659   8.490  70.177  1.00  0.00     0.000 HD 
HETATM   26  C   UNL     1      -6.835   9.187  68.548  1.00  0.00    -0.063 A  
HETATM   27  N   UNL     1      -6.835   8.117  67.739  1.00  0.00    -0.072 NA 
HETATM   28  C   UNL     1      -7.546   8.339  66.620  1.00  0.00    -0.090 A  
HETATM   29  N   UNL     1      -8.220   9.452  66.275  1.00  0.00    -0.110 NA 
ENDBRANCH  19  20
ENDBRANCH   8  15
ENDBRANCH   3   6
ENDBRANCH   2   3
TORSDOF 6
ENDMDL
MODEL      183
REMARK 921   NORMALIZED FREE ENERGY PREDICTED BY IDOCK:   -4.38 KCAL/MOL
REMARK 922        TOTAL FREE ENERGY PREDICTED BY IDOCK:   -6.42 KCAL/MOL
REMARK 923 INTER-LIGAND FREE ENERGY PREDICTED BY IDOCK:   -6.06 KCAL/MOL
REMARK 924 INTRA-LIGAND FREE ENERGY PREDICTED BY IDOCK:   -0.36 KCAL/MOL
REMARK 927      BINDING AFFINITY PREDICTED BY RF-SCORE:    0.00 PKD
ROOT
HETATM    1  C   UNL     1      -7.704  14.879  68.599  1.00  0.00    -0.127 C  
HETATM    2  C   UNL     1      -8.004  14.142  67.310  1.00  0.00    -0.150 C  
ENDROOT
BRANCH   2   3
HETATM    3  S   UNL     1      -9.758  13.920  67.069  1.00  0.00    -0.258 S  
HETATM    4  O   UNL     1     -10.468  14.746  68.017  1.00  0.00    -0.241 OA 
HETATM    5  O   UNL     1     -10.041  13.957  65.651  1.00  0.00    -0.310 OA 
BRANCH   3   6
HETATM    6  N   UNL     1      -9.905  12.319  67.581  1.00  0.00    -0.193 N  
HETATM    7  C   UNL     1     -10.920  11.337  67.102  1.00  0.00    -0.291 C  
HETATM    8  C   UNL     1      -9.977  10.164  67.530  1.00  0.00    -0.191 C  
HETATM    9  C   UNL     1      -8.862  11.258  67.490  1.00  0.00    -0.140 C  
BRANCH   8  10
HETATM   10  C   UNL     1      -9.889   8.963  66.597  1.00  0.00    -0.332 C  
BRANCH  10  11
HETATM   11  C   UNL     1     -10.752   7.809  67.080  1.00  0.00    -0.267 C  
HETATM   12  H1  UNL     1     -12.047   6.076  67.805  1.00  0.00     0.000 HD 
HETATM   13  N   UNL     1     -11.468   6.851  67.481  1.00  0.00    -0.631 NA 
HETATM   14  H2  UNL     1     -12.471   6.942  67.312  1.00  0.00     0.000 HD 
ENDBRANCH  10  11
ENDBRANCH   8  10
BRANCH   8  15
HETATM   15  N   UNL     1     -10.336   9.736  68.875  1.00  0.00    -0.201 NA 
HETATM   16  N   UNL     1     -11.505  10.130  69.429  1.00  0.00    -0.186 NA 
HETATM   17  C   UNL     1      -9.585   8.974  69.730  1.00  0.00    -0.175 A  
HETATM   18  C   UNL     1     -11.477   9.604  70.654  1.00  0.00    -0.306 A  
HETATM   19  C   UNL     1     -10.299   8.878  70.905  1.00  0.00    -0.303 A  
BRANCH  19  20
HETATM   20  C   UNL     1      -9.866   8.138  72.060  1.00  0.00    -0.232 A  
HETATM   21  C   UNL     1      -8.538   8.164  72.489  1.00  0.00    -0.255 A  
HETATM   22  C   UNL     1      -7.296   8.709  72.053  1.00  0.00    -0.076 A  
HETATM   23  C   UNL     1      -6.339   8.368  72.985  1.00  0.00    -0.098 A  
HETATM   24  N   UNL     1      -6.949   7.619  73.957  1.00  0.00    -0.094 NA 
HETATM   25  H   UNL     1      -6.484   7.230  74.777  1.00  0.00     0.000 HD 
HETATM   26  C   UNL     1      -8.277   7.472  73.660  1.00  0.00    -0.149 A  
HETATM   27  N   UNL     1      -9.152   6.775  74.400  1.00  0.00    -0.190 NA 
HETATM   28  C   UNL     1     -10.386   6.801  73.868  1.00  0.00    -0.368 A  
HETATM   29  N   UNL     1     -10.791   7.430  72.750  1.00  0.00    -0.296 NA 
ENDBRANCH  19  20
ENDBRANCH   8  15
ENDBRANCH   3   6
ENDBRANCH   2   3
TORSDOF 6
ENDMDL
MODEL      184
REMARK 921   NORMALIZED FREE ENERGY PREDICTED BY IDOCK:   -4.37 KCAL/MOL
REMARK 922        TOTAL FREE ENERGY PREDICTED BY IDOCK:   -6.41 KCAL/MOL
REMARK 923 INTER-LIGAND FREE ENERGY PREDICTED BY IDOCK:   -5.77 KCAL/MOL
REMARK 924 INTRA-LIGAND FREE ENERGY PREDICTED BY IDOCK:   -0.64 KCAL/MOL
REMARK 927      BINDING AFFINITY PREDICTED BY RF-SCORE:    0.00 PKD
ROOT
HETATM    1  C   UNL     1      -6.039   9.229  69.712  1.00  0.00    -0.039 C  
HETATM    2  C   UNL     1      -6.339   8.256  68.591  1.00  0.00    -0.053 C  
ENDROOT
BRANCH   2   3
HETATM    3  S   UNL     1      -8.081   7.884  68.487  1.00  0.00    -0.124 S  
HETATM    4  O   UNL     1      -8.244   6.461  68.295  1.00  0.00    -0.115 OA 
HETATM    5  O   UNL     1      -8.773   8.604  69.533  1.00  0.00    -0.135 OA 
BRANCH   3   6
HETATM    6  N   UNL     1      -8.437   8.638  67.021  1.00  0.00    -0.109 N  
HETATM    7  C   UNL     1      -7.455   9.311  66.122  1.00  0.00    -0.096 C  
HETATM    8  C   UNL     1      -8.426   9.099  64.913  1.00  0.00    -0.175 C  
HETATM    9  C   UNL     1      -9.069   8.006  65.827  1.00  0.00    -0.055 C  
BRANCH   8  10
HETATM   10  C   UNL     1      -7.806   8.699  63.582  1.00  0.00    -0.148 C  
BRANCH  10  11
HETATM   11  C   UNL     1      -8.110   7.252  63.230  1.00  0.00    -0.011 C  
HETATM   12  H1  UNL     1      -8.566   5.080  62.702  1.00  0.00     0.000 HD 
HETATM   13  N   UNL     1      -8.362   6.051  62.938  1.00  0.00    -0.283 NA 
HETATM   14  H2  UNL     1      -8.993   5.560  63.573  1.00  0.00     0.000 HD 
ENDBRANCH  10  11
ENDBRANCH   8  10
BRANCH   8  15
HETATM   15  N   UNL     1      -9.246  10.292  64.753  1.00  0.00    -0.218 NA 
HETATM   16  N   UNL     1     -10.022  10.447  63.657  1.00  0.00    -0.236 NA 
HETATM   17  C   UNL     1      -9.313  11.371  65.595  1.00  0.00    -0.222 A  
HETATM   18  C   UNL     1     -10.578  11.648  63.820  1.00  0.00    -0.416 A  
HETATM   19  C   UNL     1     -10.167  12.278  65.008  1.00  0.00    -0.312 A  
BRANCH  19  20
HETATM   20  C   UNL     1     -10.528  13.545  65.586  1.00  0.00    -0.293 A  
HETATM   21  C   UNL     1     -11.133  13.630  66.841  1.00  0.00    -0.314 A  
HETATM   22  C   UNL     1     -11.634  12.743  67.836  1.00  0.00    -0.400 A  
HETATM   23  C   UNL     1     -12.098  13.509  68.884  1.00  0.00    -0.279 A  
HETATM   24  N   UNL     1     -11.919  14.827  68.552  1.00  0.00    -0.530 NA 
HETATM   25  H   UNL     1     -12.169  15.621  69.141  1.00  0.00     0.000 HD 
HETATM   26  C   UNL     1     -11.352  14.915  67.309  1.00  0.00    -0.349 A  
HETATM   27  N   UNL     1     -11.065  16.066  66.682  1.00  0.00    -0.089 NA 
HETATM   28  C   UNL     1     -10.516  15.851  65.474  1.00  0.00    -0.404 A  
HETATM   29  N   UNL     1     -10.238  14.671  64.890  1.00  0.00    -0.366 NA 
ENDBRANCH  19  20
ENDBRANCH   8  15
ENDBRANCH   3   6
ENDBRANCH   2   3
TORSDOF 6
ENDMDL
MODEL      185
REMARK 921   NORMALIZED FREE ENERGY PREDICTED BY IDOCK:   -4.36 KCAL/MOL
REMARK 922        TOTAL FREE ENERGY PREDICTED BY IDOCK:   -6.40 KCAL/MOL
REMARK 923 INTER-LIGAND FREE ENERGY PREDICTED BY IDOCK:   -5.77 KCAL/MOL
REMARK 924 INTRA-LIGAND FREE ENERGY PREDICTED BY IDOCK:   -0.64 KCAL/MOL
REMARK 927      BINDING AFFINITY PREDICTED BY RF-SCORE:    0.00 PKD
ROOT
HETATM    1  C   UNL     1     -11.664  15.526  70.294  1.00  0.00    -0.367 C  
HETATM    2  C   UNL     1     -11.840  15.615  68.793  1.00  0.00    -0.321 C  
ENDROOT
BRANCH   2   3
HETATM    3  S   UNL     1     -10.319  15.268  67.927  1.00  0.00    -0.249 S  
HETATM    4  O   UNL     1     -10.374  15.882  66.621  1.00  0.00    -0.287 OA 
HETATM    5  O   UNL     1      -9.210  15.481  68.832  1.00  0.00    -0.188 OA 
BRANCH   3   6
HETATM    6  N   UNL     1     -10.497  13.605  67.713  1.00  0.00    -0.237 N  
HETATM    7  C   UNL     1     -10.006  12.545  68.642  1.00  0.00    -0.103 C  
HETATM    8  C   UNL     1     -11.075  11.557  68.069  1.00  0.00    -0.254 C  
HETATM    9  C   UNL     1     -11.781  12.860  67.572  1.00  0.00    -0.367 C  
BRANCH   8  10
HETATM   10  C   UNL     1     -11.786  10.646  69.061  1.00  0.00    -0.305 C  
BRANCH  10  11
HETATM   11  C   UNL     1     -12.226  11.401  70.305  1.00  0.00    -0.349 C  
HETATM   12  H1  UNL     1     -12.887  12.533  72.171  1.00  0.00     0.000 HD 
HETATM   13  N   UNL     1     -12.592  12.027  71.337  1.00  0.00    -0.285 NA 
HETATM   14  H2  UNL     1     -12.902  11.452  72.121  1.00  0.00     0.000 HD 
ENDBRANCH  10  11
ENDBRANCH   8  10
BRANCH   8  15
HETATM   15  N   UNL     1     -10.468  10.771  67.004  1.00  0.00    -0.235 NA 
HETATM   16  N   UNL     1     -10.543  11.186  65.719  1.00  0.00    -0.251 NA 
HETATM   17  C   UNL     1      -9.824   9.568  67.126  1.00  0.00    -0.185 A  
HETATM   18  C   UNL     1      -9.938  10.218  65.030  1.00  0.00    -0.323 A  
HETATM   19  C   UNL     1      -9.475   9.176  65.852  1.00  0.00    -0.326 A  
BRANCH  19  20
HETATM   20  C   UNL     1      -8.758   7.967  65.543  1.00  0.00    -0.102 A  
HETATM   21  C   UNL     1      -9.217   6.717  65.960  1.00  0.00    -0.069 A  
HETATM   22  C   UNL     1     -10.275   6.191  66.756  1.00  0.00    -0.264 A  
HETATM   23  C   UNL     1     -10.164   4.817  66.744  1.00  0.00    -0.213 A  
HETATM   24  N   UNL     1      -9.066   4.492  65.990  1.00  0.00    -0.124 NA 
HETATM   25  H   UNL     1      -8.740   3.543  65.804  1.00  0.00     0.000 HD 
HETATM   26  C   UNL     1      -8.472   5.634  65.525  1.00  0.00    -0.146 A  
HETATM   27  N   UNL     1      -7.363   5.664  64.772  1.00  0.00    -0.065 NA 
HETATM   28  C   UNL     1      -7.006   6.923  64.462  1.00  0.00    -0.055 A  
HETATM   29  N   UNL     1      -7.627   8.067  64.803  1.00  0.00    -0.098 NA 
ENDBRANCH  19  20
ENDBRANCH   8  15
ENDBRANCH   3   6
ENDBRANCH   2   3
TORSDOF 6
ENDMDL
MODEL      186
REMARK 921   NORMALIZED FREE ENERGY PREDICTED BY IDOCK:   -4.36 KCAL/MOL
REMARK 922        TOTAL FREE ENERGY PREDICTED BY IDOCK:   -6.40 KCAL/MOL
REMARK 923 INTER-LIGAND FREE ENERGY PREDICTED BY IDOCK:   -6.12 KCAL/MOL
REMARK 924 INTRA-LIGAND FREE ENERGY PREDICTED BY IDOCK:   -0.28 KCAL/MOL
REMARK 927      BINDING AFFINITY PREDICTED BY RF-SCORE:    0.00 PKD
ROOT
HETATM    1  C   UNL     1      -9.940  20.225  67.329  1.00  0.00    -0.580 C  
HETATM    2  C   UNL     1      -9.578  18.932  68.030  1.00  0.00    -0.322 C  
ENDROOT
BRANCH   2   3
HETATM    3  S   UNL     1      -8.150  18.158  67.290  1.00  0.00    -0.228 S  
HETATM    4  O   UNL     1      -8.138  18.454  65.877  1.00  0.00    -0.502 OA 
HETATM    5  O   UNL     1      -7.002  18.395  68.137  1.00  0.00    -0.224 OA 
BRANCH   3   6
HETATM    6  N   UNL     1      -8.593  16.540  67.466  1.00  0.00    -0.176 N  
HETATM    7  C   UNL     1      -9.170  15.918  68.693  1.00  0.00    -0.209 C  
HETATM    8  C   UNL     1      -9.799  14.786  67.815  1.00  0.00    -0.214 C  
HETATM    9  C   UNL     1      -9.591  15.798  66.643  1.00  0.00    -0.247 C  
BRANCH   8  10
HETATM   10  C   UNL     1     -11.206  14.326  68.173  1.00  0.00    -0.295 C  
BRANCH  10  11
HETATM   11  C   UNL     1     -12.096  14.222  66.945  1.00  0.00    -0.409 C  
HETATM   12  H1  UNL     1     -13.431  14.066  65.102  1.00  0.00     0.000 HD 
HETATM   13  N   UNL     1     -12.834  14.136  65.926  1.00  0.00    -0.469 NA 
HETATM   14  H2  UNL     1     -13.350  14.980  65.675  1.00  0.00     0.000 HD 
ENDBRANCH  10  11
ENDBRANCH   8  10
BRANCH   8  15
HETATM   15  N   UNL     1      -8.887  13.651  67.785  1.00  0.00    -0.178 NA 
HETATM   16  N   UNL     1      -7.676  13.730  68.381  1.00  0.00    -0.127 NA 
HETATM   17  C   UNL     1      -9.081  12.449  67.158  1.00  0.00    -0.199 A  
HETATM   18  C   UNL     1      -7.105  12.555  68.114  1.00  0.00    -0.103 A  
HETATM   19  C   UNL     1      -7.931  11.714  67.346  1.00  0.00    -0.147 A  
BRANCH  19  20
HETATM   20  C   UNL     1      -7.734  10.375  66.860  1.00  0.00    -0.111 A  
HETATM   21  C   UNL     1      -8.781   9.453  66.814  1.00  0.00    -0.138 A  
HETATM   22  C   UNL     1     -10.148   9.384  67.207  1.00  0.00    -0.285 A  
HETATM   23  C   UNL     1     -10.629   8.147  66.834  1.00  0.00    -0.241 A  
HETATM   24  N   UNL     1      -9.599   7.455  66.252  1.00  0.00    -0.393 NA 
HETATM   25  H   UNL     1      -9.665   6.509  65.877  1.00  0.00     0.000 HD 
HETATM   26  C   UNL     1      -8.469   8.227  66.249  1.00  0.00    -0.129 A  
HETATM   27  N   UNL     1      -7.279   7.836  65.768  1.00  0.00    -0.067 NA 
HETATM   28  C   UNL     1      -6.350   8.798  65.898  1.00  0.00    -0.056 A  
HETATM   29  N   UNL     1      -6.501  10.031  66.415  1.00  0.00    -0.071 NA 
ENDBRANCH  19  20
ENDBRANCH   8  15
ENDBRANCH   3   6
ENDBRANCH   2   3
TORSDOF 6
ENDMDL
MODEL      187
REMARK 921   NORMALIZED FREE ENERGY PREDICTED BY IDOCK:   -4.36 KCAL/MOL
REMARK 922        TOTAL FREE ENERGY PREDICTED BY IDOCK:   -6.40 KCAL/MOL
REMARK 923 INTER-LIGAND FREE ENERGY PREDICTED BY IDOCK:   -5.93 KCAL/MOL
REMARK 924 INTRA-LIGAND FREE ENERGY PREDICTED BY IDOCK:   -0.46 KCAL/MOL
REMARK 927      BINDING AFFINITY PREDICTED BY RF-SCORE:    0.00 PKD
ROOT
HETATM    1  C   UNL     1     -12.094  14.296  67.209  1.00  0.00    -0.390 C  
HETATM    2  C   UNL     1     -12.528  14.183  65.762  1.00  0.00    -0.466 C  
ENDROOT
BRANCH   2   3
HETATM    3  S   UNL     1     -11.263  13.434  64.750  1.00  0.00    -0.363 S  
HETATM    4  O   UNL     1     -11.888  12.811  63.606  1.00  0.00    -0.453 OA 
HETATM    5  O   UNL     1     -10.164  14.364  64.615  1.00  0.00    -0.362 OA 
BRANCH   3   6
HETATM    6  N   UNL     1     -10.770  12.202  65.792  1.00  0.00    -0.258 N  
HETATM    7  C   UNL     1     -11.093  10.753  65.649  1.00  0.00     0.224 C  
HETATM    8  C   UNL     1      -9.836  10.395  66.510  1.00  0.00    -0.206 C  
HETATM    9  C   UNL     1      -9.365  11.837  66.133  1.00  0.00    -0.225 C  
BRANCH   8  10
HETATM   10  C   UNL     1      -9.010   9.193  66.071  1.00  0.00    -0.221 C  
BRANCH  10  11
HETATM   11  C   UNL     1      -7.530   9.529  65.979  1.00  0.00    -0.100 C  
HETATM   12  H1  UNL     1      -5.310  10.033  65.840  1.00  0.00     0.000 HD 
HETATM   13  N   UNL     1      -6.302   9.808  65.902  1.00  0.00    -0.076 NA 
HETATM   14  H2  UNL     1      -5.832   9.522  65.042  1.00  0.00     0.000 HD 
ENDBRANCH  10  11
ENDBRANCH   8  10
BRANCH   8  15
HETATM   15  N   UNL     1     -10.242  10.251  67.901  1.00  0.00    -0.173 NA 
HETATM   16  N   UNL     1     -10.925  11.240  68.520  1.00  0.00    -0.202 NA 
HETATM   17  C   UNL     1      -9.974   9.200  68.737  1.00  0.00    -0.176 A  
HETATM   18  C   UNL     1     -11.079  10.795  69.768  1.00  0.00    -0.281 A  
HETATM   19  C   UNL     1     -10.499   9.530  69.967  1.00  0.00    -0.283 A  
BRANCH  19  20
HETATM   20  C   UNL     1     -10.450   8.679  71.126  1.00  0.00    -0.227 A  
HETATM   21  C   UNL     1      -9.258   8.456  71.819  1.00  0.00    -0.287 A  
HETATM   22  C   UNL     1      -7.881   8.793  71.690  1.00  0.00    -0.124 A  
HETATM   23  C   UNL     1      -7.215   8.253  72.769  1.00  0.00    -0.102 A  
HETATM   24  N   UNL     1      -8.132   7.581  73.535  1.00  0.00    -0.121 NA 
HETATM   25  H   UNL     1      -7.924   7.084  74.400  1.00  0.00     0.000 HD 
HETATM   26  C   UNL     1      -9.371   7.680  72.961  1.00  0.00    -0.210 A  
HETATM   27  N   UNL     1     -10.485   7.116  73.450  1.00  0.00    -0.335 NA 
HETATM   28  C   UNL     1     -11.555   7.378  72.680  1.00  0.00    -0.250 A  
HETATM   29  N   UNL     1     -11.604   8.114  71.554  1.00  0.00    -0.265 NA 
ENDBRANCH  19  20
ENDBRANCH   8  15
ENDBRANCH   3   6
ENDBRANCH   2   3
TORSDOF 6
ENDMDL
MODEL      188
REMARK 921   NORMALIZED FREE ENERGY PREDICTED BY IDOCK:   -4.36 KCAL/MOL
REMARK 922        TOTAL FREE ENERGY PREDICTED BY IDOCK:   -6.39 KCAL/MOL
REMARK 923 INTER-LIGAND FREE ENERGY PREDICTED BY IDOCK:   -5.95 KCAL/MOL
REMARK 924 INTRA-LIGAND FREE ENERGY PREDICTED BY IDOCK:   -0.44 KCAL/MOL
REMARK 927      BINDING AFFINITY PREDICTED BY RF-SCORE:    0.00 PKD
ROOT
HETATM    1  C   UNL     1      -8.835  15.233  69.574  1.00  0.00    -0.181 C  
HETATM    2  C   UNL     1      -7.592  15.870  68.988  1.00  0.00    -0.202 C  
ENDROOT
BRANCH   2   3
HETATM    3  S   UNL     1      -6.172  14.797  69.126  1.00  0.00    -0.111 S  
HETATM    4  O   UNL     1      -5.152  15.251  68.210  1.00  0.00    -0.094 OA 
HETATM    5  O   UNL     1      -5.901  14.563  70.528  1.00  0.00    -0.148 OA 
BRANCH   3   6
HETATM    6  N   UNL     1      -6.834  13.382  68.488  1.00  0.00    -0.091 N  
HETATM    7  C   UNL     1      -6.284  12.596  67.345  1.00  0.00    -0.148 C  
HETATM    8  C   UNL     1      -7.029  11.324  67.870  1.00  0.00    -0.073 C  
HETATM    9  C   UNL     1      -7.081  12.108  69.222  1.00  0.00     0.041 C  
BRANCH   8  10
HETATM   10  C   UNL     1      -6.284   9.999  67.796  1.00  0.00    -0.054 C  
BRANCH  10  11
HETATM   11  C   UNL     1      -5.737   9.737  66.402  1.00  0.00    -0.053 C  
HETATM   12  H1  UNL     1      -4.916   9.343  64.310  1.00  0.00     0.000 HD 
HETATM   13  N   UNL     1      -5.282   9.519  65.245  1.00  0.00    -0.039 NA 
HETATM   14  H2  UNL     1      -4.307   9.776  65.093  1.00  0.00     0.000 HD 
ENDBRANCH  10  11
ENDBRANCH   8  10
BRANCH   8  15
HETATM   15  N   UNL     1      -8.317  11.221  67.198  1.00  0.00    -0.145 NA 
HETATM   16  N   UNL     1      -9.075  10.111  67.338  1.00  0.00    -0.137 NA 
HETATM   17  C   UNL     1      -8.885  12.137  66.352  1.00  0.00    -0.100 A  
HETATM   18  C   UNL     1     -10.134  10.340  66.560  1.00  0.00    -0.231 A  
HETATM   19  C   UNL     1     -10.068  11.586  65.911  1.00  0.00    -0.271 A  
BRANCH  19  20
HETATM   20  C   UNL     1     -10.985  12.241  65.016  1.00  0.00    -0.302 A  
HETATM   21  C   UNL     1     -11.067  13.633  64.944  1.00  0.00    -0.356 A  
HETATM   22  C   UNL     1     -10.506  14.761  65.608  1.00  0.00    -0.365 A  
HETATM   23  C   UNL     1     -11.012  15.894  65.008  1.00  0.00    -0.412 A  
HETATM   24  N   UNL     1     -11.877  15.495  64.021  1.00  0.00    -0.954 NA 
HETATM   25  H   UNL     1     -12.398  16.122  63.408  1.00  0.00     0.000 HD 
HETATM   26  C   UNL     1     -11.934  14.128  63.984  1.00  0.00    -0.327 A  
HETATM   27  N   UNL     1     -12.703  13.420  63.144  1.00  0.00    -0.566 NA 
HETATM   28  C   UNL     1     -12.557  12.097  63.333  1.00  0.00    -0.463 A  
HETATM   29  N   UNL     1     -11.756  11.470  64.214  1.00  0.00    -0.166 NA 
ENDBRANCH  19  20
ENDBRANCH   8  15
ENDBRANCH   3   6
ENDBRANCH   2   3
TORSDOF 6
ENDMDL
MODEL      189
REMARK 921   NORMALIZED FREE ENERGY PREDICTED BY IDOCK:   -4.35 KCAL/MOL
REMARK 922        TOTAL FREE ENERGY PREDICTED BY IDOCK:   -6.39 KCAL/MOL
REMARK 923 INTER-LIGAND FREE ENERGY PREDICTED BY IDOCK:   -5.58 KCAL/MOL
REMARK 924 INTRA-LIGAND FREE ENERGY PREDICTED BY IDOCK:   -0.81 KCAL/MOL
REMARK 927      BINDING AFFINITY PREDICTED BY RF-SCORE:    0.00 PKD
ROOT
HETATM    1  C   UNL     1      -7.479   7.907  71.032  1.00  0.00    -0.073 C  
HETATM    2  C   UNL     1      -7.329   8.249  69.564  1.00  0.00    -0.074 C  
ENDROOT
BRANCH   2   3
HETATM    3  S   UNL     1      -8.806   7.860  68.641  1.00  0.00    -0.134 S  
HETATM    4  O   UNL     1      -8.430   7.478  67.299  1.00  0.00    -0.117 OA 
HETATM    5  O   UNL     1      -9.665   7.037  69.463  1.00  0.00    -0.159 OA 
BRANCH   3   6
HETATM    6  N   UNL     1      -9.492   9.398  68.557  1.00  0.00    -0.145 N  
HETATM    7  C   UNL     1     -10.812   9.736  67.949  1.00  0.00    -0.242 C  
HETATM    8  C   UNL     1     -10.882  11.025  68.834  1.00  0.00    -0.217 C  
HETATM    9  C   UNL     1      -9.815  10.290  69.708  1.00  0.00    -0.161 C  
BRANCH   8  10
HETATM   10  C   UNL     1     -12.233  11.384  69.438  1.00  0.00    -0.288 C  
BRANCH  10  11
HETATM   11  C   UNL     1     -12.479  10.651  70.747  1.00  0.00    -0.385 C  
HETATM   12  H1  UNL     1     -12.848   9.551  72.711  1.00  0.00     0.000 HD 
HETATM   13  N   UNL     1     -12.684  10.043  71.833  1.00  0.00    -0.405 NA 
HETATM   14  H2  UNL     1     -13.563  10.256  72.306  1.00  0.00     0.000 HD 
ENDBRANCH  10  11
ENDBRANCH   8  10
BRANCH   8  15
HETATM   15  N   UNL     1     -10.351  12.148  68.074  1.00  0.00    -0.199 NA 
HETATM   16  N   UNL     1     -10.501  12.197  66.731  1.00  0.00    -0.216 NA 
HETATM   17  C   UNL     1      -9.637  13.212  68.558  1.00  0.00    -0.117 A  
HETATM   18  C   UNL     1      -9.863  13.312  66.374  1.00  0.00    -0.281 A  
HETATM   19  C   UNL     1      -9.294  13.985  67.471  1.00  0.00    -0.209 A  
BRANCH  19  20
HETATM   20  C   UNL     1      -8.553  15.215  67.551  1.00  0.00    -0.180 A  
HETATM   21  C   UNL     1      -9.194  16.447  67.688  1.00  0.00    -0.199 A  
HETATM   22  C   UNL     1     -10.527  16.949  67.712  1.00  0.00    -0.340 A  
HETATM   23  C   UNL     1     -10.457  18.312  67.911  1.00  0.00    -0.388 A  
HETATM   24  N   UNL     1      -9.133  18.658  67.985  1.00  0.00    -0.297 NA 
HETATM   25  H   UNL     1      -8.780  19.603  68.131  1.00  0.00     0.000 HD 
HETATM   26  C   UNL     1      -8.356  17.541  67.833  1.00  0.00    -0.229 A  
HETATM   27  N   UNL     1      -7.015  17.539  67.836  1.00  0.00    -0.178 NA 
HETATM   28  C   UNL     1      -6.519  16.301  67.665  1.00  0.00    -0.158 A  
HETATM   29  N   UNL     1      -7.200  15.150  67.518  1.00  0.00    -0.186 NA 
ENDBRANCH  19  20
ENDBRANCH   8  15
ENDBRANCH   3   6
ENDBRANCH   2   3
TORSDOF 6
ENDMDL
MODEL      190
REMARK 921   NORMALIZED FREE ENERGY PREDICTED BY IDOCK:   -4.33 KCAL/MOL
REMARK 922        TOTAL FREE ENERGY PREDICTED BY IDOCK:   -6.36 KCAL/MOL
REMARK 923 INTER-LIGAND FREE ENERGY PREDICTED BY IDOCK:   -5.85 KCAL/MOL
REMARK 924 INTRA-LIGAND FREE ENERGY PREDICTED BY IDOCK:   -0.51 KCAL/MOL
REMARK 927      BINDING AFFINITY PREDICTED BY RF-SCORE:    0.00 PKD
ROOT
HETATM    1  C   UNL     1     -11.655  14.638  66.132  1.00  0.00    -0.332 C  
HETATM    2  C   UNL     1     -10.733  13.890  65.192  1.00  0.00    -0.362 C  
ENDROOT
BRANCH   2   3
HETATM    3  S   UNL     1     -11.524  12.447  64.501  1.00  0.00    -0.356 S  
HETATM    4  O   UNL     1     -12.924  12.468  64.855  1.00  0.00    -0.821 OA 
HETATM    5  O   UNL     1     -11.077  12.282  63.135  1.00  0.00    -0.372 OA 
BRANCH   3   6
HETATM    6  N   UNL     1     -10.782  11.253  65.433  1.00  0.00    -0.257 N  
HETATM    7  C   UNL     1      -9.350  10.845  65.354  1.00  0.00    -0.208 C  
HETATM    8  C   UNL     1      -9.432  10.297  66.818  1.00  0.00    -0.163 C  
HETATM    9  C   UNL     1     -10.691  11.217  66.921  1.00  0.00    -0.273 C  
BRANCH   8  10
HETATM   10  C   UNL     1      -8.236  10.552  67.726  1.00  0.00    -0.107 C  
BRANCH  10  11
HETATM   11  C   UNL     1      -7.105  11.249  66.987  1.00  0.00    -0.129 C  
HETATM   12  H1  UNL     1      -5.408  12.294  65.879  1.00  0.00     0.000 HD 
HETATM   13  N   UNL     1      -6.167  11.827  66.374  1.00  0.00    -0.455 NA 
HETATM   14  H2  UNL     1      -6.443  12.418  65.589  1.00  0.00     0.000 HD 
ENDBRANCH  10  11
ENDBRANCH   8  10
BRANCH   8  15
HETATM   15  N   UNL     1      -9.741   8.875  66.773  1.00  0.00    -0.197 NA 
HETATM   16  N   UNL     1     -10.841   8.394  67.395  1.00  0.00    -0.134 NA 
HETATM   17  C   UNL     1      -9.001   7.885  66.183  1.00  0.00    -0.175 A  
HETATM   18  C   UNL     1     -10.779   7.077  67.191  1.00  0.00    -0.363 A  
HETATM   19  C   UNL     1      -9.647   6.697  66.448  1.00  0.00    -0.147 A  
BRANCH  19  20
HETATM   20  C   UNL     1      -9.203   5.410  65.984  1.00  0.00    -0.158 A  
HETATM   21  C   UNL     1      -8.476   5.271  64.801  1.00  0.00    -0.149 A  
HETATM   22  C   UNL     1      -8.029   6.097  63.730  1.00  0.00    -0.101 A  
HETATM   23  C   UNL     1      -7.312   5.304  62.860  1.00  0.00    -0.044 A  
HETATM   24  N   UNL     1      -7.328   4.024  63.350  1.00  0.00    -0.050 NA 
HETATM   25  H   UNL     1      -6.873   3.221  62.913  1.00  0.00     0.000 HD 
HETATM   26  C   UNL     1      -8.044   3.986  64.516  1.00  0.00    -0.087 A  
HETATM   27  N   UNL     1      -8.266   2.878  65.239  1.00  0.00    -0.090 NA 
HETATM   28  C   UNL     1      -9.002   3.137  66.333  1.00  0.00    -0.152 A  
HETATM   29  N   UNL     1      -9.484   4.324  66.744  1.00  0.00    -0.171 NA 
ENDBRANCH  19  20
ENDBRANCH   8  15
ENDBRANCH   3   6
ENDBRANCH   2   3
TORSDOF 6
ENDMDL
MODEL      191
REMARK 921   NORMALIZED FREE ENERGY PREDICTED BY IDOCK:   -4.31 KCAL/MOL
REMARK 922        TOTAL FREE ENERGY PREDICTED BY IDOCK:   -6.33 KCAL/MOL
REMARK 923 INTER-LIGAND FREE ENERGY PREDICTED BY IDOCK:   -5.73 KCAL/MOL
REMARK 924 INTRA-LIGAND FREE ENERGY PREDICTED BY IDOCK:   -0.60 KCAL/MOL
REMARK 927      BINDING AFFINITY PREDICTED BY RF-SCORE:    0.00 PKD
ROOT
HETATM    1  C   UNL     1      -6.533   9.999  64.696  1.00  0.00    -0.125 C  
HETATM    2  C   UNL     1      -6.155   8.536  64.602  1.00  0.00    -0.065 C  
ENDROOT
BRANCH   2   3
HETATM    3  S   UNL     1      -7.409   7.483  65.312  1.00  0.00    -0.076 S  
HETATM    4  O   UNL     1      -8.321   7.074  64.269  1.00  0.00    -0.008 OA 
HETATM    5  O   UNL     1      -6.772   6.531  66.195  1.00  0.00    -0.046 OA 
BRANCH   3   6
HETATM    6  N   UNL     1      -8.210   8.617  66.271  1.00  0.00    -0.112 N  
HETATM    7  C   UNL     1      -9.680   8.872  66.282  1.00  0.00    -0.275 C  
HETATM    8  C   UNL     1      -9.559   9.463  67.727  1.00  0.00    -0.134 C  
HETATM    9  C   UNL     1      -8.205   8.683  67.760  1.00  0.00    -0.118 C  
BRANCH   8  10
HETATM   10  C   UNL     1     -10.658   9.109  68.719  1.00  0.00    -0.208 C  
BRANCH  10  11
HETATM   11  C   UNL     1     -11.080  10.312  69.547  1.00  0.00    -0.262 C  
HETATM   12  H1  UNL     1     -11.713  12.117  70.789  1.00  0.00     0.000 HD 
HETATM   13  N   UNL     1     -11.429  11.310  70.234  1.00  0.00    -0.478 NA 
HETATM   14  H2  UNL     1     -10.679  11.804  70.718  1.00  0.00     0.000 HD 
ENDBRANCH  10  11
ENDBRANCH   8  10
BRANCH   8  15
HETATM   15  N   UNL     1      -9.406  10.908  67.633  1.00  0.00    -0.155 NA 
HETATM   16  N   UNL     1      -8.586  11.566  68.483  1.00  0.00    -0.154 NA 
HETATM   17  C   UNL     1     -10.054  11.755  66.773  1.00  0.00    -0.209 A  
HETATM   18  C   UNL     1      -8.731  12.848  68.147  1.00  0.00    -0.190 A  
HETATM   19  C   UNL     1      -9.641  13.031  67.091  1.00  0.00    -0.230 A  
BRANCH  19  20
HETATM   20  C   UNL     1     -10.073  14.219  66.404  1.00  0.00    -0.288 A  
HETATM   21  C   UNL     1     -10.053  15.470  67.023  1.00  0.00    -0.254 A  
HETATM   22  C   UNL     1      -9.765  16.008  68.310  1.00  0.00    -0.214 A  
HETATM   23  C   UNL     1      -9.924  17.376  68.236  1.00  0.00    -0.320 A  
HETATM   24  N   UNL     1     -10.321  17.684  66.960  1.00  0.00    -0.332 NA 
HETATM   25  H   UNL     1     -10.512  18.624  66.615  1.00  0.00     0.000 HD 
HETATM   26  C   UNL     1     -10.421  16.537  66.220  1.00  0.00    -0.281 A  
HETATM   27  N   UNL     1     -10.805  16.489  64.936  1.00  0.00    -0.702 NA 
HETATM   28  C   UNL     1     -10.813  15.230  64.465  1.00  0.00    -0.119 A  
HETATM   29  N   UNL     1     -10.478  14.101  65.117  1.00  0.00    -0.378 NA 
ENDBRANCH  19  20
ENDBRANCH   8  15
ENDBRANCH   3   6
ENDBRANCH   2   3
TORSDOF 6
ENDMDL
MODEL      192
REMARK 921   NORMALIZED FREE ENERGY PREDICTED BY IDOCK:   -4.30 KCAL/MOL
REMARK 922        TOTAL FREE ENERGY PREDICTED BY IDOCK:   -6.32 KCAL/MOL
REMARK 923 INTER-LIGAND FREE ENERGY PREDICTED BY IDOCK:   -5.97 KCAL/MOL
REMARK 924 INTRA-LIGAND FREE ENERGY PREDICTED BY IDOCK:   -0.35 KCAL/MOL
REMARK 927      BINDING AFFINITY PREDICTED BY RF-SCORE:    0.00 PKD
ROOT
HETATM    1  C   UNL     1     -11.654  15.088  65.244  1.00  0.00    -0.258 C  
HETATM    2  C   UNL     1     -10.862  13.975  64.591  1.00  0.00    -0.403 C  
ENDROOT
BRANCH   2   3
HETATM    3  S   UNL     1     -11.654  12.390  64.803  1.00  0.00    -0.351 S  
HETATM    4  O   UNL     1     -12.986  12.598  65.320  1.00  0.00    -0.657 OA 
HETATM    5  O   UNL     1     -11.401  11.584  63.628  1.00  0.00    -0.411 OA 
BRANCH   3   6
HETATM    6  N   UNL     1     -10.711  11.777  66.060  1.00  0.00    -0.270 N  
HETATM    7  C   UNL     1      -9.573  10.823  65.916  1.00  0.00    -0.208 C  
HETATM    8  C   UNL     1      -8.991  11.324  67.280  1.00  0.00    -0.149 C  
HETATM    9  C   UNL     1      -9.902  12.569  67.030  1.00  0.00    -0.217 C  
BRANCH   8  10
HETATM   10  C   UNL     1      -7.481  11.500  67.372  1.00  0.00    -0.127 C  
BRANCH  10  11
HETATM   11  C   UNL     1      -7.088  12.966  67.451  1.00  0.00    -0.125 C  
HETATM   12  H1  UNL     1      -6.498  15.167  67.569  1.00  0.00     0.000 HD 
HETATM   13  N   UNL     1      -6.762  14.183  67.516  1.00  0.00    -0.256 NA 
HETATM   14  H2  UNL     1      -5.889  14.437  67.051  1.00  0.00     0.000 HD 
ENDBRANCH  10  11
ENDBRANCH   8  10
BRANCH   8  15
HETATM   15  N   UNL     1      -9.465  10.449  68.344  1.00  0.00    -0.145 NA 
HETATM   16  N   UNL     1     -10.494  10.828  69.134  1.00  0.00    -0.209 NA 
HETATM   17  C   UNL     1      -8.950   9.232  68.707  1.00  0.00    -0.132 A  
HETATM   18  C   UNL     1     -10.619   9.828  70.008  1.00  0.00    -0.276 A  
HETATM   19  C   UNL     1      -9.676   8.806  69.797  1.00  0.00    -0.179 A  
BRANCH  19  20
HETATM   20  C   UNL     1      -9.466   7.553  70.473  1.00  0.00    -0.164 A  
HETATM   21  C   UNL     1     -10.464   6.967  71.253  1.00  0.00    -0.228 A  
HETATM   22  C   UNL     1     -11.776   7.286  71.707  1.00  0.00    -0.321 A  
HETATM   23  C   UNL     1     -12.232   6.219  72.452  1.00  0.00    -0.081 A  
HETATM   24  N   UNL     1     -11.237   5.277  72.487  1.00  0.00    -0.238 NA 
HETATM   25  H   UNL     1     -11.296   4.378  72.966  1.00  0.00     0.000 HD 
HETATM   26  C   UNL     1     -10.154   5.724  71.780  1.00  0.00    -0.187 A  
HETATM   27  N   UNL     1      -9.005   5.047  71.636  1.00  0.00    -0.132 NA 
HETATM   28  C   UNL     1      -8.116   5.729  70.893  1.00  0.00    -0.119 A  
HETATM   29  N   UNL     1      -8.273   6.933  70.312  1.00  0.00    -0.127 NA 
ENDBRANCH  19  20
ENDBRANCH   8  15
ENDBRANCH   3   6
ENDBRANCH   2   3
TORSDOF 6
ENDMDL
MODEL      193
REMARK 921   NORMALIZED FREE ENERGY PREDICTED BY IDOCK:   -4.30 KCAL/MOL
REMARK 922        TOTAL FREE ENERGY PREDICTED BY IDOCK:   -6.32 KCAL/MOL
REMARK 923 INTER-LIGAND FREE ENERGY PREDICTED BY IDOCK:   -5.70 KCAL/MOL
REMARK 924 INTRA-LIGAND FREE ENERGY PREDICTED BY IDOCK:   -0.62 KCAL/MOL
REMARK 927      BINDING AFFINITY PREDICTED BY RF-SCORE:    0.00 PKD
ROOT
HETATM    1  C   UNL     1     -12.807  13.198  65.008  1.00  0.00    -0.370 C  
HETATM    2  C   UNL     1     -12.610  13.365  66.500  1.00  0.00    -0.040 C  
ENDROOT
BRANCH   2   3
HETATM    3  S   UNL     1     -10.992  14.014  66.884  1.00  0.00    -0.303 S  
HETATM    4  O   UNL     1     -10.408  14.554  65.679  1.00  0.00    -0.310 OA 
HETATM    5  O   UNL     1     -11.077  14.777  68.110  1.00  0.00    -0.259 OA 
BRANCH   3   6
HETATM    6  N   UNL     1     -10.193  12.570  67.232  1.00  0.00    -0.216 N  
HETATM    7  C   UNL     1      -9.607  11.630  66.232  1.00  0.00    -0.221 C  
HETATM    8  C   UNL     1      -8.640  11.075  67.331  1.00  0.00    -0.132 C  
HETATM    9  C   UNL     1      -8.969  12.412  68.070  1.00  0.00    -0.194 C  
BRANCH   8  10
HETATM   10  C   UNL     1      -7.206  10.778  66.913  1.00  0.00    -0.115 C  
BRANCH  10  11
HETATM   11  C   UNL     1      -7.070  10.669  65.403  1.00  0.00    -0.011 C  
HETATM   12  H1  UNL     1      -6.865  10.505  63.137  1.00  0.00     0.000 HD 
HETATM   13  N   UNL     1      -6.957  10.579  64.150  1.00  0.00    -0.344 NA 
HETATM   14  H2  UNL     1      -7.822  10.668  63.615  1.00  0.00     0.000 HD 
ENDBRANCH  10  11
ENDBRANCH   8  10
BRANCH   8  15
HETATM   15  N   UNL     1      -9.245   9.898  67.940  1.00  0.00    -0.131 NA 
HETATM   16  N   UNL     1      -9.674   8.873  67.170  1.00  0.00    -0.171 NA 
HETATM   17  C   UNL     1      -9.495   9.691  69.271  1.00  0.00    -0.179 A  
HETATM   18  C   UNL     1     -10.205   8.014  68.041  1.00  0.00    -0.210 A  
HETATM   19  C   UNL     1     -10.131   8.473  69.368  1.00  0.00    -0.205 A  
BRANCH  19  20
HETATM   20  C   UNL     1     -10.549   7.872  70.607  1.00  0.00    -0.219 A  
HETATM   21  C   UNL     1      -9.757   7.938  71.755  1.00  0.00    -0.219 A  
HETATM   22  C   UNL     1      -8.468   8.417  72.124  1.00  0.00    -0.245 A  
HETATM   23  C   UNL     1      -8.304   8.182  73.473  1.00  0.00    -0.236 A  
HETATM   24  N   UNL     1      -9.436   7.557  73.929  1.00  0.00    -0.349 NA 
HETATM   25  H   UNL     1      -9.597   7.264  74.893  1.00  0.00     0.000 HD 
HETATM   26  C   UNL     1     -10.316   7.387  72.896  1.00  0.00    -0.279 A  
HETATM   27  N   UNL     1     -11.513   6.789  73.003  1.00  0.00    -0.085 NA 
HETATM   28  C   UNL     1     -12.163   6.761  71.827  1.00  0.00    -0.358 A  
HETATM   29  N   UNL     1     -11.755   7.257  70.645  1.00  0.00    -0.296 NA 
ENDBRANCH  19  20
ENDBRANCH   8  15
ENDBRANCH   3   6
ENDBRANCH   2   3
TORSDOF 6
ENDMDL
MODEL      194
REMARK 921   NORMALIZED FREE ENERGY PREDICTED BY IDOCK:   -4.25 KCAL/MOL
REMARK 922        TOTAL FREE ENERGY PREDICTED BY IDOCK:   -6.26 KCAL/MOL
REMARK 923 INTER-LIGAND FREE ENERGY PREDICTED BY IDOCK:   -5.42 KCAL/MOL
REMARK 924 INTRA-LIGAND FREE ENERGY PREDICTED BY IDOCK:   -0.84 KCAL/MOL
REMARK 927      BINDING AFFINITY PREDICTED BY RF-SCORE:    0.00 PKD
ROOT
HETATM    1  C   UNL     1      -8.827   8.923  66.325  1.00  0.00    -0.187 C  
HETATM    2  C   UNL     1      -7.986   8.143  65.336  1.00  0.00    -0.126 C  
ENDROOT
BRANCH   2   3
HETATM    3  S   UNL     1      -6.781   7.115  66.158  1.00  0.00    -0.054 S  
HETATM    4  O   UNL     1      -6.585   5.914  65.381  1.00  0.00    -0.041 OA 
HETATM    5  O   UNL     1      -5.677   7.945  66.587  1.00  0.00    -0.037 OA 
BRANCH   3   6
HETATM    6  N   UNL     1      -7.670   6.693  67.529  1.00  0.00    -0.108 N  
HETATM    7  C   UNL     1      -8.321   5.375  67.778  1.00  0.00    -0.099 C  
HETATM    8  C   UNL     1      -8.282   5.654  69.318  1.00  0.00    -0.096 C  
HETATM    9  C   UNL     1      -7.184   6.699  68.938  1.00  0.00    -0.091 C  
BRANCH   8  10
HETATM   10  C   UNL     1      -7.930   4.487  70.230  1.00  0.00    -0.063 C  
BRANCH  10  11
HETATM   11  C   UNL     1      -8.240   4.796  71.686  1.00  0.00    -0.109 C  
HETATM   12  H1  UNL     1      -8.704   5.258  73.871  1.00  0.00     0.000 HD 
HETATM   13  N   UNL     1      -8.496   5.051  72.894  1.00  0.00    -0.115 NA 
HETATM   14  H2  UNL     1      -7.689   5.172  73.507  1.00  0.00     0.000 HD 
ENDBRANCH  10  11
ENDBRANCH   8  10
BRANCH   8  15
HETATM   15  N   UNL     1      -9.549   6.249  69.721  1.00  0.00    -0.150 NA 
HETATM   16  N   UNL     1     -10.702   5.553  69.599  1.00  0.00    -0.321 NA 
HETATM   17  C   UNL     1      -9.754   7.517  70.198  1.00  0.00    -0.172 A  
HETATM   18  C   UNL     1     -11.641   6.407  70.006  1.00  0.00    -0.377 A  
HETATM   19  C   UNL     1     -11.112   7.654  70.384  1.00  0.00    -0.270 A  
BRANCH  19  20
HETATM   20  C   UNL     1     -11.746   8.839  70.899  1.00  0.00    -0.258 A  
HETATM   21  C   UNL     1     -11.536  10.090  70.318  1.00  0.00    -0.354 A  
HETATM   22  C   UNL     1     -10.740  10.655  69.281  1.00  0.00    -0.275 A  
HETATM   23  C   UNL     1     -11.044  11.998  69.204  1.00  0.00    -0.215 A  
HETATM   24  N   UNL     1     -11.976  12.272  70.171  1.00  0.00    -0.425 NA 
HETATM   25  H   UNL     1     -12.389  13.189  70.346  1.00  0.00     0.000 HD 
HETATM   26  C   UNL     1     -12.270  11.130  70.864  1.00  0.00    -0.364 A  
HETATM   27  N   UNL     1     -13.133  11.061  71.890  1.00  0.00    -0.483 NA 
HETATM   28  C   UNL     1     -13.222   9.813  72.381  1.00  0.00    -0.275 A  
HETATM   29  N   UNL     1     -12.583   8.708  71.956  1.00  0.00    -0.354 NA 
ENDBRANCH  19  20
ENDBRANCH   8  15
ENDBRANCH   3   6
ENDBRANCH   2   3
TORSDOF 6
ENDMDL
MODEL      195
REMARK 921   NORMALIZED FREE ENERGY PREDICTED BY IDOCK:   -4.25 KCAL/MOL
REMARK 922        TOTAL FREE ENERGY PREDICTED BY IDOCK:   -6.25 KCAL/MOL
REMARK 923 INTER-LIGAND FREE ENERGY PREDICTED BY IDOCK:   -5.36 KCAL/MOL
REMARK 924 INTRA-LIGAND FREE ENERGY PREDICTED BY IDOCK:   -0.89 KCAL/MOL
REMARK 927      BINDING AFFINITY PREDICTED BY RF-SCORE:    0.00 PKD
ROOT
HETATM    1  C   UNL     1     -12.165  12.977  67.388  1.00  0.00    -0.155 C  
HETATM    2  C   UNL     1     -10.868  13.628  67.821  1.00  0.00    -0.253 C  
ENDROOT
BRANCH   2   3
HETATM    3  S   UNL     1      -9.573  13.383  66.618  1.00  0.00    -0.268 S  
HETATM    4  O   UNL     1     -10.171  13.012  65.357  1.00  0.00    -0.292 OA 
HETATM    5  O   UNL     1      -8.622  14.467  66.731  1.00  0.00    -0.210 OA 
BRANCH   3   6
HETATM    6  N   UNL     1      -8.854  12.000  67.265  1.00  0.00    -0.175 N  
HETATM    7  C   UNL     1      -8.915  10.628  66.683  1.00  0.00    -0.150 C  
HETATM    8  C   UNL     1      -7.603  10.252  67.449  1.00  0.00    -0.094 C  
HETATM    9  C   UNL     1      -7.403  11.800  67.540  1.00  0.00    -0.127 C  
BRANCH   8  10
HETATM   10  C   UNL     1      -6.581   9.402  66.707  1.00  0.00    -0.068 C  
BRANCH  10  11
HETATM   11  C   UNL     1      -7.174   8.080  66.247  1.00  0.00    -0.071 C  
HETATM   12  H1  UNL     1      -8.064   6.096  65.557  1.00  0.00     0.000 HD 
HETATM   13  N   UNL     1      -7.667   6.983  65.865  1.00  0.00    -0.096 NA 
HETATM   14  H2  UNL     1      -8.374   7.042  65.131  1.00  0.00     0.000 HD 
ENDBRANCH  10  11
ENDBRANCH   8  10
BRANCH   8  15
HETATM   15  N   UNL     1      -7.960   9.627  68.716  1.00  0.00    -0.087 NA 
HETATM   16  N   UNL     1      -7.132   9.718  69.780  1.00  0.00    -0.080 NA 
HETATM   17  C   UNL     1      -9.072   8.874  68.983  1.00  0.00    -0.137 A  
HETATM   18  C   UNL     1      -7.741   9.003  70.727  1.00  0.00    -0.128 A  
HETATM   19  C   UNL     1      -8.953   8.443  70.286  1.00  0.00    -0.147 A  
BRANCH  19  20
HETATM   20  C   UNL     1      -9.931   7.637  70.967  1.00  0.00    -0.182 A  
HETATM   21  C   UNL     1     -11.154   8.167  71.383  1.00  0.00    -0.291 A  
HETATM   22  C   UNL     1     -11.802   9.434  71.411  1.00  0.00    -0.447 A  
HETATM   23  C   UNL     1     -13.057   9.251  71.953  1.00  0.00    -0.415 A  
HETATM   24  N   UNL     1     -13.183   7.925  72.277  1.00  0.00    -0.521 NA 
HETATM   25  H   UNL     1     -14.011   7.498  72.694  1.00  0.00     0.000 HD 
HETATM   26  C   UNL     1     -12.031   7.260  71.954  1.00  0.00    -0.306 A  
HETATM   27  N   UNL     1     -11.822   5.952  72.161  1.00  0.00    -0.249 NA 
HETATM   28  C   UNL     1     -10.601   5.571  71.748  1.00  0.00    -0.235 A  
HETATM   29  N   UNL     1      -9.649   6.329  71.174  1.00  0.00    -0.174 NA 
ENDBRANCH  19  20
ENDBRANCH   8  15
ENDBRANCH   3   6
ENDBRANCH   2   3
TORSDOF 6
ENDMDL
MODEL      196
REMARK 921   NORMALIZED FREE ENERGY PREDICTED BY IDOCK:   -4.24 KCAL/MOL
REMARK 922        TOTAL FREE ENERGY PREDICTED BY IDOCK:   -6.23 KCAL/MOL
REMARK 923 INTER-LIGAND FREE ENERGY PREDICTED BY IDOCK:   -5.52 KCAL/MOL
REMARK 924 INTRA-LIGAND FREE ENERGY PREDICTED BY IDOCK:   -0.72 KCAL/MOL
REMARK 927      BINDING AFFINITY PREDICTED BY RF-SCORE:    0.00 PKD
ROOT
HETATM    1  C   UNL     1     -10.354   5.161  66.102  1.00  0.00    -0.280 C  
HETATM    2  C   UNL     1     -10.934   6.089  67.149  1.00  0.00    -0.268 C  
ENDROOT
BRANCH   2   3
HETATM    3  S   UNL     1     -10.202   5.813  68.753  1.00  0.00    -0.216 S  
HETATM    4  O   UNL     1     -11.254   5.726  69.738  1.00  0.00    -0.355 OA 
HETATM    5  O   UNL     1      -9.177   4.800  68.629  1.00  0.00    -0.111 OA 
BRANCH   3   6
HETATM    6  N   UNL     1      -9.432   7.300  68.963  1.00  0.00    -0.148 N  
HETATM    7  C   UNL     1      -9.556   8.190  70.154  1.00  0.00    -0.168 C  
HETATM    8  C   UNL     1      -8.178   8.843  69.801  1.00  0.00    -0.119 C  
HETATM    9  C   UNL     1      -7.962   7.547  68.954  1.00  0.00    -0.126 C  
BRANCH   8  10
HETATM   10  C   UNL     1      -7.238   9.155  70.957  1.00  0.00    -0.113 C  
BRANCH  10  11
HETATM   11  C   UNL     1      -7.508   8.266  72.160  1.00  0.00    -0.118 C  
HETATM   12  H1  UNL     1      -7.914   6.932  73.965  1.00  0.00     0.000 HD 
HETATM   13  N   UNL     1      -7.733   7.529  73.158  1.00  0.00    -0.095 NA 
HETATM   14  H2  UNL     1      -8.497   7.822  73.768  1.00  0.00     0.000 HD 
ENDBRANCH  10  11
ENDBRANCH   8  10
BRANCH   8  15
HETATM   15  N   UNL     1      -8.414  10.038  69.002  1.00  0.00    -0.136 NA 
HETATM   16  N   UNL     1      -7.378  10.705  68.446  1.00  0.00    -0.087 NA 
HETATM   17  C   UNL     1      -9.617  10.644  68.754  1.00  0.00    -0.186 A  
HETATM   18  C   UNL     1      -7.949  11.749  67.845  1.00  0.00    -0.141 A  
HETATM   19  C   UNL     1      -9.346  11.771  68.009  1.00  0.00    -0.184 A  
BRANCH  19  20
HETATM   20  C   UNL     1     -10.346  12.681  67.519  1.00  0.00    -0.218 A  
HETATM   21  C   UNL     1     -10.419  13.999  67.971  1.00  0.00    -0.241 A  
HETATM   22  C   UNL     1      -9.775  14.823  68.938  1.00  0.00    -0.215 A  
HETATM   23  C   UNL     1     -10.330  16.082  68.852  1.00  0.00    -0.235 A  
HETATM   24  N   UNL     1     -11.302  16.047  67.886  1.00  0.00    -0.275 NA 
HETATM   25  H   UNL     1     -11.879  16.839  67.604  1.00  0.00     0.000 HD 
HETATM   26  C   UNL     1     -11.379  14.787  67.357  1.00  0.00    -0.351 A  
HETATM   27  N   UNL     1     -12.244  14.412  66.402  1.00  0.00    -0.392 NA 
HETATM   28  C   UNL     1     -12.095  13.117  66.077  1.00  0.00    -0.436 A  
HETATM   29  N   UNL     1     -11.210  12.234  66.576  1.00  0.00    -0.306 NA 
ENDBRANCH  19  20
ENDBRANCH   8  15
ENDBRANCH   3   6
ENDBRANCH   2   3
TORSDOF 6
ENDMDL
MODEL      197
REMARK 921   NORMALIZED FREE ENERGY PREDICTED BY IDOCK:   -4.23 KCAL/MOL
REMARK 922        TOTAL FREE ENERGY PREDICTED BY IDOCK:   -6.22 KCAL/MOL
REMARK 923 INTER-LIGAND FREE ENERGY PREDICTED BY IDOCK:   -5.80 KCAL/MOL
REMARK 924 INTRA-LIGAND FREE ENERGY PREDICTED BY IDOCK:   -0.43 KCAL/MOL
REMARK 927      BINDING AFFINITY PREDICTED BY RF-SCORE:    0.00 PKD
ROOT
HETATM    1  C   UNL     1     -10.497  15.856  65.988  1.00  0.00    -0.357 C  
HETATM    2  C   UNL     1     -11.601  14.869  66.306  1.00  0.00    -0.233 C  
ENDROOT
BRANCH   2   3
HETATM    3  S   UNL     1     -11.253  13.251  65.639  1.00  0.00    -0.289 S  
HETATM    4  O   UNL     1     -12.458  12.456  65.691  1.00  0.00    -0.640 OA 
HETATM    5  O   UNL     1     -10.483  13.405  64.424  1.00  0.00    -0.426 OA 
BRANCH   3   6
HETATM    6  N   UNL     1     -10.214  12.677  66.838  1.00  0.00    -0.233 N  
HETATM    7  C   UNL     1      -8.759  12.392  66.672  1.00  0.00    -0.119 C  
HETATM    8  C   UNL     1      -8.556  12.568  68.214  1.00  0.00    -0.173 C  
HETATM    9  C   UNL     1      -9.919  13.330  68.145  1.00  0.00    -0.234 C  
BRANCH   8  10
HETATM   10  C   UNL     1      -7.305  13.303  68.674  1.00  0.00    -0.101 C  
BRANCH  10  11
HETATM   11  C   UNL     1      -7.515  14.808  68.711  1.00  0.00    -0.133 C  
HETATM   12  H1  UNL     1      -7.831  17.066  68.768  1.00  0.00     0.000 HD 
HETATM   13  N   UNL     1      -7.690  16.057  68.743  1.00  0.00    -0.174 NA 
HETATM   14  H2  UNL     1      -8.607  16.372  69.061  1.00  0.00     0.000 HD 
ENDBRANCH  10  11
ENDBRANCH   8  10
BRANCH   8  15
HETATM   15  N   UNL     1      -8.642  11.262  68.853  1.00  0.00    -0.103 NA 
HETATM   16  N   UNL     1      -7.530  10.515  69.033  1.00  0.00    -0.101 NA 
HETATM   17  C   UNL     1      -9.774  10.625  69.287  1.00  0.00    -0.160 A  
HETATM   18  C   UNL     1      -7.982   9.389  69.587  1.00  0.00    -0.109 A  
HETATM   19  C   UNL     1      -9.377   9.394  69.762  1.00  0.00    -0.217 A  
BRANCH  19  20
HETATM   20  C   UNL     1     -10.268   8.419  70.333  1.00  0.00    -0.197 A  
HETATM   21  C   UNL     1     -10.089   7.051  70.116  1.00  0.00    -0.197 A  
HETATM   22  C   UNL     1      -9.232   6.204  69.357  1.00  0.00    -0.137 A  
HETATM   23  C   UNL     1      -9.590   4.899  69.624  1.00  0.00    -0.173 A  
HETATM   24  N   UNL     1     -10.646   4.925  70.498  1.00  0.00    -0.100 NA 
HETATM   25  H   UNL     1     -11.119   4.103  70.873  1.00  0.00     0.000 HD 
HETATM   26  C   UNL     1     -10.971   6.222  70.790  1.00  0.00    -0.297 A  
HETATM   27  N   UNL     1     -11.973   6.594  71.600  1.00  0.00    -0.334 NA 
HETATM   28  C   UNL     1     -12.061   7.931  71.702  1.00  0.00    -0.299 A  
HETATM   29  N   UNL     1     -11.279   8.858  71.119  1.00  0.00    -0.264 NA 
ENDBRANCH  19  20
ENDBRANCH   8  15
ENDBRANCH   3   6
ENDBRANCH   2   3
TORSDOF 6
ENDMDL
MODEL      198
REMARK 921   NORMALIZED FREE ENERGY PREDICTED BY IDOCK:   -4.14 KCAL/MOL
REMARK 922        TOTAL FREE ENERGY PREDICTED BY IDOCK:   -6.10 KCAL/MOL
REMARK 923 INTER-LIGAND FREE ENERGY PREDICTED BY IDOCK:   -5.50 KCAL/MOL
REMARK 924 INTRA-LIGAND FREE ENERGY PREDICTED BY IDOCK:   -0.60 KCAL/MOL
REMARK 927      BINDING AFFINITY PREDICTED BY RF-SCORE:    0.00 PKD
ROOT
HETATM    1  C   UNL     1     -11.665  15.526  70.294  1.00  0.00    -0.367 C  
HETATM    2  C   UNL     1     -11.836  15.622  68.792  1.00  0.00    -0.321 C  
ENDROOT
BRANCH   2   3
HETATM    3  S   UNL     1     -10.310  15.283  67.931  1.00  0.00    -0.249 S  
HETATM    4  O   UNL     1     -10.362  15.902  66.627  1.00  0.00    -0.287 OA 
HETATM    5  O   UNL     1      -9.206  15.494  68.841  1.00  0.00    -0.188 OA 
BRANCH   3   6
HETATM    6  N   UNL     1     -10.483  13.619  67.710  1.00  0.00    -0.237 N  
HETATM    7  C   UNL     1      -9.994  12.557  68.636  1.00  0.00    -0.103 C  
HETATM    8  C   UNL     1     -11.058  11.569  68.054  1.00  0.00    -0.254 C  
HETATM    9  C   UNL     1     -11.765  12.872  67.559  1.00  0.00    -0.367 C  
BRANCH   8  10
HETATM   10  C   UNL     1     -11.772  10.652  69.039  1.00  0.00    -0.305 C  
BRANCH  10  11
HETATM   11  C   UNL     1     -12.221  11.401  70.283  1.00  0.00    -0.349 C  
HETATM   12  H1  UNL     1     -12.895  12.525  72.150  1.00  0.00     0.000 HD 
HETATM   13  N   UNL     1     -12.594  12.022  71.316  1.00  0.00    -0.316 NA 
HETATM   14  H2  UNL     1     -12.907  11.444  72.097  1.00  0.00     0.000 HD 
ENDBRANCH  10  11
ENDBRANCH   8  10
BRANCH   8  15
HETATM   15  N   UNL     1     -10.444  10.789  66.989  1.00  0.00    -0.235 NA 
HETATM   16  N   UNL     1     -10.515  11.208  65.705  1.00  0.00    -0.254 NA 
HETATM   17  C   UNL     1      -9.798   9.587  67.109  1.00  0.00    -0.185 A  
HETATM   18  C   UNL     1      -9.904  10.245  65.015  1.00  0.00    -0.329 A  
HETATM   19  C   UNL     1      -9.442   9.201  65.836  1.00  0.00    -0.326 A  
BRANCH  19  20
HETATM   20  C   UNL     1      -8.719   7.996  65.525  1.00  0.00    -0.102 A  
HETATM   21  C   UNL     1      -7.682   7.986  64.590  1.00  0.00    -0.126 A  
HETATM   22  C   UNL     1      -7.073   8.893  63.677  1.00  0.00    -0.088 A  
HETATM   23  C   UNL     1      -6.045   8.225  63.046  1.00  0.00    -0.081 A  
HETATM   24  N   UNL     1      -6.024   6.941  63.526  1.00  0.00    -0.035 NA 
HETATM   25  H   UNL     1      -5.364   6.217  63.239  1.00  0.00     0.000 HD 
HETATM   26  C   UNL     1      -7.021   6.777  64.448  1.00  0.00    -0.054 A  
HETATM   27  N   UNL     1      -7.284   5.630  65.092  1.00  0.00    -0.068 NA 
HETATM   28  C   UNL     1      -8.320   5.760  65.938  1.00  0.00    -0.130 A  
HETATM   29  N   UNL     1      -9.051   6.862  66.187  1.00  0.00    -0.145 NA 
ENDBRANCH  19  20
ENDBRANCH   8  15
ENDBRANCH   3   6
ENDBRANCH   2   3
TORSDOF 6
ENDMDL
MODEL      199
REMARK 921   NORMALIZED FREE ENERGY PREDICTED BY IDOCK:   -4.13 KCAL/MOL
REMARK 922        TOTAL FREE ENERGY PREDICTED BY IDOCK:   -6.09 KCAL/MOL
REMARK 923 INTER-LIGAND FREE ENERGY PREDICTED BY IDOCK:   -5.41 KCAL/MOL
REMARK 924 INTRA-LIGAND FREE ENERGY PREDICTED BY IDOCK:   -0.68 KCAL/MOL
REMARK 927      BINDING AFFINITY PREDICTED BY RF-SCORE:    0.00 PKD
ROOT
HETATM    1  C   UNL     1     -10.809  14.547  69.032  1.00  0.00    -0.265 C  
HETATM    2  C   UNL     1     -11.867  13.701  68.355  1.00  0.00    -0.372 C  
ENDROOT
BRANCH   2   3
HETATM    3  S   UNL     1     -11.231  12.891  66.897  1.00  0.00    -0.306 S  
HETATM    4  O   UNL     1     -12.321  12.661  65.978  1.00  0.00    -0.587 OA 
HETATM    5  O   UNL     1     -10.010  13.552  66.493  1.00  0.00    -0.272 OA 
BRANCH   3   6
HETATM    6  N   UNL     1     -10.812  11.402  67.570  1.00  0.00    -0.228 N  
HETATM    7  C   UNL     1      -9.602  11.125  68.396  1.00  0.00    -0.192 C  
HETATM    8  C   UNL     1     -10.328   9.894  69.035  1.00  0.00    -0.209 C  
HETATM    9  C   UNL     1     -11.627  10.599  68.526  1.00  0.00    -0.207 C  
BRANCH   8  10
HETATM   10  C   UNL     1     -10.130   9.664  70.527  1.00  0.00    -0.338 C  
BRANCH  10  11
HETATM   11  C   UNL     1     -11.447   9.388  71.235  1.00  0.00    -0.363 C  
HETATM   12  H1  UNL     1     -13.422   8.975  72.298  1.00  0.00     0.000 HD 
HETATM   13  N   UNL     1     -12.539   9.160  71.823  1.00  0.00    -0.344 NA 
HETATM   14  H2  UNL     1     -12.471   8.683  72.723  1.00  0.00     0.000 HD 
ENDBRANCH  10  11
ENDBRANCH   8  10
BRANCH   8  15
HETATM   15  N   UNL     1      -9.974   8.697  68.285  1.00  0.00    -0.174 NA 
HETATM   16  N   UNL     1     -10.738   8.288  67.247  1.00  0.00    -0.249 NA 
HETATM   17  C   UNL     1      -8.929   7.846  68.529  1.00  0.00    -0.133 A  
HETATM   18  C   UNL     1     -10.157   7.159  66.840  1.00  0.00    -0.238 A  
HETATM   19  C   UNL     1      -9.027   6.826  67.608  1.00  0.00    -0.115 A  
BRANCH  19  20
HETATM   20  C   UNL     1      -8.100   5.729  67.509  1.00  0.00    -0.102 A  
HETATM   21  C   UNL     1      -8.482   4.421  67.811  1.00  0.00    -0.101 A  
HETATM   22  C   UNL     1      -9.629   3.743  68.314  1.00  0.00    -0.171 A  
HETATM   23  C   UNL     1      -9.337   2.396  68.349  1.00  0.00    -0.204 A  
HETATM   24  N   UNL     1      -8.049   2.234  67.908  1.00  0.00    -0.059 NA 
HETATM   25  H   UNL     1      -7.564   1.341  67.824  1.00  0.00     0.000 HD 
HETATM   26  C   UNL     1      -7.513   3.454  67.596  1.00  0.00    -0.058 A  
HETATM   27  N   UNL     1      -6.262   3.647  67.153  1.00  0.00    -0.034 NA 
HETATM   28  C   UNL     1      -6.007   4.948  66.930  1.00  0.00    -0.027 A  
HETATM   29  N   UNL     1      -6.842   5.992  67.084  1.00  0.00    -0.061 NA 
ENDBRANCH  19  20
ENDBRANCH   8  15
ENDBRANCH   3   6
ENDBRANCH   2   3
TORSDOF 6
ENDMDL
MODEL      200
REMARK 921   NORMALIZED FREE ENERGY PREDICTED BY IDOCK:   -4.11 KCAL/MOL
REMARK 922        TOTAL FREE ENERGY PREDICTED BY IDOCK:   -6.06 KCAL/MOL
REMARK 923 INTER-LIGAND FREE ENERGY PREDICTED BY IDOCK:   -5.54 KCAL/MOL
REMARK 924 INTRA-LIGAND FREE ENERGY PREDICTED BY IDOCK:   -0.52 KCAL/MOL
REMARK 927      BINDING AFFINITY PREDICTED BY RF-SCORE:    0.00 PKD
ROOT
HETATM    1  C   UNL     1     -10.152  11.560  63.437  1.00  0.00    -0.454 C  
HETATM    2  C   UNL     1     -10.161  10.500  64.519  1.00  0.00    -0.332 C  
ENDROOT
BRANCH   2   3
HETATM    3  S   UNL     1      -8.569   9.710  64.682  1.00  0.00    -0.198 S  
HETATM    4  O   UNL     1      -8.754   8.278  64.661  1.00  0.00    -0.051 OA 
HETATM    5  O   UNL     1      -7.627  10.377  63.810  1.00  0.00    -0.125 OA 
BRANCH   3   6
HETATM    6  N   UNL     1      -8.203  10.152  66.268  1.00  0.00    -0.124 N  
HETATM    7  C   UNL     1      -6.893  10.677  66.751  1.00  0.00    -0.108 C  
HETATM    8  C   UNL     1      -7.618  11.350  67.964  1.00  0.00    -0.110 C  
HETATM    9  C   UNL     1      -8.899  11.189  67.083  1.00  0.00    -0.143 C  
BRANCH   8  10
HETATM   10  C   UNL     1      -7.152  12.742  68.370  1.00  0.00    -0.102 C  
BRANCH  10  11
HETATM   11  C   UNL     1      -6.466  12.734  69.727  1.00  0.00    -0.005 C  
HETATM   12  H1  UNL     1      -5.437  12.722  71.762  1.00  0.00     0.000 HD 
HETATM   13  N   UNL     1      -5.897  12.728  70.852  1.00  0.00    -0.485 NA 
HETATM   14  H2  UNL     1      -5.043  13.282  70.924  1.00  0.00     0.000 HD 
ENDBRANCH  10  11
ENDBRANCH   8  10
BRANCH   8  15
HETATM   15  N   UNL     1      -7.567  10.445  69.104  1.00  0.00    -0.105 NA 
HETATM   16  N   UNL     1      -6.412   9.822  69.432  1.00  0.00    -0.047 NA 
HETATM   17  C   UNL     1      -8.606  10.080  69.918  1.00  0.00    -0.146 A  
HETATM   18  C   UNL     1      -6.743   9.052  70.469  1.00  0.00    -0.058 A  
HETATM   19  C   UNL     1      -8.102   9.162  70.814  1.00  0.00    -0.207 A  
BRANCH  19  20
HETATM   20  C   UNL     1      -8.870   8.545  71.862  1.00  0.00    -0.216 A  
HETATM   21  C   UNL     1     -10.183   8.120  71.653  1.00  0.00    -0.266 A  
HETATM   22  C   UNL     1     -11.158   8.169  70.615  1.00  0.00    -0.264 A  
HETATM   23  C   UNL     1     -12.285   7.517  71.068  1.00  0.00    -0.259 A  
HETATM   24  N   UNL     1     -12.039   7.096  72.350  1.00  0.00    -0.488 NA 
HETATM   25  H   UNL     1     -12.696   6.581  72.936  1.00  0.00     0.000 HD 
HETATM   26  C   UNL     1     -10.776   7.471  72.723  1.00  0.00    -0.330 A  
HETATM   27  N   UNL     1     -10.233   7.229  73.925  1.00  0.00    -0.323 NA 
HETATM   28  C   UNL     1      -8.982   7.712  74.012  1.00  0.00    -0.245 A  
HETATM   29  N   UNL     1      -8.275   8.354  73.064  1.00  0.00    -0.349 NA 
ENDBRANCH  19  20
ENDBRANCH   8  15
ENDBRANCH   3   6
ENDBRANCH   2   3
TORSDOF 6
ENDMDL
MODEL      201
REMARK 921   NORMALIZED FREE ENERGY PREDICTED BY IDOCK:   -4.10 KCAL/MOL
REMARK 922        TOTAL FREE ENERGY PREDICTED BY IDOCK:   -6.05 KCAL/MOL
REMARK 923 INTER-LIGAND FREE ENERGY PREDICTED BY IDOCK:   -5.27 KCAL/MOL
REMARK 924 INTRA-LIGAND FREE ENERGY PREDICTED BY IDOCK:   -0.79 KCAL/MOL
REMARK 927      BINDING AFFINITY PREDICTED BY RF-SCORE:    0.00 PKD
ROOT
HETATM    1  C   UNL     1     -10.994  14.417  66.892  1.00  0.00    -0.308 C  
HETATM    2  C   UNL     1     -10.109  13.509  66.063  1.00  0.00    -0.310 C  
ENDROOT
BRANCH   2   3
HETATM    3  S   UNL     1     -11.043  12.193  65.301  1.00  0.00    -0.329 S  
HETATM    4  O   UNL     1     -12.448  12.412  65.552  1.00  0.00    -0.643 OA 
HETATM    5  O   UNL     1     -10.524  11.966  63.970  1.00  0.00    -0.306 OA 
BRANCH   3   6
HETATM    6  N   UNL     1     -10.548  10.906  66.273  1.00  0.00    -0.241 N  
HETATM    7  C   UNL     1      -9.164  10.673  66.779  1.00  0.00    -0.156 C  
HETATM    8  C   UNL     1      -9.745   9.813  67.951  1.00  0.00    -0.144 C  
HETATM    9  C   UNL     1     -11.081  10.555  67.620  1.00  0.00    -0.309 C  
BRANCH   8  10
HETATM   10  C   UNL     1      -9.109   9.983  69.323  1.00  0.00    -0.208 C  
BRANCH  10  11
HETATM   11  C   UNL     1     -10.097   9.699  70.443  1.00  0.00    -0.276 C  
HETATM   12  H1  UNL     1     -11.580   9.274  72.123  1.00  0.00     0.000 HD 
HETATM   13  N   UNL     1     -10.917   9.465  71.372  1.00  0.00    -0.361 NA 
HETATM   14  H2  UNL     1     -11.393  10.277  71.764  1.00  0.00     0.000 HD 
ENDBRANCH  10  11
ENDBRANCH   8  10
BRANCH   8  15
HETATM   15  N   UNL     1      -9.735   8.411  67.556  1.00  0.00    -0.154 NA 
HETATM   16  N   UNL     1     -10.884   7.788  67.213  1.00  0.00    -0.239 NA 
HETATM   17  C   UNL     1      -8.656   7.568  67.525  1.00  0.00    -0.122 A  
HETATM   18  C   UNL     1     -10.512   6.532  66.966  1.00  0.00    -0.295 A  
HETATM   19  C   UNL     1      -9.132   6.330  67.152  1.00  0.00    -0.119 A  
BRANCH  19  20
HETATM   20  C   UNL     1      -8.310   5.162  66.979  1.00  0.00    -0.107 A  
HETATM   21  C   UNL     1      -8.190   4.531  65.739  1.00  0.00    -0.110 A  
HETATM   22  C   UNL     1      -8.746   4.650  64.434  1.00  0.00    -0.148 A  
HETATM   23  C   UNL     1      -8.155   3.691  63.638  1.00  0.00    -0.089 A  
HETATM   24  N   UNL     1      -7.280   2.981  64.418  1.00  0.00    -0.057 NA 
HETATM   25  H   UNL     1      -6.698   2.208  64.095  1.00  0.00     0.000 HD 
HETATM   26  C   UNL     1      -7.305   3.467  65.698  1.00  0.00    -0.075 A  
HETATM   27  N   UNL     1      -6.578   2.978  66.713  1.00  0.00    -0.036 NA 
HETATM   28  C   UNL     1      -6.804   3.649  67.856  1.00  0.00    -0.050 A  
HETATM   29  N   UNL     1      -7.623   4.699  68.050  1.00  0.00    -0.077 NA 
ENDBRANCH  19  20
ENDBRANCH   8  15
ENDBRANCH   3   6
ENDBRANCH   2   3
TORSDOF 6
ENDMDL
MODEL      202
REMARK 921   NORMALIZED FREE ENERGY PREDICTED BY IDOCK:   -4.07 KCAL/MOL
REMARK 922        TOTAL FREE ENERGY PREDICTED BY IDOCK:   -6.00 KCAL/MOL
REMARK 923 INTER-LIGAND FREE ENERGY PREDICTED BY IDOCK:   -5.18 KCAL/MOL
REMARK 924 INTRA-LIGAND FREE ENERGY PREDICTED BY IDOCK:   -0.82 KCAL/MOL
REMARK 927      BINDING AFFINITY PREDICTED BY RF-SCORE:    0.00 PKD
ROOT
HETATM    1  C   UNL     1      -9.820  11.473  65.456  1.00  0.00    -0.269 C  
HETATM    2  C   UNL     1      -8.421  11.302  66.010  1.00  0.00    -0.102 C  
ENDROOT
BRANCH   2   3
HETATM    3  S   UNL     1      -7.452  10.177  65.020  1.00  0.00    -0.125 S  
HETATM    4  O   UNL     1      -7.952  10.197  63.665  1.00  0.00    -0.156 OA 
HETATM    5  O   UNL     1      -6.052  10.375  65.327  1.00  0.00    -0.117 OA 
BRANCH   3   6
HETATM    6  N   UNL     1      -7.930   8.716  65.715  1.00  0.00    -0.102 N  
HETATM    7  C   UNL     1      -8.522   7.554  64.992  1.00  0.00     0.005 C  
HETATM    8  C   UNL     1      -8.043   6.604  66.140  1.00  0.00    -0.118 C  
HETATM    9  C   UNL     1      -7.066   7.775  66.484  1.00  0.00    -0.078 C  
BRANCH   8  10
HETATM   10  C   UNL     1      -7.481   5.248  65.734  1.00  0.00    -0.082 C  
BRANCH  10  11
HETATM   11  C   UNL     1      -8.481   4.128  65.975  1.00  0.00    -0.109 C  
HETATM   12  H1  UNL     1      -9.981   2.448  66.335  1.00  0.00     0.000 HD 
HETATM   13  N   UNL     1      -9.311   3.200  66.173  1.00  0.00    -0.306 NA 
HETATM   14  H2  UNL     1     -10.100   3.159  65.527  1.00  0.00     0.000 HD 
ENDBRANCH  10  11
ENDBRANCH   8  10
BRANCH   8  15
HETATM   15  N   UNL     1      -9.128   6.438  67.097  1.00  0.00    -0.118 NA 
HETATM   16  N   UNL     1     -10.406   6.325  66.671  1.00  0.00    -0.191 NA 
HETATM   17  C   UNL     1      -9.031   6.424  68.464  1.00  0.00    -0.125 A  
HETATM   18  C   UNL     1     -11.117   6.241  67.796  1.00  0.00    -0.258 A  
HETATM   19  C   UNL     1     -10.315   6.306  68.949  1.00  0.00    -0.246 A  
BRANCH  19  20
HETATM   20  C   UNL     1     -10.651   6.232  70.346  1.00  0.00    -0.252 A  
HETATM   21  C   UNL     1     -11.247   7.304  71.013  1.00  0.00    -0.291 A  
HETATM   22  C   UNL     1     -11.620   8.649  70.731  1.00  0.00    -0.273 A  
HETATM   23  C   UNL     1     -12.208   9.167  71.865  1.00  0.00    -0.379 A  
HETATM   24  N   UNL     1     -12.185   8.194  72.831  1.00  0.00    -0.636 NA 
HETATM   25  H   UNL     1     -12.555   8.295  73.776  1.00  0.00     0.000 HD 
HETATM   26  C   UNL     1     -11.589   7.067  72.334  1.00  0.00    -0.245 A  
HETATM   27  N   UNL     1     -11.391   5.938  73.031  1.00  0.00    -0.218 NA 
HETATM   28  C   UNL     1     -10.783   4.996  72.291  1.00  0.00    -0.180 A  
HETATM   29  N   UNL     1     -10.399   5.075  71.004  1.00  0.00    -0.212 NA 
ENDBRANCH  19  20
ENDBRANCH   8  15
ENDBRANCH   3   6
ENDBRANCH   2   3
TORSDOF 6
ENDMDL
MODEL      203
REMARK 921   NORMALIZED FREE ENERGY PREDICTED BY IDOCK:   -4.06 KCAL/MOL
REMARK 922        TOTAL FREE ENERGY PREDICTED BY IDOCK:   -5.99 KCAL/MOL
REMARK 923 INTER-LIGAND FREE ENERGY PREDICTED BY IDOCK:   -5.35 KCAL/MOL
REMARK 924 INTRA-LIGAND FREE ENERGY PREDICTED BY IDOCK:   -0.64 KCAL/MOL
REMARK 927      BINDING AFFINITY PREDICTED BY RF-SCORE:    0.00 PKD
ROOT
HETATM    1  C   UNL     1      -6.450  18.933  69.107  1.00  0.00    -0.313 C  
HETATM    2  C   UNL     1      -6.211  18.250  67.777  1.00  0.00    -0.180 C  
ENDROOT
BRANCH   2   3
HETATM    3  S   UNL     1      -7.582  18.482  66.659  1.00  0.00    -0.248 S  
HETATM    4  O   UNL     1      -8.392  19.579  67.135  1.00  0.00    -0.275 OA 
HETATM    5  O   UNL     1      -7.090  18.421  65.300  1.00  0.00    -0.530 OA 
BRANCH   3   6
HETATM    6  N   UNL     1      -8.430  17.056  66.963  1.00  0.00    -0.200 N  
HETATM    7  C   UNL     1      -9.264  16.773  68.167  1.00  0.00    -0.224 C  
HETATM    8  C   UNL     1     -10.065  15.703  67.353  1.00  0.00    -0.251 C  
HETATM    9  C   UNL     1      -9.493  16.455  66.107  1.00  0.00    -0.329 C  
BRANCH   8  10
HETATM   10  C   UNL     1     -11.570  15.642  67.572  1.00  0.00    -0.041 C  
BRANCH  10  11
HETATM   11  C   UNL     1     -11.920  15.467  69.041  1.00  0.00    -0.288 C  
HETATM   12  H1  UNL     1     -12.445  15.203  71.245  1.00  0.00     0.000 HD 
HETATM   13  N   UNL     1     -12.210  15.321  70.259  1.00  0.00    -0.340 NA 
HETATM   14  H2  UNL     1     -11.798  14.511  70.723  1.00  0.00     0.000 HD 
ENDBRANCH  10  11
ENDBRANCH   8  10
BRANCH   8  15
HETATM   15  N   UNL     1      -9.466  14.394  67.578  1.00  0.00    -0.204 NA 
HETATM   16  N   UNL     1      -8.449  14.250  68.457  1.00  0.00    -0.165 NA 
HETATM   17  C   UNL     1      -9.782  13.219  66.950  1.00  0.00    -0.248 A  
HETATM   18  C   UNL     1      -8.125  12.959  68.369  1.00  0.00    -0.130 A  
HETATM   19  C   UNL     1      -8.917  12.265  67.438  1.00  0.00    -0.183 A  
BRANCH  19  20
HETATM   20  C   UNL     1      -8.932  10.880  67.047  1.00  0.00    -0.143 A  
HETATM   21  C   UNL     1      -7.756  10.199  66.727  1.00  0.00    -0.105 A  
HETATM   22  C   UNL     1      -6.370  10.492  66.581  1.00  0.00    -0.084 A  
HETATM   23  C   UNL     1      -5.725   9.316  66.261  1.00  0.00    -0.053 A  
HETATM   24  N   UNL     1      -6.671   8.326  66.184  1.00  0.00    -0.053 NA 
HETATM   25  H   UNL     1      -6.482   7.348  65.966  1.00  0.00     0.000 HD 
HETATM   26  C   UNL     1      -7.908   8.851  66.446  1.00  0.00    -0.103 A  
HETATM   27  N   UNL     1      -9.052   8.150  66.432  1.00  0.00    -0.172 NA 
HETATM   28  C   UNL     1     -10.112   8.923  66.724  1.00  0.00    -0.280 A  
HETATM   29  N   UNL     1     -10.122  10.235  67.023  1.00  0.00    -0.208 NA 
ENDBRANCH  19  20
ENDBRANCH   8  15
ENDBRANCH   3   6
ENDBRANCH   2   3
TORSDOF 6
ENDMDL
MODEL      204
REMARK 921   NORMALIZED FREE ENERGY PREDICTED BY IDOCK:   -4.06 KCAL/MOL
REMARK 922        TOTAL FREE ENERGY PREDICTED BY IDOCK:   -5.99 KCAL/MOL
REMARK 923 INTER-LIGAND FREE ENERGY PREDICTED BY IDOCK:   -6.23 KCAL/MOL
REMARK 924 INTRA-LIGAND FREE ENERGY PREDICTED BY IDOCK:    0.24 KCAL/MOL
REMARK 927      BINDING AFFINITY PREDICTED BY RF-SCORE:    0.00 PKD
ROOT
HETATM    1  C   UNL     1      -7.593   8.049  71.350  1.00  0.00    -0.081 C  
HETATM    2  C   UNL     1      -7.298   7.583  69.940  1.00  0.00    -0.082 C  
ENDROOT
BRANCH   2   3
HETATM    3  S   UNL     1      -8.796   7.248  69.029  1.00  0.00    -0.131 S  
HETATM    4  O   UNL     1      -8.448   6.889  67.674  1.00  0.00    -0.122 OA 
HETATM    5  O   UNL     1      -9.663   6.427  69.846  1.00  0.00    -0.164 OA 
BRANCH   3   6
HETATM    6  N   UNL     1      -9.448   8.804  68.990  1.00  0.00    -0.159 N  
HETATM    7  C   UNL     1     -10.770   9.185  68.413  1.00  0.00    -0.115 C  
HETATM    8  C   UNL     1     -10.794  10.456  69.326  1.00  0.00    -0.241 C  
HETATM    9  C   UNL     1      -9.728   9.679  70.165  1.00  0.00    -0.254 C  
BRANCH   8  10
HETATM   10  C   UNL     1     -12.125  10.834  69.961  1.00  0.00    -0.423 C  
BRANCH  10  11
HETATM   11  C   UNL     1     -12.620   9.759  70.915  1.00  0.00    -0.263 C  
HETATM   12  H1  UNL     1     -13.363   8.145  72.346  1.00  0.00     0.000 HD 
HETATM   13  N   UNL     1     -13.032   8.867  71.706  1.00  0.00    -0.345 NA 
HETATM   14  H2  UNL     1     -13.909   9.067  72.188  1.00  0.00     0.000 HD 
ENDBRANCH  10  11
ENDBRANCH   8  10
BRANCH   8  15
HETATM   15  N   UNL     1     -10.250  11.583  68.579  1.00  0.00    -0.207 NA 
HETATM   16  N   UNL     1      -9.111  11.444  67.865  1.00  0.00    -0.159 NA 
HETATM   17  C   UNL     1     -10.743  12.860  68.531  1.00  0.00    -0.254 A  
HETATM   18  C   UNL     1      -8.890  12.661  67.367  1.00  0.00    -0.189 A  
HETATM   19  C   UNL     1      -9.871  13.591  67.755  1.00  0.00    -0.233 A  
BRANCH  19  20
HETATM   20  C   UNL     1     -10.040  14.984  67.436  1.00  0.00    -0.228 A  
HETATM   21  C   UNL     1     -10.543  15.395  66.201  1.00  0.00    -0.321 A  
HETATM   22  C   UNL     1     -10.932  14.801  64.967  1.00  0.00    -0.426 A  
HETATM   23  C   UNL     1     -11.377  15.809  64.138  1.00  0.00    -0.020 A  
HETATM   24  N   UNL     1     -11.249  16.994  64.815  1.00  0.00    -0.840 NA 
HETATM   25  H   UNL     1     -11.504  17.911  64.448  1.00  0.00     0.000 HD 
HETATM   26  C   UNL     1     -10.728  16.760  66.059  1.00  0.00    -0.138 A  
HETATM   27  N   UNL     1     -10.460  17.712  66.965  1.00  0.00    -0.329 NA 
HETATM   28  C   UNL     1      -9.953  17.194  68.097  1.00  0.00    -0.297 A  
HETATM   29  N   UNL     1      -9.724  15.899  68.383  1.00  0.00    -0.211 NA 
ENDBRANCH  19  20
ENDBRANCH   8  15
ENDBRANCH   3   6
ENDBRANCH   2   3
TORSDOF 6
ENDMDL
MODEL      205
REMARK 921   NORMALIZED FREE ENERGY PREDICTED BY IDOCK:   -4.06 KCAL/MOL
REMARK 922        TOTAL FREE ENERGY PREDICTED BY IDOCK:   -5.99 KCAL/MOL
REMARK 923 INTER-LIGAND FREE ENERGY PREDICTED BY IDOCK:   -5.11 KCAL/MOL
REMARK 924 INTRA-LIGAND FREE ENERGY PREDICTED BY IDOCK:   -0.89 KCAL/MOL
REMARK 927      BINDING AFFINITY PREDICTED BY RF-SCORE:    0.00 PKD
ROOT
HETATM    1  C   UNL     1     -11.993  13.448  67.198  1.00  0.00    -0.415 C  
HETATM    2  C   UNL     1     -11.532  14.441  66.152  1.00  0.00    -0.357 C  
ENDROOT
BRANCH   2   3
HETATM    3  S   UNL     1     -10.513  15.722  66.862  1.00  0.00    -0.317 S  
HETATM    4  O   UNL     1      -9.998  16.553  65.798  1.00  0.00    -0.436 OA 
HETATM    5  O   UNL     1     -11.196  16.277  68.010  1.00  0.00    -0.334 OA 
BRANCH   3   6
HETATM    6  N   UNL     1      -9.237  14.776  67.430  1.00  0.00    -0.190 N  
HETATM    7  C   UNL     1      -7.796  14.953  67.087  1.00  0.00    -0.170 C  
HETATM    8  C   UNL     1      -7.398  14.213  68.407  1.00  0.00    -0.115 C  
HETATM    9  C   UNL     1      -8.853  14.566  68.855  1.00  0.00    -0.103 C  
BRANCH   8  10
HETATM   10  C   UNL     1      -6.214  14.767  69.187  1.00  0.00    -0.105 C  
BRANCH  10  11
HETATM   11  C   UNL     1      -6.075  14.105  70.549  1.00  0.00    -0.174 C  
HETATM   12  H1  UNL     1      -5.868  13.113  72.592  1.00  0.00     0.000 HD 
HETATM   13  N   UNL     1      -5.961  13.556  71.678  1.00  0.00    -0.559 NA 
HETATM   14  H2  UNL     1      -6.303  12.597  71.746  1.00  0.00     0.000 HD 
ENDBRANCH  10  11
ENDBRANCH   8  10
BRANCH   8  15
HETATM   15  N   UNL     1      -7.197  12.800  68.114  1.00  0.00    -0.102 NA 
HETATM   16  N   UNL     1      -6.434  12.421  67.065  1.00  0.00    -0.137 NA 
HETATM   17  C   UNL     1      -7.745  11.732  68.773  1.00  0.00    -0.091 A  
HETATM   18  C   UNL     1      -6.513  11.090  67.070  1.00  0.00    -0.092 A  
HETATM   19  C   UNL     1      -7.325  10.601  68.108  1.00  0.00    -0.088 A  
BRANCH  19  20
HETATM   20  C   UNL     1      -7.664   9.257  68.497  1.00  0.00    -0.085 A  
HETATM   21  C   UNL     1      -8.745   8.583  67.928  1.00  0.00    -0.138 A  
HETATM   22  C   UNL     1      -9.799   8.857  67.011  1.00  0.00    -0.277 A  
HETATM   23  C   UNL     1     -10.536   7.702  66.861  1.00  0.00    -0.318 A  
HETATM   24  N   UNL     1      -9.982   6.744  67.671  1.00  0.00    -0.130 NA 
HETATM   25  H   UNL     1     -10.319   5.786  67.763  1.00  0.00     0.000 HD 
HETATM   26  C   UNL     1      -8.908   7.269  68.336  1.00  0.00    -0.128 A  
HETATM   27  N   UNL     1      -8.157   6.597  69.222  1.00  0.00    -0.115 NA 
HETATM   28  C   UNL     1      -7.171   7.363  69.721  1.00  0.00    -0.081 A  
HETATM   29  N   UNL     1      -6.885   8.643  69.419  1.00  0.00    -0.048 NA 
ENDBRANCH  19  20
ENDBRANCH   8  15
ENDBRANCH   3   6
ENDBRANCH   2   3
TORSDOF 6
ENDMDL
MODEL      206
REMARK 921   NORMALIZED FREE ENERGY PREDICTED BY IDOCK:   -4.05 KCAL/MOL
REMARK 922        TOTAL FREE ENERGY PREDICTED BY IDOCK:   -5.98 KCAL/MOL
REMARK 923 INTER-LIGAND FREE ENERGY PREDICTED BY IDOCK:   -5.43 KCAL/MOL
REMARK 924 INTRA-LIGAND FREE ENERGY PREDICTED BY IDOCK:   -0.55 KCAL/MOL
REMARK 927      BINDING AFFINITY PREDICTED BY RF-SCORE:    0.00 PKD
ROOT
HETATM    1  C   UNL     1      -7.841  14.950  67.327  1.00  0.00    -0.235 C  
HETATM    2  C   UNL     1      -8.059  13.656  68.083  1.00  0.00    -0.156 C  
ENDROOT
BRANCH   2   3
HETATM    3  S   UNL     1      -6.598  12.632  68.075  1.00  0.00    -0.112 S  
HETATM    4  O   UNL     1      -5.719  13.081  67.021  1.00  0.00    -0.298 OA 
HETATM    5  O   UNL     1      -6.142  12.461  69.437  1.00  0.00    -0.090 OA 
BRANCH   3   6
HETATM    6  N   UNL     1      -7.286  11.175  67.577  1.00  0.00    -0.098 N  
HETATM    7  C   UNL     1      -8.095  10.966  66.341  1.00  0.00    -0.164 C  
HETATM    8  C   UNL     1      -7.736   9.443  66.371  1.00  0.00    -0.097 C  
HETATM    9  C   UNL     1      -6.563   9.901  67.297  1.00  0.00    -0.070 C  
BRANCH   8  10
HETATM   10  C   UNL     1      -7.428   8.772  65.040  1.00  0.00    -0.097 C  
BRANCH  10  11
HETATM   11  C   UNL     1      -8.456   9.127  63.978  1.00  0.00    -0.184 C  
HETATM   12  H1  UNL     1      -9.998   9.661  62.384  1.00  0.00     0.000 HD 
HETATM   13  N   UNL     1      -9.309   9.423  63.097  1.00  0.00    -0.490 NA 
HETATM   14  H2  UNL     1      -9.850  10.272  63.265  1.00  0.00     0.000 HD 
ENDBRANCH  10  11
ENDBRANCH   8  10
BRANCH   8  15
HETATM   15  N   UNL     1      -8.793   8.724  67.070  1.00  0.00    -0.126 NA 
HETATM   16  N   UNL     1     -10.045   8.683  66.561  1.00  0.00    -0.287 NA 
HETATM   17  C   UNL     1      -8.698   8.076  68.273  1.00  0.00    -0.130 A  
HETATM   18  C   UNL     1     -10.742   7.999  67.469  1.00  0.00    -0.168 A  
HETATM   19  C   UNL     1      -9.958   7.600  68.566  1.00  0.00    -0.190 A  
BRANCH  19  20
HETATM   20  C   UNL     1     -10.284   6.837  69.741  1.00  0.00    -0.187 A  
HETATM   21  C   UNL     1     -10.951   7.412  70.824  1.00  0.00    -0.272 A  
HETATM   22  C   UNL     1     -11.414   8.700  71.217  1.00  0.00    -0.341 A  
HETATM   23  C   UNL     1     -12.034   8.566  72.442  1.00  0.00    -0.364 A  
HETATM   24  N   UNL     1     -11.942   7.250  72.816  1.00  0.00    -0.537 NA 
HETATM   25  H   UNL     1     -12.316   6.857  73.679  1.00  0.00     0.000 HD 
HETATM   26  C   UNL     1     -11.273   6.544  71.854  1.00  0.00    -0.272 A  
HETATM   27  N   UNL     1     -10.997   5.233  71.923  1.00  0.00    -0.154 NA 
HETATM   28  C   UNL     1     -10.328   4.807  70.838  1.00  0.00    -0.117 A  
HETATM   29  N   UNL     1      -9.953   5.524  69.763  1.00  0.00    -0.192 NA 
ENDBRANCH  19  20
ENDBRANCH   8  15
ENDBRANCH   3   6
ENDBRANCH   2   3
TORSDOF 6
ENDMDL
MODEL      207
REMARK 921   NORMALIZED FREE ENERGY PREDICTED BY IDOCK:   -4.03 KCAL/MOL
REMARK 922        TOTAL FREE ENERGY PREDICTED BY IDOCK:   -5.95 KCAL/MOL
REMARK 923 INTER-LIGAND FREE ENERGY PREDICTED BY IDOCK:   -5.44 KCAL/MOL
REMARK 924 INTRA-LIGAND FREE ENERGY PREDICTED BY IDOCK:   -0.51 KCAL/MOL
REMARK 927      BINDING AFFINITY PREDICTED BY RF-SCORE:    0.00 PKD
ROOT
HETATM    1  C   UNL     1      -7.346  10.981  62.383  1.00  0.00    -0.017 C  
HETATM    2  C   UNL     1      -6.625  10.272  63.510  1.00  0.00    -0.095 C  
ENDROOT
BRANCH   2   3
HETATM    3  S   UNL     1      -7.456   8.764  63.980  1.00  0.00    -0.122 S  
HETATM    4  O   UNL     1      -8.311   8.344  62.893  1.00  0.00    -0.178 OA 
HETATM    5  O   UNL     1      -6.494   7.873  64.591  1.00  0.00    -0.048 OA 
BRANCH   3   6
HETATM    6  N   UNL     1      -8.449   9.366  65.203  1.00  0.00    -0.144 N  
HETATM    7  C   UNL     1      -9.780   8.820  65.599  1.00  0.00     0.054 C  
HETATM    8  C   UNL     1      -9.615   9.464  67.016  1.00  0.00    -0.158 C  
HETATM    9  C   UNL     1      -8.097   9.503  66.645  1.00  0.00    -0.108 C  
BRANCH   8  10
HETATM   10  C   UNL     1     -10.078   8.644  68.212  1.00  0.00    -0.225 C  
BRANCH  10  11
HETATM   11  C   UNL     1      -9.348   7.313  68.301  1.00  0.00    -0.135 C  
HETATM   12  H1  UNL     1      -8.253   5.316  68.434  1.00  0.00     0.000 HD 
HETATM   13  N   UNL     1      -8.743   6.209  68.374  1.00  0.00    -0.115 NA 
HETATM   14  H2  UNL     1      -9.090   5.468  67.765  1.00  0.00     0.000 HD 
ENDBRANCH  10  11
ENDBRANCH   8  10
BRANCH   8  15
HETATM   15  N   UNL     1     -10.257  10.771  67.018  1.00  0.00    -0.208 NA 
HETATM   16  N   UNL     1     -10.990  11.172  68.080  1.00  0.00    -0.218 NA 
HETATM   17  C   UNL     1     -10.256  11.695  66.006  1.00  0.00    -0.232 A  
HETATM   18  C   UNL     1     -11.457  12.368  67.720  1.00  0.00    -0.324 A  
HETATM   19  C   UNL     1     -11.040  12.746  66.431  1.00  0.00    -0.320 A  
BRANCH  19  20
HETATM   20  C   UNL     1     -11.282  13.940  65.666  1.00  0.00    -0.306 A  
HETATM   21  C   UNL     1     -10.847  15.191  66.107  1.00  0.00    -0.330 A  
HETATM   22  C   UNL     1     -10.215  15.746  67.256  1.00  0.00    -0.268 A  
HETATM   23  C   UNL     1     -10.044  17.095  67.029  1.00  0.00    -0.297 A  
HETATM   24  N   UNL     1     -10.570  17.382  65.796  1.00  0.00    -0.478 NA 
HETATM   25  H   UNL     1     -10.581  18.306  65.363  1.00  0.00     0.000 HD 
HETATM   26  C   UNL     1     -11.076  16.242  65.234  1.00  0.00    -0.151 A  
HETATM   27  N   UNL     1     -11.679  16.184  64.037  1.00  0.00    -0.868 NA 
HETATM   28  C   UNL     1     -12.078  14.935  63.741  1.00  0.00     0.259 A  
HETATM   29  N   UNL     1     -11.922  13.820  64.479  1.00  0.00    -0.407 NA 
ENDBRANCH  19  20
ENDBRANCH   8  15
ENDBRANCH   3   6
ENDBRANCH   2   3
TORSDOF 6
ENDMDL
MODEL      208
REMARK 921   NORMALIZED FREE ENERGY PREDICTED BY IDOCK:   -4.00 KCAL/MOL
REMARK 922        TOTAL FREE ENERGY PREDICTED BY IDOCK:   -5.91 KCAL/MOL
REMARK 923 INTER-LIGAND FREE ENERGY PREDICTED BY IDOCK:   -5.52 KCAL/MOL
REMARK 924 INTRA-LIGAND FREE ENERGY PREDICTED BY IDOCK:   -0.39 KCAL/MOL
REMARK 927      BINDING AFFINITY PREDICTED BY RF-SCORE:    0.00 PKD
ROOT
HETATM    1  C   UNL     1      -9.852  11.142  66.393  1.00  0.00    -0.248 C  
HETATM    2  C   UNL     1      -8.402  10.979  66.799  1.00  0.00    -0.147 C  
ENDROOT
BRANCH   2   3
HETATM    3  S   UNL     1      -7.619   9.634  65.927  1.00  0.00    -0.105 S  
HETATM    4  O   UNL     1      -8.204   9.526  64.611  1.00  0.00    -0.128 OA 
HETATM    5  O   UNL     1      -6.189   9.719  66.130  1.00  0.00    -0.062 OA 
BRANCH   3   6
HETATM    6  N   UNL     1      -8.192   8.340  66.845  1.00  0.00    -0.103 N  
HETATM    7  C   UNL     1      -9.188   7.323  66.398  1.00  0.00    -0.159 C  
HETATM    8  C   UNL     1      -8.634   6.321  67.465  1.00  0.00    -0.107 C  
HETATM    9  C   UNL     1      -7.375   7.248  67.448  1.00  0.00    -0.092 C  
BRANCH   8  10
HETATM   10  C   UNL     1      -8.501   4.863  67.049  1.00  0.00    -0.105 C  
BRANCH  10  11
HETATM   11  C   UNL     1      -9.075   4.616  65.663  1.00  0.00    -0.142 C  
HETATM   12  H1  UNL     1      -9.937   4.246  63.584  1.00  0.00     0.000 HD 
HETATM   13  N   UNL     1      -9.552   4.411  64.514  1.00  0.00    -0.265 NA 
HETATM   14  H2  UNL     1     -10.539   4.155  64.479  1.00  0.00     0.000 HD 
ENDBRANCH  10  11
ENDBRANCH   8  10
BRANCH   8  15
HETATM   15  N   UNL     1      -9.434   6.433  68.677  1.00  0.00    -0.123 NA 
HETATM   16  N   UNL     1      -9.386   5.466  69.620  1.00  0.00    -0.130 NA 
HETATM   17  C   UNL     1     -10.320   7.428  68.995  1.00  0.00    -0.210 A  
HETATM   18  C   UNL     1     -10.263   5.867  70.541  1.00  0.00    -0.211 A  
HETATM   19  C   UNL     1     -10.885   7.082  70.203  1.00  0.00    -0.285 A  
BRANCH  19  20
HETATM   20  C   UNL     1     -11.858   7.878  70.902  1.00  0.00    -0.229 A  
HETATM   21  C   UNL     1     -11.909   9.265  70.755  1.00  0.00    -0.303 A  
HETATM   22  C   UNL     1     -11.166  10.287  70.097  1.00  0.00    -0.387 A  
HETATM   23  C   UNL     1     -11.793  11.489  70.349  1.00  0.00    -0.320 A  
HETATM   24  N   UNL     1     -12.873  11.237  71.155  1.00  0.00    -0.374 NA 
HETATM   25  H   UNL     1     -13.525  11.941  71.501  1.00  0.00     0.000 HD 
HETATM   26  C   UNL     1     -12.945   9.897  71.423  1.00  0.00    -0.407 A  
HETATM   27  N   UNL     1     -13.876   9.323  72.199  1.00  0.00    -0.430 NA 
HETATM   28  C   UNL     1     -13.701   7.993  72.287  1.00  0.00    -0.084 A  
HETATM   29  N   UNL     1     -12.754   7.243  71.695  1.00  0.00    -0.363 NA 
ENDBRANCH  19  20
ENDBRANCH   8  15
ENDBRANCH   3   6
ENDBRANCH   2   3
TORSDOF 6
ENDMDL
MODEL      209
REMARK 921   NORMALIZED FREE ENERGY PREDICTED BY IDOCK:   -3.99 KCAL/MOL
REMARK 922        TOTAL FREE ENERGY PREDICTED BY IDOCK:   -5.90 KCAL/MOL
REMARK 923 INTER-LIGAND FREE ENERGY PREDICTED BY IDOCK:   -5.33 KCAL/MOL
REMARK 924 INTRA-LIGAND FREE ENERGY PREDICTED BY IDOCK:   -0.58 KCAL/MOL
REMARK 927      BINDING AFFINITY PREDICTED BY RF-SCORE:    0.00 PKD
ROOT
HETATM    1  C   UNL     1      -9.566  10.746  66.483  1.00  0.00    -0.217 C  
HETATM    2  C   UNL     1      -8.194  10.338  66.976  1.00  0.00    -0.122 C  
ENDROOT
BRANCH   2   3
HETATM    3  S   UNL     1      -7.410   9.182  65.865  1.00  0.00    -0.095 S  
HETATM    4  O   UNL     1      -7.974   9.347  64.545  1.00  0.00    -0.114 OA 
HETATM    5  O   UNL     1      -5.983   9.205  66.101  1.00  0.00    -0.056 OA 
BRANCH   3   6
HETATM    6  N   UNL     1      -8.014   7.740  66.498  1.00  0.00    -0.104 N  
HETATM    7  C   UNL     1      -9.212   7.000  66.004  1.00  0.00    -0.021 C  
HETATM    8  C   UNL     1      -8.647   5.681  66.629  1.00  0.00    -0.117 C  
HETATM    9  C   UNL     1      -7.283   6.445  66.609  1.00  0.00    -0.077 C  
BRANCH   8  10
HETATM   10  C   UNL     1      -8.806   4.402  65.820  1.00  0.00    -0.122 C  
BRANCH  10  11
HETATM   11  C   UNL     1     -10.182   4.305  65.181  1.00  0.00    -0.211 C  
HETATM   12  H1  UNL     1     -12.248   4.161  64.224  1.00  0.00     0.000 HD 
HETATM   13  N   UNL     1     -11.324   4.226  64.652  1.00  0.00    -0.955 NA 
HETATM   14  H2  UNL     1     -11.771   5.113  64.417  1.00  0.00     0.000 HD 
ENDBRANCH  10  11
ENDBRANCH   8  10
BRANCH   8  15
HETATM   15  N   UNL     1      -9.210   5.512  67.962  1.00  0.00    -0.108 NA 
HETATM   16  N   UNL     1      -9.273   4.286  68.527  1.00  0.00    -0.130 NA 
HETATM   17  C   UNL     1      -9.759   6.482  68.757  1.00  0.00    -0.129 A  
HETATM   18  C   UNL     1      -9.878   4.499  69.696  1.00  0.00    -0.218 A  
HETATM   19  C   UNL     1     -10.215   5.850  69.894  1.00  0.00    -0.280 A  
BRANCH  19  20
HETATM   20  C   UNL     1     -10.843   6.522  71.000  1.00  0.00    -0.253 A  
HETATM   21  C   UNL     1     -10.274   6.519  72.275  1.00  0.00    -0.203 A  
HETATM   22  C   UNL     1      -9.156   5.933  72.933  1.00  0.00    -0.121 A  
HETATM   23  C   UNL     1      -9.159   6.376  74.238  1.00  0.00    -0.166 A  
HETATM   24  N   UNL     1     -10.249   7.190  74.402  1.00  0.00    -0.430 NA 
HETATM   25  H   UNL     1     -10.504   7.664  75.269  1.00  0.00     0.000 HD 
HETATM   26  C   UNL     1     -10.944   7.271  73.226  1.00  0.00    -0.311 A  
HETATM   27  N   UNL     1     -12.074   7.974  73.054  1.00  0.00    -0.112 NA 
HETATM   28  C   UNL     1     -12.538   7.871  71.797  1.00  0.00    -0.328 A  
HETATM   29  N   UNL     1     -11.999   7.189  70.770  1.00  0.00    -0.329 NA 
ENDBRANCH  19  20
ENDBRANCH   8  15
ENDBRANCH   3   6
ENDBRANCH   2   3
TORSDOF 6
ENDMDL
MODEL      210
REMARK 921   NORMALIZED FREE ENERGY PREDICTED BY IDOCK:   -3.99 KCAL/MOL
REMARK 922        TOTAL FREE ENERGY PREDICTED BY IDOCK:   -5.90 KCAL/MOL
REMARK 923 INTER-LIGAND FREE ENERGY PREDICTED BY IDOCK:   -5.67 KCAL/MOL
REMARK 924 INTRA-LIGAND FREE ENERGY PREDICTED BY IDOCK:   -0.23 KCAL/MOL
REMARK 927      BINDING AFFINITY PREDICTED BY RF-SCORE:    0.00 PKD
ROOT
HETATM    1  C   UNL     1      -7.867   3.169  66.875  1.00  0.00    -0.079 C  
HETATM    2  C   UNL     1      -7.464   4.215  67.894  1.00  0.00    -0.068 C  
ENDROOT
BRANCH   2   3
HETATM    3  S   UNL     1      -6.263   5.356  67.230  1.00  0.00    -0.032 S  
HETATM    4  O   UNL     1      -5.172   5.483  68.168  1.00  0.00    -0.003 OA 
HETATM    5  O   UNL     1      -6.047   5.043  65.834  1.00  0.00    -0.028 OA 
BRANCH   3   6
HETATM    6  N   UNL     1      -7.165   6.779  67.305  1.00  0.00    -0.083 N  
HETATM    7  C   UNL     1      -8.551   6.910  67.842  1.00  0.00    -0.122 C  
HETATM    8  C   UNL     1      -8.297   8.432  68.105  1.00  0.00    -0.128 C  
HETATM    9  C   UNL     1      -6.789   8.032  68.020  1.00  0.00    -0.072 C  
BRANCH   8  10
HETATM   10  C   UNL     1      -8.850   9.018  69.397  1.00  0.00    -0.144 C  
BRANCH  10  11
HETATM   11  C   UNL     1      -7.898   8.812  70.564  1.00  0.00    -0.103 C  
HETATM   12  H1  UNL     1      -6.468   8.502  72.314  1.00  0.00     0.000 HD 
HETATM   13  N   UNL     1      -7.107   8.641  71.531  1.00  0.00    -0.085 NA 
HETATM   14  H2  UNL     1      -6.362   9.331  71.627  1.00  0.00     0.000 HD 
ENDBRANCH  10  11
ENDBRANCH   8  10
BRANCH   8  15
HETATM   15  N   UNL     1      -8.772   9.194  66.958  1.00  0.00    -0.123 NA 
HETATM   16  N   UNL     1      -8.089   9.172  65.792  1.00  0.00    -0.109 NA 
HETATM   17  C   UNL     1      -9.864  10.019  66.907  1.00  0.00    -0.197 A  
HETATM   18  C   UNL     1      -8.769  10.003  65.001  1.00  0.00    -0.173 A  
HETATM   19  C   UNL     1      -9.883  10.571  65.644  1.00  0.00    -0.311 A  
BRANCH  19  20
HETATM   20  C   UNL     1     -10.891  11.483  65.172  1.00  0.00    -0.265 A  
HETATM   21  C   UNL     1     -11.416  12.481  65.995  1.00  0.00    -0.423 A  
HETATM   22  C   UNL     1     -11.308  12.898  67.352  1.00  0.00    -0.355 A  
HETATM   23  C   UNL     1     -12.108  14.010  67.513  1.00  0.00    -0.326 A  
HETATM   24  N   UNL     1     -12.715  14.267  66.311  1.00  0.00    -0.462 NA 
HETATM   25  H   UNL     1     -13.362  15.035  66.132  1.00  0.00     0.000 HD 
HETATM   26  C   UNL     1     -12.319  13.338  65.388  1.00  0.00    -0.479 A  
HETATM   27  N   UNL     1     -12.746  13.296  64.117  1.00  0.00    -0.658 NA 
HETATM   28  C   UNL     1     -12.193  12.276  63.439  1.00  0.00    -0.527 A  
HETATM   29  N   UNL     1     -11.302  11.371  63.887  1.00  0.00    -0.315 NA 
ENDBRANCH  19  20
ENDBRANCH   8  15
ENDBRANCH   3   6
ENDBRANCH   2   3
TORSDOF 6
ENDMDL
MODEL      211
REMARK 921   NORMALIZED FREE ENERGY PREDICTED BY IDOCK:   -3.98 KCAL/MOL
REMARK 922        TOTAL FREE ENERGY PREDICTED BY IDOCK:   -5.88 KCAL/MOL
REMARK 923 INTER-LIGAND FREE ENERGY PREDICTED BY IDOCK:   -5.28 KCAL/MOL
REMARK 924 INTRA-LIGAND FREE ENERGY PREDICTED BY IDOCK:   -0.60 KCAL/MOL
REMARK 927      BINDING AFFINITY PREDICTED BY RF-SCORE:    0.00 PKD
ROOT
HETATM    1  C   UNL     1     -11.952  11.872  68.793  1.00  0.00    -0.307 C  
HETATM    2  C   UNL     1     -11.898  13.263  68.196  1.00  0.00    -0.353 C  
ENDROOT
BRANCH   2   3
HETATM    3  S   UNL     1     -11.308  13.237  66.512  1.00  0.00    -0.336 S  
HETATM    4  O   UNL     1     -12.420  12.963  65.632  1.00  0.00    -0.526 OA 
HETATM    5  O   UNL     1     -10.427  14.366  66.311  1.00  0.00    -0.279 OA 
BRANCH   3   6
HETATM    6  N   UNL     1     -10.356  11.846  66.576  1.00  0.00    -0.212 N  
HETATM    7  C   UNL     1     -10.251  10.807  65.510  1.00  0.00    -0.266 C  
HETATM    8  C   UNL     1      -8.853  10.383  66.071  1.00  0.00    -0.160 C  
HETATM    9  C   UNL     1      -8.876  11.790  66.750  1.00  0.00    -0.191 C  
BRANCH   8  10
HETATM   10  C   UNL     1      -7.766  10.053  65.057  1.00  0.00    -0.138 C  
BRANCH  10  11
HETATM   11  C   UNL     1      -8.252   9.063  64.010  1.00  0.00    -0.167 C  
HETATM   12  H1  UNL     1      -8.980   7.579  62.439  1.00  0.00     0.000 HD 
HETATM   13  N   UNL     1      -8.654   8.242  63.142  1.00  0.00    -0.415 NA 
HETATM   14  H2  UNL     1      -8.126   7.372  63.071  1.00  0.00     0.000 HD 
ENDBRANCH  10  11
ENDBRANCH   8  10
BRANCH   8  15
HETATM   15  N   UNL     1      -9.034   9.275  66.999  1.00  0.00    -0.125 NA 
HETATM   16  N   UNL     1     -10.178   8.554  66.989  1.00  0.00    -0.275 NA 
HETATM   17  C   UNL     1      -8.166   8.863  67.975  1.00  0.00    -0.110 A  
HETATM   18  C   UNL     1     -10.018   7.678  67.982  1.00  0.00    -0.175 A  
HETATM   19  C   UNL     1      -8.785   7.827  68.641  1.00  0.00    -0.128 A  
BRANCH  19  20
HETATM   20  C   UNL     1      -8.195   7.096  69.731  1.00  0.00    -0.131 A  
HETATM   21  C   UNL     1      -8.806   5.960  70.264  1.00  0.00    -0.145 A  
HETATM   22  C   UNL     1     -10.019   5.233  70.095  1.00  0.00    -0.313 A  
HETATM   23  C   UNL     1      -9.983   4.152  70.950  1.00  0.00    -0.136 A  
HETATM   24  N   UNL     1      -8.804   4.209  71.647  1.00  0.00    -0.111 NA 
HETATM   25  H   UNL     1      -8.505   3.534  72.351  1.00  0.00     0.000 HD 
HETATM   26  C   UNL     1      -8.090   5.309  71.255  1.00  0.00    -0.114 A  
HETATM   27  N   UNL     1      -6.899   5.664  71.759  1.00  0.00    -0.065 NA 
HETATM   28  C   UNL     1      -6.432   6.788  71.188  1.00  0.00    -0.045 A  
HETATM   29  N   UNL     1      -7.005   7.522  70.217  1.00  0.00    -0.054 NA 
ENDBRANCH  19  20
ENDBRANCH   8  15
ENDBRANCH   3   6
ENDBRANCH   2   3
TORSDOF 6
ENDMDL
MODEL      212
REMARK 921   NORMALIZED FREE ENERGY PREDICTED BY IDOCK:   -3.95 KCAL/MOL
REMARK 922        TOTAL FREE ENERGY PREDICTED BY IDOCK:   -5.85 KCAL/MOL
REMARK 923 INTER-LIGAND FREE ENERGY PREDICTED BY IDOCK:   -4.98 KCAL/MOL
REMARK 924 INTRA-LIGAND FREE ENERGY PREDICTED BY IDOCK:   -0.86 KCAL/MOL
REMARK 927      BINDING AFFINITY PREDICTED BY RF-SCORE:    0.00 PKD
ROOT
HETATM    1  C   UNL     1      -7.395  10.401  62.710  1.00  0.00    -0.126 C  
HETATM    2  C   UNL     1      -6.547   9.580  63.659  1.00  0.00    -0.104 C  
ENDROOT
BRANCH   2   3
HETATM    3  S   UNL     1      -7.452   8.190  64.318  1.00  0.00    -0.108 S  
HETATM    4  O   UNL     1      -8.555   7.889  63.435  1.00  0.00     0.112 OA 
HETATM    5  O   UNL     1      -6.507   7.180  64.742  1.00  0.00    -0.036 OA 
BRANCH   3   6
HETATM    6  N   UNL     1      -8.092   8.909  65.703  1.00  0.00    -0.108 N  
HETATM    7  C   UNL     1      -8.947   8.237  66.724  1.00  0.00    -0.147 C  
HETATM    8  C   UNL     1      -8.514   9.307  67.781  1.00  0.00    -0.116 C  
HETATM    9  C   UNL     1      -7.322   9.560  66.802  1.00  0.00    -0.090 C  
BRANCH   8  10
HETATM   10  C   UNL     1      -8.237   8.817  69.196  1.00  0.00    -0.119 C  
BRANCH  10  11
HETATM   11  C   UNL     1      -9.438   8.097  69.789  1.00  0.00    -0.159 C  
HETATM   12  H1  UNL     1     -11.238   7.017  70.679  1.00  0.00     0.000 HD 
HETATM   13  N   UNL     1     -10.433   7.500  70.282  1.00  0.00    -0.218 NA 
HETATM   14  H2  UNL     1     -10.417   7.362  71.293  1.00  0.00     0.000 HD 
ENDBRANCH  10  11
ENDBRANCH   8  10
BRANCH   8  15
HETATM   15  N   UNL     1      -9.502  10.378  67.798  1.00  0.00    -0.144 NA 
HETATM   16  N   UNL     1     -10.742  10.173  67.301  1.00  0.00    -0.266 NA 
HETATM   17  C   UNL     1      -9.323  11.662  68.239  1.00  0.00    -0.191 A  
HETATM   18  C   UNL     1     -11.344  11.356  67.432  1.00  0.00    -0.288 A  
HETATM   19  C   UNL     1     -10.505  12.329  68.005  1.00  0.00    -0.231 A  
BRANCH  19  20
HETATM   20  C   UNL     1     -10.742  13.706  68.346  1.00  0.00    -0.258 A  
HETATM   21  C   UNL     1     -10.507  14.736  67.434  1.00  0.00    -0.256 A  
HETATM   22  C   UNL     1      -9.975  14.885  66.121  1.00  0.00    -0.323 A  
HETATM   23  C   UNL     1     -10.054  16.221  65.787  1.00  0.00    -0.347 A  
HETATM   24  N   UNL     1     -10.591  16.889  66.856  1.00  0.00    -0.263 NA 
HETATM   25  H   UNL     1     -10.769  17.893  66.893  1.00  0.00     0.000 HD 
HETATM   26  C   UNL     1     -10.853  16.005  67.867  1.00  0.00    -0.333 A  
HETATM   27  N   UNL     1     -11.366  16.341  69.061  1.00  0.00    -0.325 NA 
HETATM   28  C   UNL     1     -11.516  15.270  69.858  1.00  0.00    -0.304 A  
HETATM   29  N   UNL     1     -11.232  13.984  69.578  1.00  0.00    -0.230 NA 
ENDBRANCH  19  20
ENDBRANCH   8  15
ENDBRANCH   3   6
ENDBRANCH   2   3
TORSDOF 6
ENDMDL
MODEL      213
REMARK 921   NORMALIZED FREE ENERGY PREDICTED BY IDOCK:   -3.95 KCAL/MOL
REMARK 922        TOTAL FREE ENERGY PREDICTED BY IDOCK:   -5.84 KCAL/MOL
REMARK 923 INTER-LIGAND FREE ENERGY PREDICTED BY IDOCK:   -5.56 KCAL/MOL
REMARK 924 INTRA-LIGAND FREE ENERGY PREDICTED BY IDOCK:   -0.28 KCAL/MOL
REMARK 927      BINDING AFFINITY PREDICTED BY RF-SCORE:    0.00 PKD
ROOT
HETATM    1  C   UNL     1      -9.912  15.749  66.699  1.00  0.00    -0.268 C  
HETATM    2  C   UNL     1     -10.613  14.495  66.219  1.00  0.00    -0.304 C  
ENDROOT
BRANCH   2   3
HETATM    3  S   UNL     1     -11.390  13.616  67.563  1.00  0.00    -0.325 S  
HETATM    4  O   UNL     1     -11.686  14.552  68.624  1.00  0.00    -0.301 OA 
HETATM    5  O   UNL     1     -12.393  12.727  67.019  1.00  0.00    -0.387 OA 
BRANCH   3   6
HETATM    6  N   UNL     1     -10.085  12.674  68.067  1.00  0.00    -0.223 N  
HETATM    7  C   UNL     1      -9.474  11.546  67.305  1.00  0.00    -0.169 C  
HETATM    8  C   UNL     1      -8.140  11.742  68.100  1.00  0.00    -0.150 C  
HETATM    9  C   UNL     1      -8.718  13.161  68.408  1.00  0.00    -0.120 C  
BRANCH   8  10
HETATM   10  C   UNL     1      -6.838  11.611  67.321  1.00  0.00    -0.129 C  
BRANCH  10  11
HETATM   11  C   UNL     1      -6.090  12.932  67.245  1.00  0.00     0.018 C  
HETATM   12  H1  UNL     1      -4.968  14.915  67.132  1.00  0.00     0.000 HD 
HETATM   13  N   UNL     1      -5.470  14.029  67.183  1.00  0.00     0.030 NA 
HETATM   14  H2  UNL     1      -5.854  14.792  67.742  1.00  0.00     0.000 HD 
ENDBRANCH  10  11
ENDBRANCH   8  10
BRANCH   8  15
HETATM   15  N   UNL     1      -8.138  10.843  69.246  1.00  0.00    -0.104 NA 
HETATM   16  N   UNL     1      -7.055  10.763  70.051  1.00  0.00    -0.146 NA 
HETATM   17  C   UNL     1      -9.131   9.978  69.621  1.00  0.00    -0.210 A  
HETATM   18  C   UNL     1      -7.382   9.826  70.942  1.00  0.00     0.142 A  
HETATM   19  C   UNL     1      -8.663   9.292  70.721  1.00  0.00    -0.272 A  
BRANCH  19  20
HETATM   20  C   UNL     1      -9.416   8.298  71.438  1.00  0.00    -0.175 A  
HETATM   21  C   UNL     1     -10.790   8.430  71.645  1.00  0.00    -0.335 A  
HETATM   22  C   UNL     1     -11.809   9.393  71.397  1.00  0.00    -0.447 A  
HETATM   23  C   UNL     1     -13.001   8.866  71.847  1.00  0.00    -0.382 A  
HETATM   24  N   UNL     1     -12.739   7.631  72.380  1.00  0.00    -0.522 NA 
HETATM   25  H   UNL     1     -13.435   7.007  72.788  1.00  0.00     0.000 HD 
HETATM   26  C   UNL     1     -11.401   7.361  72.281  1.00  0.00    -0.281 A  
HETATM   27  N   UNL     1     -10.814   6.241  72.727  1.00  0.00    -0.241 NA 
HETATM   28  C   UNL     1      -9.489   6.248  72.497  1.00  0.00    -0.142 A  
HETATM   29  N   UNL     1      -8.760   7.202  71.890  1.00  0.00    -0.120 NA 
ENDBRANCH  19  20
ENDBRANCH   8  15
ENDBRANCH   3   6
ENDBRANCH   2   3
TORSDOF 6
ENDMDL
MODEL      214
REMARK 921   NORMALIZED FREE ENERGY PREDICTED BY IDOCK:   -3.95 KCAL/MOL
REMARK 922        TOTAL FREE ENERGY PREDICTED BY IDOCK:   -5.84 KCAL/MOL
REMARK 923 INTER-LIGAND FREE ENERGY PREDICTED BY IDOCK:   -5.02 KCAL/MOL
REMARK 924 INTRA-LIGAND FREE ENERGY PREDICTED BY IDOCK:   -0.82 KCAL/MOL
REMARK 927      BINDING AFFINITY PREDICTED BY RF-SCORE:    0.00 PKD
ROOT
HETATM    1  C   UNL     1     -11.947  15.222  70.129  1.00  0.00    -0.373 C  
HETATM    2  C   UNL     1     -12.172  14.117  69.118  1.00  0.00    -0.255 C  
ENDROOT
BRANCH   2   3
HETATM    3  S   UNL     1     -11.600  14.582  67.493  1.00  0.00    -0.391 S  
HETATM    4  O   UNL     1     -12.595  14.196  66.519  1.00  0.00    -0.394 OA 
HETATM    5  O   UNL     1     -11.063  15.924  67.555  1.00  0.00    -0.312 OA 
BRANCH   3   6
HETATM    6  N   UNL     1     -10.302  13.515  67.343  1.00  0.00    -0.236 N  
HETATM    7  C   UNL     1      -9.106  13.709  66.472  1.00  0.00    -0.119 C  
HETATM    8  C   UNL     1      -8.291  12.737  67.389  1.00  0.00    -0.189 C  
HETATM    9  C   UNL     1      -9.406  13.046  68.439  1.00  0.00    -0.149 C  
BRANCH   8  10
HETATM   10  C   UNL     1      -6.846  13.111  67.692  1.00  0.00    -0.160 C  
BRANCH  10  11
HETATM   11  C   UNL     1      -6.701  13.728  69.074  1.00  0.00    -0.111 C  
HETATM   12  H1  UNL     1      -6.482  14.654  71.147  1.00  0.00     0.000 HD 
HETATM   13  N   UNL     1      -6.579  14.240  70.220  1.00  0.00    -0.376 NA 
HETATM   14  H2  UNL     1      -5.919  15.015  70.296  1.00  0.00     0.000 HD 
ENDBRANCH  10  11
ENDBRANCH   8  10
BRANCH   8  15
HETATM   15  N   UNL     1      -8.361  11.393  66.832  1.00  0.00    -0.154 NA 
HETATM   16  N   UNL     1      -7.944  11.154  65.568  1.00  0.00     0.089 NA 
HETATM   17  C   UNL     1      -8.863  10.271  67.436  1.00  0.00    -0.131 A  
HETATM   18  C   UNL     1      -8.197   9.858  65.382  1.00  0.00    -0.139 A  
HETATM   19  C   UNL     1      -8.779   9.253  66.511  1.00  0.00    -0.145 A  
BRANCH  19  20
HETATM   20  C   UNL     1      -9.186   7.895  66.759  1.00  0.00    -0.166 A  
HETATM   21  C   UNL     1      -8.252   6.885  66.993  1.00  0.00    -0.120 A  
HETATM   22  C   UNL     1      -6.836   6.734  67.003  1.00  0.00    -0.069 A  
HETATM   23  C   UNL     1      -6.556   5.429  67.349  1.00  0.00    -0.053 A  
HETATM   24  N   UNL     1      -7.749   4.777  67.526  1.00  0.00    -0.089 NA 
HETATM   25  H   UNL     1      -7.850   3.797  67.790  1.00  0.00     0.000 HD 
HETATM   26  C   UNL     1      -8.785   5.642  67.296  1.00  0.00    -0.107 A  
HETATM   27  N   UNL     1     -10.083   5.313  67.367  1.00  0.00    -0.178 NA 
HETATM   28  C   UNL     1     -10.878   6.361  67.091  1.00  0.00    -0.393 A  
HETATM   29  N   UNL     1     -10.511   7.620  66.788  1.00  0.00    -0.303 NA 
ENDBRANCH  19  20
ENDBRANCH   8  15
ENDBRANCH   3   6
ENDBRANCH   2   3
TORSDOF 6
ENDMDL
MODEL      215
REMARK 921   NORMALIZED FREE ENERGY PREDICTED BY IDOCK:   -3.93 KCAL/MOL
REMARK 922        TOTAL FREE ENERGY PREDICTED BY IDOCK:   -5.82 KCAL/MOL
REMARK 923 INTER-LIGAND FREE ENERGY PREDICTED BY IDOCK:   -5.76 KCAL/MOL
REMARK 924 INTRA-LIGAND FREE ENERGY PREDICTED BY IDOCK:   -0.06 KCAL/MOL
REMARK 927      BINDING AFFINITY PREDICTED BY RF-SCORE:    0.00 PKD
ROOT
HETATM    1  C   UNL     1     -10.862   5.313  71.067  1.00  0.00    -0.125 C  
HETATM    2  C   UNL     1     -11.284   6.193  69.909  1.00  0.00    -0.414 C  
ENDROOT
BRANCH   2   3
HETATM    3  S   UNL     1     -10.191   6.012  68.510  1.00  0.00    -0.206 S  
HETATM    4  O   UNL     1      -8.904   5.552  68.978  1.00  0.00    -0.105 OA 
HETATM    5  O   UNL     1     -10.907   5.343  67.445  1.00  0.00    -0.159 OA 
BRANCH   3   6
HETATM    6  N   UNL     1     -10.025   7.634  68.079  1.00  0.00    -0.168 N  
HETATM    7  C   UNL     1      -8.740   8.387  67.983  1.00  0.00    -0.139 C  
HETATM    8  C   UNL     1      -9.417   9.402  67.002  1.00  0.00    -0.155 C  
HETATM    9  C   UNL     1     -10.468   8.263  66.801  1.00  0.00    -0.243 C  
BRANCH   8  10
HETATM   10  C   UNL     1      -8.591   9.884  65.817  1.00  0.00    -0.151 C  
BRANCH  10  11
HETATM   11  C   UNL     1      -7.147  10.156  66.209  1.00  0.00    -0.110 C  
HETATM   12  H1  UNL     1      -4.981  10.563  66.796  1.00  0.00     0.000 HD 
HETATM   13  N   UNL     1      -5.950  10.381  66.533  1.00  0.00    -0.064 NA 
HETATM   14  H2  UNL     1      -5.270  10.369  65.771  1.00  0.00     0.000 HD 
ENDBRANCH  10  11
ENDBRANCH   8  10
BRANCH   8  15
HETATM   15  N   UNL     1      -9.915  10.537  67.769  1.00  0.00    -0.168 NA 
HETATM   16  N   UNL     1     -10.403  10.358  69.016  1.00  0.00    -0.201 NA 
HETATM   17  C   UNL     1     -10.002  11.840  67.356  1.00  0.00    -0.184 A  
HETATM   18  C   UNL     1     -10.806  11.575  69.385  1.00  0.00    -0.126 A  
HETATM   19  C   UNL     1     -10.590  12.542  68.386  1.00  0.00    -0.256 A  
BRANCH  19  20
HETATM   20  C   UNL     1     -10.843  13.958  68.363  1.00  0.00    -0.254 A  
HETATM   21  C   UNL     1     -11.612  14.578  69.349  1.00  0.00    -0.343 A  
HETATM   22  C   UNL     1     -12.383  14.199  70.485  1.00  0.00    -0.434 A  
HETATM   23  C   UNL     1     -12.882  15.350  71.056  1.00  0.00    -0.463 A  
HETATM   24  N   UNL     1     -12.463  16.411  70.295  1.00  0.00    -0.120 NA 
HETATM   25  H   UNL     1     -12.681  17.390  70.482  1.00  0.00     0.000 HD 
HETATM   26  C   UNL     1     -11.709  15.957  69.248  1.00  0.00    -0.353 A  
HETATM   27  N   UNL     1     -11.163  16.739  68.305  1.00  0.00    -0.267 NA 
HETATM   28  C   UNL     1     -10.476  16.023  67.399  1.00  0.00    -0.308 A  
HETATM   29  N   UNL     1     -10.289  14.690  67.368  1.00  0.00    -0.241 NA 
ENDBRANCH  19  20
ENDBRANCH   8  15
ENDBRANCH   3   6
ENDBRANCH   2   3
TORSDOF 6
ENDMDL
MODEL      216
REMARK 921   NORMALIZED FREE ENERGY PREDICTED BY IDOCK:   -3.92 KCAL/MOL
REMARK 922        TOTAL FREE ENERGY PREDICTED BY IDOCK:   -5.80 KCAL/MOL
REMARK 923 INTER-LIGAND FREE ENERGY PREDICTED BY IDOCK:   -4.98 KCAL/MOL
REMARK 924 INTRA-LIGAND FREE ENERGY PREDICTED BY IDOCK:   -0.82 KCAL/MOL
REMARK 927      BINDING AFFINITY PREDICTED BY RF-SCORE:    0.00 PKD
ROOT
HETATM    1  C   UNL     1     -10.278  18.838  68.430  1.00  0.00    -0.413 C  
HETATM    2  C   UNL     1     -10.381  17.753  67.378  1.00  0.00    -0.369 C  
ENDROOT
BRANCH   2   3
HETATM    3  S   UNL     1      -9.049  16.574  67.513  1.00  0.00    -0.198 S  
HETATM    4  O   UNL     1      -8.668  16.146  66.187  1.00  0.00    -0.324 OA 
HETATM    5  O   UNL     1      -8.084  17.069  68.470  1.00  0.00    -0.231 OA 
BRANCH   3   6
HETATM    6  N   UNL     1      -9.883  15.298  68.236  1.00  0.00    -0.215 N  
HETATM    7  C   UNL     1      -9.550  14.666  69.546  1.00  0.00     0.156 C  
HETATM    8  C   UNL     1     -11.030  14.172  69.676  1.00  0.00    -0.081 C  
HETATM    9  C   UNL     1     -11.325  15.283  68.616  1.00  0.00    -0.317 C  
BRANCH   8  10
HETATM   10  C   UNL     1     -11.674  14.254  71.053  1.00  0.00    -0.206 C  
BRANCH  10  11
HETATM   11  C   UNL     1     -13.085  14.815  70.984  1.00  0.00    -0.375 C  
HETATM   12  H1  UNL     1     -15.203  15.657  70.879  1.00  0.00     0.000 HD 
HETATM   13  N   UNL     1     -14.256  15.281  70.926  1.00  0.00    -0.820 NA 
HETATM   14  H2  UNL     1     -14.443  15.925  70.157  1.00  0.00     0.000 HD 
ENDBRANCH  10  11
ENDBRANCH   8  10
BRANCH   8  15
HETATM   15  N   UNL     1     -11.122  12.816  69.152  1.00  0.00    -0.223 NA 
HETATM   16  N   UNL     1     -12.012  12.518  68.178  1.00  0.00    -0.318 NA 
HETATM   17  C   UNL     1     -10.416  11.718  69.566  1.00  0.00     0.290 A  
HETATM   18  C   UNL     1     -11.856  11.208  67.987  1.00  0.00    -0.126 A  
HETATM   19  C   UNL     1     -10.880  10.650  68.831  1.00  0.00    -0.272 A  
BRANCH  19  20
HETATM   20  C   UNL     1     -10.379   9.306  68.947  1.00  0.00    -0.214 A  
HETATM   21  C   UNL     1      -9.035   9.005  68.718  1.00  0.00    -0.137 A  
HETATM   22  C   UNL     1      -7.859   9.681  68.285  1.00  0.00    -0.085 A  
HETATM   23  C   UNL     1      -6.823   8.771  68.301  1.00  0.00    -0.066 A  
HETATM   24  N   UNL     1      -7.332   7.563  68.704  1.00  0.00    -0.093 NA 
HETATM   25  H   UNL     1      -6.793   6.704  68.811  1.00  0.00     0.000 HD 
HETATM   26  C   UNL     1      -8.674   7.686  68.942  1.00  0.00    -0.135 A  
HETATM   27  N   UNL     1      -9.475   6.683  69.332  1.00  0.00    -0.146 NA 
HETATM   28  C   UNL     1     -10.746   7.092  69.488  1.00  0.00    -0.239 A  
HETATM   29  N   UNL     1     -11.243   8.331  69.316  1.00  0.00     0.177 NA 
ENDBRANCH  19  20
ENDBRANCH   8  15
ENDBRANCH   3   6
ENDBRANCH   2   3
TORSDOF 6
ENDMDL
MODEL      217
REMARK 921   NORMALIZED FREE ENERGY PREDICTED BY IDOCK:   -3.92 KCAL/MOL
REMARK 922        TOTAL FREE ENERGY PREDICTED BY IDOCK:   -5.80 KCAL/MOL
REMARK 923 INTER-LIGAND FREE ENERGY PREDICTED BY IDOCK:   -5.31 KCAL/MOL
REMARK 924 INTRA-LIGAND FREE ENERGY PREDICTED BY IDOCK:   -0.49 KCAL/MOL
REMARK 927      BINDING AFFINITY PREDICTED BY RF-SCORE:    0.00 PKD
ROOT
HETATM    1  C   UNL     1      -9.805  11.813  63.087  1.00  0.00    -0.363 C  
HETATM    2  C   UNL     1     -10.032  10.498  63.801  1.00  0.00    -0.258 C  
ENDROOT
BRANCH   2   3
HETATM    3  S   UNL     1      -8.500   9.785  64.377  1.00  0.00    -0.195 S  
HETATM    4  O   UNL     1      -8.624   8.346  64.372  1.00  0.00    -0.095 OA 
HETATM    5  O   UNL     1      -7.400  10.466  63.731  1.00  0.00    -0.106 OA 
BRANCH   3   6
HETATM    6  N   UNL     1      -8.548  10.294  65.985  1.00  0.00    -0.141 N  
HETATM    7  C   UNL     1      -7.420  10.911  66.741  1.00  0.00    -0.134 C  
HETATM    8  C   UNL     1      -8.447  11.572  67.719  1.00  0.00    -0.137 C  
HETATM    9  C   UNL     1      -9.471  11.309  66.568  1.00  0.00    -0.193 C  
BRANCH   8  10
HETATM   10  C   UNL     1      -8.165  13.001  68.166  1.00  0.00    -0.157 C  
BRANCH  10  11
HETATM   11  C   UNL     1      -8.708  14.019  67.176  1.00  0.00    -0.221 C  
HETATM   12  H1  UNL     1      -9.524  15.546  65.691  1.00  0.00     0.000 HD 
HETATM   13  N   UNL     1      -9.160  14.863  66.355  1.00  0.00    -0.390 NA 
HETATM   14  H2  UNL     1     -10.164  15.041  66.403  1.00  0.00     0.000 HD 
ENDBRANCH  10  11
ENDBRANCH   8  10
BRANCH   8  15
HETATM   15  N   UNL     1      -8.622  10.704  68.876  1.00  0.00    -0.153 NA 
HETATM   16  N   UNL     1      -7.556  10.100  69.446  1.00  0.00    -0.117 NA 
HETATM   17  C   UNL     1      -9.802  10.359  69.481  1.00  0.00    -0.184 A  
HETATM   18  C   UNL     1      -8.085   9.361  70.422  1.00  0.00    -0.175 A  
HETATM   19  C   UNL     1      -9.485   9.474  70.488  1.00  0.00    -0.306 A  
BRANCH  19  20
HETATM   20  C   UNL     1     -10.445   8.886  71.384  1.00  0.00    -0.305 A  
HETATM   21  C   UNL     1     -10.047   8.172  72.515  1.00  0.00    -0.370 A  
HETATM   22  C   UNL     1      -8.833   7.724  73.110  1.00  0.00    -0.260 A  
HETATM   23  C   UNL     1      -9.157   7.067  74.278  1.00  0.00    -0.215 A  
HETATM   24  N   UNL     1     -10.523   7.079  74.401  1.00  0.00    -0.506 NA 
HETATM   25  H   UNL     1     -11.047   6.667  75.173  1.00  0.00     0.000 HD 
HETATM   26  C   UNL     1     -11.075   7.729  73.331  1.00  0.00     0.075 A  
HETATM   27  N   UNL     1     -12.392   7.897  73.138  1.00  0.00     0.245 NA 
HETATM   28  C   UNL     1     -12.646   8.570  72.002  1.00  0.00    -0.364 A  
HETATM   29  N   UNL     1     -11.761   9.066  71.118  1.00  0.00    -0.288 NA 
ENDBRANCH  19  20
ENDBRANCH   8  15
ENDBRANCH   3   6
ENDBRANCH   2   3
TORSDOF 6
ENDMDL
MODEL      218
REMARK 921   NORMALIZED FREE ENERGY PREDICTED BY IDOCK:   -3.87 KCAL/MOL
REMARK 922        TOTAL FREE ENERGY PREDICTED BY IDOCK:   -5.74 KCAL/MOL
REMARK 923 INTER-LIGAND FREE ENERGY PREDICTED BY IDOCK:   -5.17 KCAL/MOL
REMARK 924 INTRA-LIGAND FREE ENERGY PREDICTED BY IDOCK:   -0.56 KCAL/MOL
REMARK 927      BINDING AFFINITY PREDICTED BY RF-SCORE:    0.00 PKD
ROOT
HETATM    1  C   UNL     1      -8.236   5.796  68.235  1.00  0.00    -0.108 C  
HETATM    2  C   UNL     1      -9.191   5.209  69.254  1.00  0.00    -0.109 C  
ENDROOT
BRANCH   2   3
HETATM    3  S   UNL     1      -9.097   6.066  70.816  1.00  0.00    -0.154 S  
HETATM    4  O   UNL     1     -10.176   5.614  71.663  1.00  0.00    -0.194 OA 
HETATM    5  O   UNL     1      -7.720   6.073  71.261  1.00  0.00    -0.105 OA 
BRANCH   3   6
HETATM    6  N   UNL     1      -9.477   7.626  70.298  1.00  0.00    -0.161 N  
HETATM    7  C   UNL     1     -10.803   8.079  69.787  1.00  0.00    -0.194 C  
HETATM    8  C   UNL     1     -10.442   9.552  70.175  1.00  0.00    -0.255 C  
HETATM    9  C   UNL     1      -9.380   8.878  71.103  1.00  0.00    -0.257 C  
BRANCH   8  10
HETATM   10  C   UNL     1     -11.546  10.403  70.787  1.00  0.00    -0.450 C  
BRANCH  10  11
HETATM   11  C   UNL     1     -12.781   9.577  71.112  1.00  0.00    -0.291 C  
HETATM   12  H1  UNL     1     -14.633   8.338  71.600  1.00  0.00     0.000 HD 
HETATM   13  N   UNL     1     -13.805   8.893  71.382  1.00  0.00    -0.534 NA 
HETATM   14  H2  UNL     1     -14.606   9.410  71.746  1.00  0.00     0.000 HD 
ENDBRANCH  10  11
ENDBRANCH   8  10
BRANCH   8  15
HETATM   15  N   UNL     1      -9.872  10.220  69.013  1.00  0.00    -0.196 NA 
HETATM   16  N   UNL     1     -10.225  11.490  68.712  1.00  0.00    -0.211 NA 
HETATM   17  C   UNL     1      -9.003   9.689  68.097  1.00  0.00    -0.123 A  
HETATM   18  C   UNL     1      -9.563  11.751  67.584  1.00  0.00    -0.183 A  
HETATM   19  C   UNL     1      -8.790  10.662  67.145  1.00  0.00    -0.139 A  
BRANCH  19  20
HETATM   20  C   UNL     1      -7.915  10.513  66.012  1.00  0.00    -0.149 A  
HETATM   21  C   UNL     1      -8.413  10.423  64.711  1.00  0.00    -0.176 A  
HETATM   22  C   UNL     1      -9.682  10.359  64.066  1.00  0.00    -0.373 A  
HETATM   23  C   UNL     1      -9.458  10.305  62.707  1.00  0.00    -0.290 A  
HETATM   24  N   UNL     1      -8.102  10.309  62.505  1.00  0.00    -0.143 NA 
HETATM   25  H   UNL     1      -7.643  10.278  61.595  1.00  0.00     0.000 HD 
HETATM   26  C   UNL     1      -7.457  10.363  63.711  1.00  0.00    -0.011 A  
HETATM   27  N   UNL     1      -6.124  10.362  63.864  1.00  0.00    -0.119 NA 
HETATM   28  C   UNL     1      -5.772  10.419  65.160  1.00  0.00    -0.138 A  
HETATM   29  N   UNL     1      -6.580  10.488  66.235  1.00  0.00    -0.110 NA 
ENDBRANCH  19  20
ENDBRANCH   8  15
ENDBRANCH   3   6
ENDBRANCH   2   3
TORSDOF 6
ENDMDL
MODEL      219
REMARK 921   NORMALIZED FREE ENERGY PREDICTED BY IDOCK:   -3.87 KCAL/MOL
REMARK 922        TOTAL FREE ENERGY PREDICTED BY IDOCK:   -5.73 KCAL/MOL
REMARK 923 INTER-LIGAND FREE ENERGY PREDICTED BY IDOCK:   -4.98 KCAL/MOL
REMARK 924 INTRA-LIGAND FREE ENERGY PREDICTED BY IDOCK:   -0.76 KCAL/MOL
REMARK 927      BINDING AFFINITY PREDICTED BY RF-SCORE:    0.00 PKD
ROOT
HETATM    1  C   UNL     1     -11.887  13.833  65.648  1.00  0.00    -0.383 C  
HETATM    2  C   UNL     1     -10.617  13.577  64.865  1.00  0.00    -0.397 C  
ENDROOT
BRANCH   2   3
HETATM    3  S   UNL     1     -10.668  12.007  64.018  1.00  0.00    -0.421 S  
HETATM    4  O   UNL     1     -12.046  11.654  63.770  1.00  0.00    -0.375 OA 
HETATM    5  O   UNL     1      -9.673  12.012  62.968  1.00  0.00    -0.383 OA 
BRANCH   3   6
HETATM    6  N   UNL     1     -10.104  11.008  65.256  1.00  0.00    -0.259 N  
HETATM    7  C   UNL     1      -9.024  11.344  66.228  1.00  0.00    -0.200 C  
HETATM    8  C   UNL     1      -9.610  10.296  67.231  1.00  0.00    -0.159 C  
HETATM    9  C   UNL     1     -10.909  10.440  66.375  1.00  0.00     0.013 C  
BRANCH   8  10
HETATM   10  C   UNL     1      -9.633  10.677  68.705  1.00  0.00    -0.190 C  
BRANCH  10  11
HETATM   11  C   UNL     1      -8.358  10.256  69.417  1.00  0.00    -0.161 C  
HETATM   12  H1  UNL     1      -6.444   9.624  70.485  1.00  0.00     0.000 HD 
HETATM   13  N   UNL     1      -7.300   9.906  70.008  1.00  0.00    -0.140 NA 
HETATM   14  H2  UNL     1      -7.325   8.996  70.468  1.00  0.00     0.000 HD 
ENDBRANCH  10  11
ENDBRANCH   8  10
BRANCH   8  15
HETATM   15  N   UNL     1      -8.918   9.028  67.046  1.00  0.00    -0.125 NA 
HETATM   16  N   UNL     1      -7.573   8.995  66.918  1.00  0.00    -0.093 NA 
HETATM   17  C   UNL     1      -9.483   7.785  66.934  1.00  0.00    -0.187 A  
HETATM   18  C   UNL     1      -7.297   7.706  66.718  1.00  0.00    -0.089 A  
HETATM   19  C   UNL     1      -8.450   6.901  66.708  1.00  0.00    -0.118 A  
BRANCH  19  20
HETATM   20  C   UNL     1      -8.617   5.480  66.554  1.00  0.00    -0.118 A  
HETATM   21  C   UNL     1      -8.922   4.658  67.639  1.00  0.00    -0.124 A  
HETATM   22  C   UNL     1      -9.077   4.782  69.050  1.00  0.00    -0.157 A  
HETATM   23  C   UNL     1      -9.416   3.541  69.545  1.00  0.00    -0.165 A  
HETATM   24  N   UNL     1      -9.448   2.664  68.491  1.00  0.00    -0.185 NA 
HETATM   25  H   UNL     1      -9.673   1.671  68.559  1.00  0.00     0.000 HD 
HETATM   26  C   UNL     1      -9.133   3.323  67.334  1.00  0.00    -0.173 A  
HETATM   27  N   UNL     1      -9.057   2.748  66.125  1.00  0.00    -0.140 NA 
HETATM   28  C   UNL     1      -8.726   3.635  65.171  1.00  0.00    -0.116 A  
HETATM   29  N   UNL     1      -8.498   4.954  65.311  1.00  0.00    -0.130 NA 
ENDBRANCH  19  20
ENDBRANCH   8  15
ENDBRANCH   3   6
ENDBRANCH   2   3
TORSDOF 6
ENDMDL
MODEL      220
REMARK 921   NORMALIZED FREE ENERGY PREDICTED BY IDOCK:   -3.85 KCAL/MOL
REMARK 922        TOTAL FREE ENERGY PREDICTED BY IDOCK:   -5.71 KCAL/MOL
REMARK 923 INTER-LIGAND FREE ENERGY PREDICTED BY IDOCK:   -5.38 KCAL/MOL
REMARK 924 INTRA-LIGAND FREE ENERGY PREDICTED BY IDOCK:   -0.33 KCAL/MOL
REMARK 927      BINDING AFFINITY PREDICTED BY RF-SCORE:    0.00 PKD
ROOT
HETATM    1  C   UNL     1      -5.394   5.149  64.381  1.00  0.00    -0.010 C  
HETATM    2  C   UNL     1      -6.739   4.525  64.071  1.00  0.00    -0.044 C  
ENDROOT
BRANCH   2   3
HETATM    3  S   UNL     1      -7.933   4.856  65.356  1.00  0.00    -0.103 S  
HETATM    4  O   UNL     1      -9.217   4.338  64.944  1.00  0.00    -0.142 OA 
HETATM    5  O   UNL     1      -7.343   4.525  66.635  1.00  0.00    -0.078 OA 
BRANCH   3   6
HETATM    6  N   UNL     1      -8.002   6.537  65.240  1.00  0.00    -0.113 N  
HETATM    7  C   UNL     1      -7.266   7.505  66.104  1.00  0.00    -0.074 C  
HETATM    8  C   UNL     1      -7.383   8.587  64.980  1.00  0.00    -0.086 C  
HETATM    9  C   UNL     1      -7.650   7.361  64.048  1.00  0.00    -0.110 C  
BRANCH   8  10
HETATM   10  C   UNL     1      -6.168   9.471  64.733  1.00  0.00    -0.081 C  
BRANCH  10  11
HETATM   11  C   UNL     1      -5.671  10.118  66.016  1.00  0.00    -0.068 C  
HETATM   12  H1  UNL     1      -4.926  11.089  67.941  1.00  0.00     0.000 HD 
HETATM   13  N   UNL     1      -5.259  10.655  67.080  1.00  0.00    -0.040 NA 
HETATM   14  H2  UNL     1      -5.691  10.324  67.944  1.00  0.00     0.000 HD 
ENDBRANCH  10  11
ENDBRANCH   8  10
BRANCH   8  15
HETATM   15  N   UNL     1      -8.562   9.404  65.232  1.00  0.00    -0.151 NA 
HETATM   16  N   UNL     1      -9.397   9.103  66.252  1.00  0.00    -0.197 NA 
HETATM   17  C   UNL     1      -8.994  10.482  64.505  1.00  0.00    -0.209 A  
HETATM   18  C   UNL     1     -10.370  10.011  66.153  1.00  0.00    -0.155 A  
HETATM   19  C   UNL     1     -10.178  10.894  65.076  1.00  0.00    -0.367 A  
BRANCH  19  20
HETATM   20  C   UNL     1     -10.950  12.020  64.621  1.00  0.00    -0.317 A  
HETATM   21  C   UNL     1     -10.647  13.323  65.020  1.00  0.00    -0.360 A  
HETATM   22  C   UNL     1      -9.739  13.975  65.902  1.00  0.00    -0.250 A  
HETATM   23  C   UNL     1      -9.960  15.332  65.802  1.00  0.00    -0.360 A  
HETATM   24  N   UNL     1     -10.984  15.526  64.911  1.00  0.00    -0.511 NA 
HETATM   25  H   UNL     1     -11.361  16.433  64.638  1.00  0.00     0.000 HD 
HETATM   26  C   UNL     1     -11.422  14.316  64.444  1.00  0.00    -0.310 A  
HETATM   27  N   UNL     1     -12.427  14.155  63.571  1.00  0.00    -0.763 NA 
HETATM   28  C   UNL     1     -12.640  12.858  63.291  1.00  0.00    -0.080 A  
HETATM   29  N   UNL     1     -11.972  11.789  63.763  1.00  0.00    -0.405 NA 
ENDBRANCH  19  20
ENDBRANCH   8  15
ENDBRANCH   3   6
ENDBRANCH   2   3
TORSDOF 6
ENDMDL
MODEL      221
REMARK 921   NORMALIZED FREE ENERGY PREDICTED BY IDOCK:   -3.79 KCAL/MOL
REMARK 922        TOTAL FREE ENERGY PREDICTED BY IDOCK:   -5.63 KCAL/MOL
REMARK 923 INTER-LIGAND FREE ENERGY PREDICTED BY IDOCK:   -5.22 KCAL/MOL
REMARK 924 INTRA-LIGAND FREE ENERGY PREDICTED BY IDOCK:   -0.41 KCAL/MOL
REMARK 927      BINDING AFFINITY PREDICTED BY RF-SCORE:    0.00 PKD
ROOT
HETATM    1  C   UNL     1      -7.328  15.800  69.468  1.00  0.00    -0.186 C  
HETATM    2  C   UNL     1      -8.535  16.460  68.837  1.00  0.00    -0.247 C  
ENDROOT
BRANCH   2   3
HETATM    3  S   UNL     1      -8.697  16.031  67.112  1.00  0.00    -0.204 S  
HETATM    4  O   UNL     1      -9.795  16.779  66.546  1.00  0.00    -0.262 OA 
HETATM    5  O   UNL     1      -7.382  16.019  66.511  1.00  0.00    -0.151 OA 
BRANCH   3   6
HETATM    6  N   UNL     1      -9.204  14.430  67.274  1.00  0.00    -0.201 N  
HETATM    7  C   UNL     1     -10.347  13.953  68.106  1.00  0.00    -0.247 C  
HETATM    8  C   UNL     1     -10.456  12.674  67.209  1.00  0.00    -0.228 C  
HETATM    9  C   UNL     1      -9.648  13.524  66.176  1.00  0.00    -0.204 C  
BRANCH   8  10
HETATM   10  C   UNL     1     -11.855  12.188  66.856  1.00  0.00    -0.295 C  
BRANCH  10  11
HETATM   11  C   UNL     1     -12.395  12.876  65.613  1.00  0.00    -0.423 C  
HETATM   12  H1  UNL     1     -13.205  13.909  63.747  1.00  0.00     0.000 HD 
HETATM   13  N   UNL     1     -12.843  13.448  64.581  1.00  0.00    -0.685 NA 
HETATM   14  H2  UNL     1     -13.316  14.339  64.734  1.00  0.00     0.000 HD 
ENDBRANCH  10  11
ENDBRANCH   8  10
BRANCH   8  15
HETATM   15  N   UNL     1      -9.686  11.601  67.823  1.00  0.00    -0.170 NA 
HETATM   16  N   UNL     1      -8.363  11.755  68.054  1.00  0.00    -0.146 NA 
HETATM   17  C   UNL     1     -10.137  10.359  68.182  1.00  0.00    -0.155 A  
HETATM   18  C   UNL     1      -7.984  10.583  68.565  1.00  0.00    -0.118 A  
HETATM   19  C   UNL     1      -9.047   9.666  68.661  1.00  0.00    -0.132 A  
BRANCH  19  20
HETATM   20  C   UNL     1      -9.098   8.320  69.166  1.00  0.00    -0.148 A  
HETATM   21  C   UNL     1      -8.558   7.250  68.449  1.00  0.00    -0.124 A  
HETATM   22  C   UNL     1      -7.951   7.025  67.181  1.00  0.00    -0.113 A  
HETATM   23  C   UNL     1      -7.614   5.690  67.109  1.00  0.00    -0.096 A  
HETATM   24  N   UNL     1      -8.016   5.093  68.275  1.00  0.00    -0.087 NA 
HETATM   25  H   UNL     1      -7.894   4.106  68.503  1.00  0.00     0.000 HD 
HETATM   26  C   UNL     1      -8.606   6.022  69.089  1.00  0.00    -0.117 A  
HETATM   27  N   UNL     1      -9.125   5.758  70.297  1.00  0.00    -0.143 NA 
HETATM   28  C   UNL     1      -9.640   6.860  70.869  1.00  0.00    -0.164 A  
HETATM   29  N   UNL     1      -9.662   8.113  70.379  1.00  0.00    -0.177 NA 
ENDBRANCH  19  20
ENDBRANCH   8  15
ENDBRANCH   3   6
ENDBRANCH   2   3
TORSDOF 6
ENDMDL
MODEL      222
REMARK 921   NORMALIZED FREE ENERGY PREDICTED BY IDOCK:   -3.76 KCAL/MOL
REMARK 922        TOTAL FREE ENERGY PREDICTED BY IDOCK:   -5.59 KCAL/MOL
REMARK 923 INTER-LIGAND FREE ENERGY PREDICTED BY IDOCK:   -4.87 KCAL/MOL
REMARK 924 INTRA-LIGAND FREE ENERGY PREDICTED BY IDOCK:   -0.72 KCAL/MOL
REMARK 927      BINDING AFFINITY PREDICTED BY RF-SCORE:    0.00 PKD
ROOT
HETATM    1  C   UNL     1     -12.726  12.172  71.304  1.00  0.00    -0.363 C  
HETATM    2  C   UNL     1     -12.371  10.792  71.816  1.00  0.00    -0.062 C  
ENDROOT
BRANCH   2   3
HETATM    3  S   UNL     1     -12.945   9.511  70.714  1.00  0.00     0.075 S  
HETATM    4  O   UNL     1     -13.304   8.350  71.495  1.00  0.00    -0.327 OA 
HETATM    5  O   UNL     1     -13.847  10.099  69.748  1.00  0.00     0.741 OA 
BRANCH   3   6
HETATM    6  N   UNL     1     -11.498   9.162  69.920  1.00  0.00    -0.036 N  
HETATM    7  C   UNL     1     -10.294  10.041  69.867  1.00  0.00    -0.272 C  
HETATM    8  C   UNL     1      -9.401   8.788  69.582  1.00  0.00    -0.158 C  
HETATM    9  C   UNL     1     -10.609   7.991  70.169  1.00  0.00    -0.237 C  
BRANCH   8  10
HETATM   10  C   UNL     1      -8.047   8.725  70.276  1.00  0.00    -0.116 C  
BRANCH  10  11
HETATM   11  C   UNL     1      -7.358  10.080  70.294  1.00  0.00    -0.141 C  
HETATM   12  H1  UNL     1      -6.325  12.114  70.321  1.00  0.00     0.000 HD 
HETATM   13  N   UNL     1      -6.787  11.205  70.309  1.00  0.00    -0.488 NA 
HETATM   14  H2  UNL     1      -7.243  11.930  70.863  1.00  0.00     0.000 HD 
ENDBRANCH  10  11
ENDBRANCH   8  10
BRANCH   8  15
HETATM   15  N   UNL     1      -9.240   8.641  68.142  1.00  0.00    -0.137 NA 
HETATM   16  N   UNL     1      -9.046   7.420  67.596  1.00  0.00    -0.125 NA 
HETATM   17  C   UNL     1      -9.214   9.641  67.205  1.00  0.00    -0.134 A  
HETATM   18  C   UNL     1      -8.893   7.667  66.294  1.00  0.00    -0.156 A  
HETATM   19  C   UNL     1      -8.978   9.037  65.990  1.00  0.00    -0.227 A  
BRANCH  19  20
HETATM   20  C   UNL     1      -8.898   9.739  64.736  1.00  0.00    -0.207 A  
HETATM   21  C   UNL     1      -9.825  10.723  64.389  1.00  0.00    -0.374 A  
HETATM   22  C   UNL     1     -11.022  11.284  64.921  1.00  0.00    -0.243 A  
HETATM   23  C   UNL     1     -11.440  12.274  64.058  1.00  0.00    -0.409 A  
HETATM   24  N   UNL     1     -10.555  12.319  63.012  1.00  0.00    -0.543 NA 
HETATM   25  H   UNL     1     -10.613  12.961  62.221  1.00  0.00     0.000 HD 
HETATM   26  C   UNL     1      -9.583  11.373  63.190  1.00  0.00    -0.380 A  
HETATM   27  N   UNL     1      -8.576  11.143  62.334  1.00  0.00    -0.285 NA 
HETATM   28  C   UNL     1      -7.773  10.155  62.764  1.00  0.00    -0.143 A  
HETATM   29  N   UNL     1      -7.875   9.441  63.901  1.00  0.00    -0.122 NA 
ENDBRANCH  19  20
ENDBRANCH   8  15
ENDBRANCH   3   6
ENDBRANCH   2   3
TORSDOF 6
ENDMDL
MODEL      223
REMARK 921   NORMALIZED FREE ENERGY PREDICTED BY IDOCK:   -3.72 KCAL/MOL
REMARK 922        TOTAL FREE ENERGY PREDICTED BY IDOCK:   -5.54 KCAL/MOL
REMARK 923 INTER-LIGAND FREE ENERGY PREDICTED BY IDOCK:   -5.21 KCAL/MOL
REMARK 924 INTRA-LIGAND FREE ENERGY PREDICTED BY IDOCK:   -0.32 KCAL/MOL
REMARK 927      BINDING AFFINITY PREDICTED BY RF-SCORE:    0.00 PKD
ROOT
HETATM    1  C   UNL     1      -8.092   4.569  72.642  1.00  0.00    -0.099 C  
HETATM    2  C   UNL     1      -8.531   5.859  71.981  1.00  0.00    -0.125 C  
ENDROOT
BRANCH   2   3
HETATM    3  S   UNL     1      -9.992   5.625  70.983  1.00  0.00    -0.201 S  
HETATM    4  O   UNL     1      -9.919   4.332  70.344  1.00  0.00    -0.211 OA 
HETATM    5  O   UNL     1     -11.147   6.044  71.746  1.00  0.00    -0.259 OA 
BRANCH   3   6
HETATM    6  N   UNL     1      -9.706   6.793  69.800  1.00  0.00    -0.157 N  
HETATM    7  C   UNL     1      -8.614   7.809  69.818  1.00  0.00    -0.134 C  
HETATM    8  C   UNL     1      -8.710   7.931  68.261  1.00  0.00    -0.130 C  
HETATM    9  C   UNL     1      -9.426   6.545  68.356  1.00  0.00    -0.120 C  
BRANCH   8  10
HETATM   10  C   UNL     1      -7.404   8.053  67.488  1.00  0.00    -0.089 C  
BRANCH  10  11
HETATM   11  C   UNL     1      -6.662   6.728  67.421  1.00  0.00    -0.067 C  
HETATM   12  H1  UNL     1      -5.549   4.740  67.319  1.00  0.00     0.000 HD 
HETATM   13  N   UNL     1      -6.046   5.629  67.364  1.00  0.00    -0.028 NA 
HETATM   14  H2  UNL     1      -6.280   5.026  66.574  1.00  0.00     0.000 HD 
ENDBRANCH  10  11
ENDBRANCH   8  10
BRANCH   8  15
HETATM   15  N   UNL     1      -9.602   9.034  67.928  1.00  0.00    -0.145 NA 
HETATM   16  N   UNL     1     -10.461   9.521  68.851  1.00  0.00    -0.211 NA 
HETATM   17  C   UNL     1      -9.729   9.659  66.716  1.00  0.00    -0.197 A  
HETATM   18  C   UNL     1     -11.138  10.466  68.197  1.00  0.00    -0.285 A  
HETATM   19  C   UNL     1     -10.732  10.593  66.857  1.00  0.00    -0.297 A  
BRANCH  19  20
HETATM   20  C   UNL     1     -11.164  11.484  65.812  1.00  0.00    -0.164 A  
HETATM   21  C   UNL     1     -11.426  12.832  66.064  1.00  0.00    -0.396 A  
HETATM   22  C   UNL     1     -11.471  13.709  67.184  1.00  0.00    -0.367 A  
HETATM   23  C   UNL     1     -11.783  14.969  66.718  1.00  0.00    -0.154 A  
HETATM   24  N   UNL     1     -11.952  14.882  65.360  1.00  0.00    -0.202 NA 
HETATM   25  H   UNL     1     -12.187  15.663  64.746  1.00  0.00     0.000 HD 
HETATM   26  C   UNL     1     -11.757  13.590  64.953  1.00  0.00    -0.357 A  
HETATM   27  N   UNL     1     -11.868  13.165  63.686  1.00  0.00    -0.490 NA 
HETATM   28  C   UNL     1     -11.623  11.848  63.580  1.00  0.00    -0.441 A  
HETATM   29  N   UNL     1     -11.286  10.987  64.558  1.00  0.00     0.111 NA 
ENDBRANCH  19  20
ENDBRANCH   8  15
ENDBRANCH   3   6
ENDBRANCH   2   3
TORSDOF 6
ENDMDL
MODEL      224
REMARK 921   NORMALIZED FREE ENERGY PREDICTED BY IDOCK:   -3.71 KCAL/MOL
REMARK 922        TOTAL FREE ENERGY PREDICTED BY IDOCK:   -5.53 KCAL/MOL
REMARK 923 INTER-LIGAND FREE ENERGY PREDICTED BY IDOCK:   -5.07 KCAL/MOL
REMARK 924 INTRA-LIGAND FREE ENERGY PREDICTED BY IDOCK:   -0.45 KCAL/MOL
REMARK 927      BINDING AFFINITY PREDICTED BY RF-SCORE:    0.00 PKD
ROOT
HETATM    1  C   UNL     1      -8.645   5.669  66.381  1.00  0.00    -0.123 C  
HETATM    2  C   UNL     1      -7.608   5.839  67.471  1.00  0.00    -0.093 C  
ENDROOT
BRANCH   2   3
HETATM    3  S   UNL     1      -8.223   5.304  69.058  1.00  0.00    -0.085 S  
HETATM    4  O   UNL     1      -9.214   4.273  68.851  1.00  0.00    -0.121 OA 
HETATM    5  O   UNL     1      -7.103   5.127  69.956  1.00  0.00    -0.054 OA 
BRANCH   3   6
HETATM    6  N   UNL     1      -9.039   6.705  69.523  1.00  0.00    -0.144 N  
HETATM    7  C   UNL     1     -10.519   6.885  69.562  1.00  0.00    -0.223 C  
HETATM    8  C   UNL     1     -10.346   8.035  70.609  1.00  0.00    -0.202 C  
HETATM    9  C   UNL     1      -8.939   7.394  70.842  1.00  0.00    -0.149 C  
BRANCH   8  10
HETATM   10  C   UNL     1     -11.347   8.092  71.755  1.00  0.00    -0.333 C  
BRANCH  10  11
HETATM   11  C   UNL     1     -11.662   6.708  72.299  1.00  0.00    -0.269 C  
HETATM   12  H1  UNL     1     -12.134   4.632  73.116  1.00  0.00     0.000 HD 
HETATM   13  N   UNL     1     -11.923   5.560  72.750  1.00  0.00    -0.486 NA 
HETATM   14  H2  UNL     1     -11.908   4.799  72.070  1.00  0.00     0.000 HD 
ENDBRANCH  10  11
ENDBRANCH   8  10
BRANCH   8  15
HETATM   15  N   UNL     1     -10.305   9.310  69.906  1.00  0.00    -0.207 NA 
HETATM   16  N   UNL     1     -11.451   9.922  69.532  1.00  0.00    -0.131 NA 
HETATM   17  C   UNL     1      -9.191  10.000  69.508  1.00  0.00    -0.221 A  
HETATM   18  C   UNL     1     -11.039  11.013  68.885  1.00  0.00    -0.239 A  
HETATM   19  C   UNL     1      -9.638  11.113  68.828  1.00  0.00    -0.180 A  
BRANCH  19  20
HETATM   20  C   UNL     1      -8.778  12.118  68.261  1.00  0.00    -0.178 A  
HETATM   21  C   UNL     1      -9.294  13.221  67.581  1.00  0.00    -0.212 A  
HETATM   22  C   UNL     1     -10.566  13.702  67.154  1.00  0.00    -0.272 A  
HETATM   23  C   UNL     1     -10.367  14.914  66.529  1.00  0.00    -0.293 A  
HETATM   24  N   UNL     1      -9.022  15.176  66.539  1.00  0.00    -0.297 NA 
HETATM   25  H   UNL     1      -8.582  16.008  66.147  1.00  0.00     0.000 HD 
HETATM   26  C   UNL     1      -8.358  14.150  67.157  1.00  0.00    -0.169 A  
HETATM   27  N   UNL     1      -7.028  14.088  67.315  1.00  0.00    -0.158 NA 
HETATM   28  C   UNL     1      -6.654  12.967  67.955  1.00  0.00    -0.131 A  
HETATM   29  N   UNL     1      -7.441  11.984  68.429  1.00  0.00    -0.104 NA 
ENDBRANCH  19  20
ENDBRANCH   8  15
ENDBRANCH   3   6
ENDBRANCH   2   3
TORSDOF 6
ENDMDL
MODEL      225
REMARK 921   NORMALIZED FREE ENERGY PREDICTED BY IDOCK:   -3.71 KCAL/MOL
REMARK 922        TOTAL FREE ENERGY PREDICTED BY IDOCK:   -5.52 KCAL/MOL
REMARK 923 INTER-LIGAND FREE ENERGY PREDICTED BY IDOCK:   -4.78 KCAL/MOL
REMARK 924 INTRA-LIGAND FREE ENERGY PREDICTED BY IDOCK:   -0.74 KCAL/MOL
REMARK 927      BINDING AFFINITY PREDICTED BY RF-SCORE:    0.00 PKD
ROOT
HETATM    1  C   UNL     1     -12.369  14.086  70.879  1.00  0.00    -0.443 C  
HETATM    2  C   UNL     1     -12.044  13.807  69.427  1.00  0.00    -0.328 C  
ENDROOT
BRANCH   2   3
HETATM    3  S   UNL     1     -11.143  15.155  68.681  1.00  0.00    -0.288 S  
HETATM    4  O   UNL     1     -11.523  15.258  67.292  1.00  0.00    -0.319 OA 
HETATM    5  O   UNL     1     -11.179  16.290  69.577  1.00  0.00    -0.323 OA 
BRANCH   3   6
HETATM    6  N   UNL     1      -9.586  14.507  68.735  1.00  0.00    -0.210 N  
HETATM    7  C   UNL     1      -8.722  14.206  67.556  1.00  0.00    -0.204 C  
HETATM    8  C   UNL     1      -7.454  14.307  68.468  1.00  0.00    -0.121 C  
HETATM    9  C   UNL     1      -8.403  15.095  69.428  1.00  0.00    -0.195 C  
BRANCH   8  10
HETATM   10  C   UNL     1      -6.229  14.997  67.885  1.00  0.00    -0.174 C  
BRANCH  10  11
HETATM   11  C   UNL     1      -6.024  16.380  68.481  1.00  0.00    -0.116 C  
HETATM   12  H1  UNL     1      -5.716  18.456  69.375  1.00  0.00     0.000 HD 
HETATM   13  N   UNL     1      -5.854  17.528  68.976  1.00  0.00    -0.186 NA 
HETATM   14  H2  UNL     1      -6.024  17.612  69.978  1.00  0.00     0.000 HD 
ENDBRANCH  10  11
ENDBRANCH   8  10
BRANCH   8  15
HETATM   15  N   UNL     1      -7.108  12.974  68.943  1.00  0.00    -0.093 NA 
HETATM   16  N   UNL     1      -6.062  12.796  69.781  1.00  0.00    -0.131 NA 
HETATM   17  C   UNL     1      -7.709  11.791  68.602  1.00  0.00    -0.126 A  
HETATM   18  C   UNL     1      -6.011  11.476  69.961  1.00  0.00    -0.143 A  
HETATM   19  C   UNL     1      -7.009  10.793  69.243  1.00  0.00    -0.102 A  
BRANCH  19  20
HETATM   20  C   UNL     1      -7.334   9.393  69.165  1.00  0.00    -0.071 A  
HETATM   21  C   UNL     1      -8.488   8.877  69.757  1.00  0.00    -0.131 A  
HETATM   22  C   UNL     1      -9.553   9.342  70.580  1.00  0.00    -0.330 A  
HETATM   23  C   UNL     1     -10.410   8.283  70.794  1.00  0.00    -0.193 A  
HETATM   24  N   UNL     1      -9.891   7.189  70.152  1.00  0.00    -0.179 NA 
HETATM   25  H   UNL     1     -10.316   6.261  70.136  1.00  0.00     0.000 HD 
HETATM   26  C   UNL     1      -8.718   7.529  69.536  1.00  0.00    -0.137 A  
HETATM   27  N   UNL     1      -7.949   6.681  68.837  1.00  0.00    -0.111 NA 
HETATM   28  C   UNL     1      -6.856   7.289  68.345  1.00  0.00    -0.073 A  
HETATM   29  N   UNL     1      -6.502   8.582  68.470  1.00  0.00    -0.054 NA 
ENDBRANCH  19  20
ENDBRANCH   8  15
ENDBRANCH   3   6
ENDBRANCH   2   3
TORSDOF 6
ENDMDL
MODEL      226
REMARK 921   NORMALIZED FREE ENERGY PREDICTED BY IDOCK:   -3.67 KCAL/MOL
REMARK 922        TOTAL FREE ENERGY PREDICTED BY IDOCK:   -5.47 KCAL/MOL
REMARK 923 INTER-LIGAND FREE ENERGY PREDICTED BY IDOCK:   -5.02 KCAL/MOL
REMARK 924 INTRA-LIGAND FREE ENERGY PREDICTED BY IDOCK:   -0.45 KCAL/MOL
REMARK 927      BINDING AFFINITY PREDICTED BY RF-SCORE:    0.00 PKD
ROOT
HETATM    1  C   UNL     1      -9.752  15.547  65.802  1.00  0.00    -0.383 C  
HETATM    2  C   UNL     1     -11.097  14.905  66.072  1.00  0.00    -0.334 C  
ENDROOT
BRANCH   2   3
HETATM    3  S   UNL     1     -11.210  13.279  65.345  1.00  0.00    -0.292 S  
HETATM    4  O   UNL     1     -12.586  12.843  65.388  1.00  0.00    -0.543 OA 
HETATM    5  O   UNL     1     -10.434  13.261  64.124  1.00  0.00    -0.414 OA 
BRANCH   3   6
HETATM    6  N   UNL     1     -10.361  12.399  66.506  1.00  0.00    -0.226 N  
HETATM    7  C   UNL     1      -8.925  12.000  66.427  1.00  0.00    -0.161 C  
HETATM    8  C   UNL     1      -8.880  11.879  67.987  1.00  0.00    -0.177 C  
HETATM    9  C   UNL     1     -10.158  12.777  67.934  1.00  0.00    -0.231 C  
BRANCH   8  10
HETATM   10  C   UNL     1      -7.629  12.389  68.690  1.00  0.00    -0.082 C  
BRANCH  10  11
HETATM   11  C   UNL     1      -7.543  13.906  68.659  1.00  0.00    -0.130 C  
HETATM   12  H1  UNL     1      -7.413  16.183  68.612  1.00  0.00     0.000 HD 
HETATM   13  N   UNL     1      -7.470  15.165  68.632  1.00  0.00    -0.117 NA 
HETATM   14  H2  UNL     1      -6.677  15.557  68.124  1.00  0.00     0.000 HD 
ENDBRANCH  10  11
ENDBRANCH   8  10
BRANCH   8  15
HETATM   15  N   UNL     1      -9.144  10.496  68.360  1.00  0.00    -0.142 NA 
HETATM   16  N   UNL     1      -9.403  10.172  69.647  1.00  0.00    -0.214 NA 
HETATM   17  C   UNL     1      -9.124   9.399  67.540  1.00  0.00    -0.124 A  
HETATM   18  C   UNL     1      -9.542   8.846  69.626  1.00  0.00    -0.169 A  
HETATM   19  C   UNL     1      -9.370   8.304  68.340  1.00  0.00    -0.136 A  
BRANCH  19  20
HETATM   20  C   UNL     1      -9.456   6.951  67.859  1.00  0.00    -0.120 A  
HETATM   21  C   UNL     1      -8.864   6.564  66.655  1.00  0.00    -0.135 A  
HETATM   22  C   UNL     1      -8.167   7.176  65.575  1.00  0.00    -0.139 A  
HETATM   23  C   UNL     1      -7.823   6.184  64.682  1.00  0.00    -0.113 A  
HETATM   24  N   UNL     1      -8.307   4.997  65.169  1.00  0.00    -0.131 NA 
HETATM   25  H   UNL     1      -8.200   4.089  64.717  1.00  0.00     0.000 HD 
HETATM   26  C   UNL     1      -8.956   5.216  66.354  1.00  0.00    -0.125 A  
HETATM   27  N   UNL     1      -9.560   4.263  67.080  1.00  0.00    -0.191 NA 
HETATM   28  C   UNL     1     -10.116   4.765  68.195  1.00  0.00    -0.037 A  
HETATM   29  N   UNL     1     -10.105   6.041  68.623  1.00  0.00    -0.155 NA 
ENDBRANCH  19  20
ENDBRANCH   8  15
ENDBRANCH   3   6
ENDBRANCH   2   3
TORSDOF 6
ENDMDL
MODEL      227
REMARK 921   NORMALIZED FREE ENERGY PREDICTED BY IDOCK:   -3.64 KCAL/MOL
REMARK 922        TOTAL FREE ENERGY PREDICTED BY IDOCK:   -5.43 KCAL/MOL
REMARK 923 INTER-LIGAND FREE ENERGY PREDICTED BY IDOCK:   -5.03 KCAL/MOL
REMARK 924 INTRA-LIGAND FREE ENERGY PREDICTED BY IDOCK:   -0.40 KCAL/MOL
REMARK 927      BINDING AFFINITY PREDICTED BY RF-SCORE:    0.00 PKD
ROOT
HETATM    1  C   UNL     1      -7.858   4.895  73.123  1.00  0.00    -0.097 C  
HETATM    2  C   UNL     1      -8.556   6.072  72.475  1.00  0.00    -0.119 C  
ENDROOT
BRANCH   2   3
HETATM    3  S   UNL     1      -9.786   5.542  71.295  1.00  0.00    -0.171 S  
HETATM    4  O   UNL     1      -9.240   4.463  70.505  1.00  0.00    -0.105 OA 
HETATM    5  O   UNL     1     -11.061   5.435  71.969  1.00  0.00    -0.218 OA 
BRANCH   3   6
HETATM    6  N   UNL     1      -9.835   6.914  70.314  1.00  0.00    -0.178 N  
HETATM    7  C   UNL     1      -8.774   7.957  70.214  1.00  0.00    -0.138 C  
HETATM    8  C   UNL     1      -9.304   8.351  68.795  1.00  0.00    -0.143 C  
HETATM    9  C   UNL     1      -9.976   6.940  68.830  1.00  0.00    -0.157 C  
BRANCH   8  10
HETATM   10  C   UNL     1      -8.268   8.666  67.726  1.00  0.00    -0.118 C  
BRANCH  10  11
HETATM   11  C   UNL     1      -8.627   8.038  66.389  1.00  0.00    -0.145 C  
HETATM   12  H1  UNL     1      -9.166   7.095  64.383  1.00  0.00     0.000 HD 
HETATM   13  N   UNL     1      -8.925   7.517  65.280  1.00  0.00    -0.367 NA 
HETATM   14  H2  UNL     1      -9.510   8.082  64.663  1.00  0.00     0.000 HD 
ENDBRANCH  10  11
ENDBRANCH   8  10
BRANCH   8  15
HETATM   15  N   UNL     1     -10.244   9.456  68.933  1.00  0.00    -0.194 NA 
HETATM   16  N   UNL     1     -11.373   9.307  69.661  1.00  0.00    -0.039 NA 
HETATM   17  C   UNL     1     -10.156  10.694  68.354  1.00  0.00    -0.166 A  
HETATM   18  C   UNL     1     -12.001  10.475  69.528  1.00  0.00    -0.186 A  
HETATM   19  C   UNL     1     -11.295  11.380  68.715  1.00  0.00    -0.334 A  
BRANCH  19  20
HETATM   20  C   UNL     1     -11.583  12.736  68.329  1.00  0.00    -0.334 A  
HETATM   21  C   UNL     1     -11.523  13.786  69.247  1.00  0.00    -0.344 A  
HETATM   22  C   UNL     1     -11.302  13.959  70.643  1.00  0.00     0.253 A  
HETATM   23  C   UNL     1     -11.354  15.310  70.911  1.00  0.00    -0.342 A  
HETATM   24  N   UNL     1     -11.623  15.960  69.735  1.00  0.00    -0.340 NA 
HETATM   25  H   UNL     1     -11.716  16.971  69.630  1.00  0.00     0.000 HD 
HETATM   26  C   UNL     1     -11.745  15.048  68.722  1.00  0.00    -0.334 A  
HETATM   27  N   UNL     1     -12.027  15.357  67.447  1.00  0.00     0.092 NA 
HETATM   28  C   UNL     1     -12.088  14.261  66.672  1.00  0.00    -0.420 A  
HETATM   29  N   UNL     1     -11.890  12.980  67.033  1.00  0.00    -0.381 NA 
ENDBRANCH  19  20
ENDBRANCH   8  15
ENDBRANCH   3   6
ENDBRANCH   2   3
TORSDOF 6
ENDMDL
MODEL      228
REMARK 921   NORMALIZED FREE ENERGY PREDICTED BY IDOCK:   -3.63 KCAL/MOL
REMARK 922        TOTAL FREE ENERGY PREDICTED BY IDOCK:   -5.41 KCAL/MOL
REMARK 923 INTER-LIGAND FREE ENERGY PREDICTED BY IDOCK:   -4.65 KCAL/MOL
REMARK 924 INTRA-LIGAND FREE ENERGY PREDICTED BY IDOCK:   -0.77 KCAL/MOL
REMARK 927      BINDING AFFINITY PREDICTED BY RF-SCORE:    0.00 PKD
ROOT
HETATM    1  C   UNL     1      -8.250   8.459  68.139  1.00  0.00    -0.124 C  
HETATM    2  C   UNL     1      -8.114   7.006  68.544  1.00  0.00    -0.124 C  
ENDROOT
BRANCH   2   3
HETATM    3  S   UNL     1      -8.970   6.663  70.072  1.00  0.00    -0.144 S  
HETATM    4  O   UNL     1      -9.866   5.549  69.866  1.00  0.00    -0.166 OA 
HETATM    5  O   UNL     1      -8.014   6.692  71.157  1.00  0.00    -0.104 OA 
BRANCH   3   6
HETATM    6  N   UNL     1      -9.912   8.059  70.179  1.00  0.00    -0.189 N  
HETATM    7  C   UNL     1     -11.403   8.110  70.192  1.00  0.00    -0.071 C  
HETATM    8  C   UNL     1     -11.342   9.498  70.911  1.00  0.00    -0.341 C  
HETATM    9  C   UNL     1      -9.886   9.065  71.278  1.00  0.00    -0.306 C  
BRANCH   8  10
HETATM   10  C   UNL     1     -12.355   9.755  72.019  1.00  0.00    -0.336 C  
BRANCH  10  11
HETATM   11  C   UNL     1     -12.980  11.136  71.903  1.00  0.00    -0.372 C  
HETATM   12  H1  UNL     1     -13.919  13.208  71.729  1.00  0.00     0.000 HD 
HETATM   13  N   UNL     1     -13.499  12.281  71.807  1.00  0.00    -0.254 NA 
HETATM   14  H2  UNL     1     -12.961  13.050  72.209  1.00  0.00     0.000 HD 
ENDBRANCH  10  11
ENDBRANCH   8  10
BRANCH   8  15
HETATM   15  N   UNL     1     -11.410  10.552  69.908  1.00  0.00    -0.286 NA 
HETATM   16  N   UNL     1     -12.376  10.536  68.963  1.00  0.00    -0.178 NA 
HETATM   17  C   UNL     1     -10.546  11.604  69.752  1.00  0.00     0.431 A  
HETATM   18  C   UNL     1     -12.105  11.598  68.203  1.00  0.00     0.039 A  
HETATM   19  C   UNL     1     -10.968  12.300  68.641  1.00  0.00    -0.276 A  
BRANCH  19  20
HETATM   20  C   UNL     1     -10.339  13.496  68.145  1.00  0.00    -0.247 A  
HETATM   21  C   UNL     1     -10.370  14.691  68.866  1.00  0.00    -0.245 A  
HETATM   22  C   UNL     1     -10.959  15.189  70.063  1.00  0.00    -0.291 A  
HETATM   23  C   UNL     1     -10.555  16.498  70.215  1.00  0.00     0.032 A  
HETATM   24  N   UNL     1      -9.763  16.819  69.144  1.00  0.00    -0.239 NA 
HETATM   25  H   UNL     1      -9.319  17.725  68.992  1.00  0.00     0.000 HD 
HETATM   26  C   UNL     1      -9.658  15.740  68.309  1.00  0.00    -0.201 A  
HETATM   27  N   UNL     1      -8.968  15.730  67.158  1.00  0.00    -0.205 NA 
HETATM   28  C   UNL     1      -9.041  14.536  66.545  1.00  0.00    -0.219 A  
HETATM   29  N   UNL     1      -9.683  13.429  66.962  1.00  0.00    -0.233 NA 
ENDBRANCH  19  20
ENDBRANCH   8  15
ENDBRANCH   3   6
ENDBRANCH   2   3
TORSDOF 6
ENDMDL
MODEL      229
REMARK 921   NORMALIZED FREE ENERGY PREDICTED BY IDOCK:   -3.62 KCAL/MOL
REMARK 922        TOTAL FREE ENERGY PREDICTED BY IDOCK:   -5.40 KCAL/MOL
REMARK 923 INTER-LIGAND FREE ENERGY PREDICTED BY IDOCK:   -4.54 KCAL/MOL
REMARK 924 INTRA-LIGAND FREE ENERGY PREDICTED BY IDOCK:   -0.86 KCAL/MOL
REMARK 927      BINDING AFFINITY PREDICTED BY RF-SCORE:    0.00 PKD
ROOT
HETATM    1  C   UNL     1      -9.915  11.927  63.233  1.00  0.00    -0.409 C  
HETATM    2  C   UNL     1     -10.036  10.442  63.501  1.00  0.00    -0.102 C  
ENDROOT
BRANCH   2   3
HETATM    3  S   UNL     1      -8.444   9.694  63.804  1.00  0.00    -0.204 S  
HETATM    4  O   UNL     1      -8.498   8.305  63.414  1.00  0.00    -0.080 OA 
HETATM    5  O   UNL     1      -7.412  10.589  63.327  1.00  0.00    -0.101 OA 
BRANCH   3   6
HETATM    6  N   UNL     1      -8.431   9.748  65.490  1.00  0.00    -0.136 N  
HETATM    7  C   UNL     1      -7.437  10.472  66.336  1.00  0.00    -0.133 C  
HETATM    8  C   UNL     1      -8.479  10.524  67.503  1.00  0.00    -0.118 C  
HETATM    9  C   UNL     1      -9.522  10.255  66.371  1.00  0.00    -0.174 C  
BRANCH   8  10
HETATM   10  C   UNL     1      -8.558  11.812  68.311  1.00  0.00    -0.162 C  
BRANCH  10  11
HETATM   11  C   UNL     1      -9.933  12.453  68.218  1.00  0.00    -0.224 C  
HETATM   12  H1  UNL     1     -11.997  13.415  68.078  1.00  0.00     0.000 HD 
HETATM   13  N   UNL     1     -11.074  12.985  68.140  1.00  0.00    -0.243 NA 
HETATM   14  H2  UNL     1     -11.240  13.570  67.320  1.00  0.00     0.000 HD 
ENDBRANCH  10  11
ENDBRANCH   8  10
BRANCH   8  15
HETATM   15  N   UNL     1      -8.256   9.385  68.384  1.00  0.00    -0.116 NA 
HETATM   16  N   UNL     1      -7.000   8.998  68.698  1.00  0.00    -0.063 NA 
HETATM   17  C   UNL     1      -9.207   8.572  68.942  1.00  0.00    -0.146 A  
HETATM   18  C   UNL     1      -7.174   7.920  69.463  1.00  0.00    -0.081 A  
HETATM   19  C   UNL     1      -8.531   7.599  69.644  1.00  0.00    -0.135 A  
BRANCH  19  20
HETATM   20  C   UNL     1      -9.167   6.553  70.400  1.00  0.00    -0.155 A  
HETATM   21  C   UNL     1      -9.811   6.814  71.611  1.00  0.00    -0.173 A  
HETATM   22  C   UNL     1     -10.009   7.920  72.486  1.00  0.00    -0.312 A  
HETATM   23  C   UNL     1     -10.789   7.487  73.537  1.00  0.00    -0.158 A  
HETATM   24  N   UNL     1     -11.050   6.155  73.345  1.00  0.00    -0.458 NA 
HETATM   25  H   UNL     1     -11.609   5.570  73.966  1.00  0.00     0.000 HD 
HETATM   26  C   UNL     1     -10.449   5.730  72.191  1.00  0.00    -0.212 A  
HETATM   27  N   UNL     1     -10.494   4.473  71.726  1.00  0.00    -0.106 NA 
HETATM   28  C   UNL     1      -9.813   4.344  70.574  1.00  0.00    -0.215 A  
HETATM   29  N   UNL     1      -9.154   5.298  69.891  1.00  0.00    -0.127 NA 
ENDBRANCH  19  20
ENDBRANCH   8  15
ENDBRANCH   3   6
ENDBRANCH   2   3
TORSDOF 6
ENDMDL
MODEL      230
REMARK 921   NORMALIZED FREE ENERGY PREDICTED BY IDOCK:   -3.62 KCAL/MOL
REMARK 922        TOTAL FREE ENERGY PREDICTED BY IDOCK:   -5.40 KCAL/MOL
REMARK 923 INTER-LIGAND FREE ENERGY PREDICTED BY IDOCK:   -5.57 KCAL/MOL
REMARK 924 INTRA-LIGAND FREE ENERGY PREDICTED BY IDOCK:    0.17 KCAL/MOL
REMARK 927      BINDING AFFINITY PREDICTED BY RF-SCORE:    0.00 PKD
ROOT
HETATM    1  C   UNL     1      -5.142   5.929  64.331  1.00  0.00    -0.013 C  
HETATM    2  C   UNL     1      -6.170   5.369  63.370  1.00  0.00    -0.022 C  
ENDROOT
BRANCH   2   3
HETATM    3  S   UNL     1      -7.740   5.088  64.172  1.00  0.00    -0.088 S  
HETATM    4  O   UNL     1      -8.775   5.034  63.166  1.00  0.00    -0.134 OA 
HETATM    5  O   UNL     1      -7.575   4.048  65.164  1.00  0.00    -0.079 OA 
BRANCH   3   6
HETATM    6  N   UNL     1      -7.899   6.556  64.987  1.00  0.00    -0.107 N  
HETATM    7  C   UNL     1      -7.501   6.821  66.400  1.00  0.00    -0.074 C  
HETATM    8  C   UNL     1      -7.386   8.348  66.074  1.00  0.00    -0.073 C  
HETATM    9  C   UNL     1      -7.297   7.861  64.591  1.00  0.00    -0.084 C  
BRANCH   8  10
HETATM   10  C   UNL     1      -6.219   9.107  66.689  1.00  0.00    -0.065 C  
BRANCH  10  11
HETATM   11  C   UNL     1      -6.255   9.063  68.209  1.00  0.00    -0.054 C  
HETATM   12  H1  UNL     1      -6.310   8.996  70.488  1.00  0.00     0.000 HD 
HETATM   13  N   UNL     1      -6.285   9.026  69.469  1.00  0.00    -0.039 NA 
HETATM   14  H2  UNL     1      -5.490   9.451  69.947  1.00  0.00     0.000 HD 
ENDBRANCH  10  11
ENDBRANCH   8  10
BRANCH   8  15
HETATM   15  N   UNL     1      -8.646   8.997  66.408  1.00  0.00    -0.122 NA 
HETATM   16  N   UNL     1      -9.670   8.280  66.923  1.00  0.00    -0.204 NA 
HETATM   17  C   UNL     1      -8.975  10.313  66.219  1.00  0.00    -0.153 A  
HETATM   18  C   UNL     1     -10.655   9.169  67.054  1.00  0.00    -0.195 A  
HETATM   19  C   UNL     1     -10.285  10.455  66.623  1.00  0.00    -0.292 A  
BRANCH  19  20
HETATM   20  C   UNL     1     -11.010  11.698  66.607  1.00  0.00    -0.299 A  
HETATM   21  C   UNL     1     -11.464  12.263  65.414  1.00  0.00    -0.402 A  
HETATM   22  C   UNL     1     -11.372  12.002  64.017  1.00  0.00    -0.478 A  
HETATM   23  C   UNL     1     -12.098  12.973  63.361  1.00  0.00    -0.515 A  
HETATM   24  N   UNL     1     -12.607  13.826  64.306  1.00  0.00    -0.677 NA 
HETATM   25  H   UNL     1     -13.189  14.640  64.110  1.00  0.00     0.000 HD 
HETATM   26  C   UNL     1     -12.216  13.418  65.553  1.00  0.00    -0.455 A  
HETATM   27  N   UNL     1     -12.530  14.048  66.695  1.00  0.00    -0.363 NA 
HETATM   28  C   UNL     1     -12.009  13.425  67.766  1.00  0.00    -0.324 A  
HETATM   29  N   UNL     1     -11.270  12.301  67.791  1.00  0.00    -0.257 NA 
ENDBRANCH  19  20
ENDBRANCH   8  15
ENDBRANCH   3   6
ENDBRANCH   2   3
TORSDOF 6
ENDMDL
MODEL      231
REMARK 921   NORMALIZED FREE ENERGY PREDICTED BY IDOCK:   -3.60 KCAL/MOL
REMARK 922        TOTAL FREE ENERGY PREDICTED BY IDOCK:   -5.37 KCAL/MOL
REMARK 923 INTER-LIGAND FREE ENERGY PREDICTED BY IDOCK:   -4.86 KCAL/MOL
REMARK 924 INTRA-LIGAND FREE ENERGY PREDICTED BY IDOCK:   -0.51 KCAL/MOL
REMARK 927      BINDING AFFINITY PREDICTED BY RF-SCORE:    0.00 PKD
ROOT
HETATM    1  C   UNL     1      -8.427  17.069  67.552  1.00  0.00    -0.208 C  
HETATM    2  C   UNL     1      -8.702  16.315  66.268  1.00  0.00    -0.335 C  
ENDROOT
BRANCH   2   3
HETATM    3  S   UNL     1     -10.075  15.189  66.445  1.00  0.00    -0.289 S  
HETATM    4  O   UNL     1     -10.971  15.699  67.456  1.00  0.00    -0.316 OA 
HETATM    5  O   UNL     1     -10.537  14.809  65.127  1.00  0.00    -0.360 OA 
BRANCH   3   6
HETATM    6  N   UNL     1      -9.263  13.867  67.106  1.00  0.00    -0.229 N  
HETATM    7  C   UNL     1      -7.798  13.602  67.010  1.00  0.00     0.127 C  
HETATM    8  C   UNL     1      -7.881  12.714  68.296  1.00  0.00    -0.144 C  
HETATM    9  C   UNL     1      -9.220  13.481  68.546  1.00  0.00    -0.101 C  
BRANCH   8  10
HETATM   10  C   UNL     1      -6.744  12.834  69.302  1.00  0.00    -0.058 C  
BRANCH  10  11
HETATM   11  C   UNL     1      -6.460  14.283  69.661  1.00  0.00    -0.140 C  
HETATM   12  H1  UNL     1      -6.033  16.458  70.201  1.00  0.00     0.000 HD 
HETATM   13  N   UNL     1      -6.224  15.486  69.959  1.00  0.00    -0.157 NA 
HETATM   14  H2  UNL     1      -6.616  16.188  69.330  1.00  0.00     0.000 HD 
ENDBRANCH  10  11
ENDBRANCH   8  10
BRANCH   8  15
HETATM   15  N   UNL     1      -8.062  11.324  67.899  1.00  0.00    -0.116 NA 
HETATM   16  N   UNL     1      -7.306  10.790  66.913  1.00  0.00    -0.112 NA 
HETATM   17  C   UNL     1      -8.983  10.436  68.388  1.00  0.00    -0.137 A  
HETATM   18  C   UNL     1      -7.770   9.547  66.786  1.00  0.00    -0.098 A  
HETATM   19  C   UNL     1      -8.824   9.269  67.674  1.00  0.00    -0.122 A  
BRANCH  19  20
HETATM   20  C   UNL     1      -9.590   8.071  67.895  1.00  0.00    -0.155 A  
HETATM   21  C   UNL     1     -10.436   7.938  68.997  1.00  0.00    -0.210 A  
HETATM   22  C   UNL     1     -10.780   8.681  70.162  1.00  0.00    -0.244 A  
HETATM   23  C   UNL     1     -11.736   7.963  70.849  1.00  0.00    -0.257 A  
HETATM   24  N   UNL     1     -11.967   6.803  70.157  1.00  0.00    -0.639 NA 
HETATM   25  H   UNL     1     -12.630   6.077  70.431  1.00  0.00     0.000 HD 
HETATM   26  C   UNL     1     -11.173   6.766  69.043  1.00  0.00    -0.149 A  
HETATM   27  N   UNL     1     -11.142   5.755  68.162  1.00  0.00    -0.063 NA 
HETATM   28  C   UNL     1     -10.269   5.988  67.167  1.00  0.00    -0.202 A  
HETATM   29  N   UNL     1      -9.494   7.073  66.984  1.00  0.00    -0.143 NA 
ENDBRANCH  19  20
ENDBRANCH   8  15
ENDBRANCH   3   6
ENDBRANCH   2   3
TORSDOF 6
ENDMDL
MODEL      232
REMARK 921   NORMALIZED FREE ENERGY PREDICTED BY IDOCK:   -3.60 KCAL/MOL
REMARK 922        TOTAL FREE ENERGY PREDICTED BY IDOCK:   -5.37 KCAL/MOL
REMARK 923 INTER-LIGAND FREE ENERGY PREDICTED BY IDOCK:   -4.92 KCAL/MOL
REMARK 924 INTRA-LIGAND FREE ENERGY PREDICTED BY IDOCK:   -0.45 KCAL/MOL
REMARK 927      BINDING AFFINITY PREDICTED BY RF-SCORE:    0.00 PKD
ROOT
HETATM    1  C   UNL     1     -10.305  13.751  68.084  1.00  0.00    -0.252 C  
HETATM    2  C   UNL     1      -9.627  13.042  66.930  1.00  0.00    -0.243 C  
ENDROOT
BRANCH   2   3
HETATM    3  S   UNL     1     -10.676  11.784  66.220  1.00  0.00    -0.280 S  
HETATM    4  O   UNL     1     -12.055  12.130  66.472  1.00  0.00    -0.627 OA 
HETATM    5  O   UNL     1     -10.190  11.469  64.894  1.00  0.00    -0.247 OA 
BRANCH   3   6
HETATM    6  N   UNL     1     -10.282  10.494  67.233  1.00  0.00    -0.204 N  
HETATM    7  C   UNL     1      -9.086  10.410  68.120  1.00  0.00    -0.142 C  
HETATM    8  C   UNL     1      -9.835   9.372  69.020  1.00  0.00    -0.169 C  
HETATM    9  C   UNL     1     -11.119   9.947  68.340  1.00  0.00    -0.139 C  
BRANCH   8  10
HETATM   10  C   UNL     1      -9.658   9.500  70.527  1.00  0.00    -0.312 C  
BRANCH  10  11
HETATM   11  C   UNL     1     -10.961   9.255  71.271  1.00  0.00    -0.351 C  
HETATM   12  H1  UNL     1     -12.916   8.888  72.387  1.00  0.00     0.000 HD 
HETATM   13  N   UNL     1     -12.042   9.053  71.889  1.00  0.00    -0.359 NA 
HETATM   14  H2  UNL     1     -12.088   9.419  72.840  1.00  0.00     0.000 HD 
ENDBRANCH  10  11
ENDBRANCH   8  10
BRANCH   8  15
HETATM   15  N   UNL     1      -9.485   8.028  68.581  1.00  0.00    -0.146 NA 
HETATM   16  N   UNL     1      -8.776   7.207  69.388  1.00  0.00    -0.134 NA 
HETATM   17  C   UNL     1      -9.756   7.457  67.365  1.00  0.00    -0.153 A  
HETATM   18  C   UNL     1      -8.601   6.105  68.656  1.00  0.00    -0.113 A  
HETATM   19  C   UNL     1      -9.183   6.205  67.380  1.00  0.00    -0.112 A  
BRANCH  19  20
HETATM   20  C   UNL     1      -9.257   5.265  66.293  1.00  0.00    -0.149 A  
HETATM   21  C   UNL     1      -8.120   4.618  65.808  1.00  0.00    -0.103 A  
HETATM   22  C   UNL     1      -6.713   4.642  66.030  1.00  0.00    -0.053 A  
HETATM   23  C   UNL     1      -6.142   3.698  65.203  1.00  0.00    -0.023 A  
HETATM   24  N   UNL     1      -7.147   3.120  64.471  1.00  0.00    -0.056 NA 
HETATM   25  H   UNL     1      -7.019   2.384  63.776  1.00  0.00     0.000 HD 
HETATM   26  C   UNL     1      -8.347   3.680  64.814  1.00  0.00    -0.096 A  
HETATM   27  N   UNL     1      -9.527   3.350  64.267  1.00  0.00    -0.135 NA 
HETATM   28  C   UNL     1     -10.537   4.063  64.795  1.00  0.00    -0.153 A  
HETATM   29  N   UNL     1     -10.474   4.996  65.763  1.00  0.00    -0.166 NA 
ENDBRANCH  19  20
ENDBRANCH   8  15
ENDBRANCH   3   6
ENDBRANCH   2   3
TORSDOF 6
ENDMDL
MODEL      233
REMARK 921   NORMALIZED FREE ENERGY PREDICTED BY IDOCK:   -3.59 KCAL/MOL
REMARK 922        TOTAL FREE ENERGY PREDICTED BY IDOCK:   -5.37 KCAL/MOL
REMARK 923 INTER-LIGAND FREE ENERGY PREDICTED BY IDOCK:   -4.79 KCAL/MOL
REMARK 924 INTRA-LIGAND FREE ENERGY PREDICTED BY IDOCK:   -0.58 KCAL/MOL
REMARK 927      BINDING AFFINITY PREDICTED BY RF-SCORE:    0.00 PKD
ROOT
HETATM    1  C   UNL     1      -7.324  10.819  62.337  1.00  0.00    -0.119 C  
HETATM    2  C   UNL     1      -6.774  10.006  63.491  1.00  0.00    -0.135 C  
ENDROOT
BRANCH   2   3
HETATM    3  S   UNL     1      -7.833   8.627  63.891  1.00  0.00    -0.154 S  
HETATM    4  O   UNL     1      -8.874   8.533  62.895  1.00  0.00    -0.011 OA 
HETATM    5  O   UNL     1      -7.007   7.496  64.252  1.00  0.00    -0.056 OA 
BRANCH   3   6
HETATM    6  N   UNL     1      -8.536   9.222  65.305  1.00  0.00    -0.156 N  
HETATM    7  C   UNL     1      -7.960  10.271  66.195  1.00  0.00    -0.131 C  
HETATM    8  C   UNL     1      -9.394  10.596  66.729  1.00  0.00    -0.157 C  
HETATM    9  C   UNL     1      -9.870   9.879  65.425  1.00  0.00    -0.313 C  
BRANCH   8  10
HETATM   10  C   UNL     1      -9.740  12.062  66.952  1.00  0.00    -0.213 C  
BRANCH  10  11
HETATM   11  C   UNL     1      -9.876  12.816  65.638  1.00  0.00    -0.179 C  
HETATM   12  H1  UNL     1     -10.079  13.947  63.668  1.00  0.00     0.000 HD 
HETATM   13  N   UNL     1      -9.988  13.442  64.549  1.00  0.00    -0.635 NA 
HETATM   14  H2  UNL     1     -10.556  14.290  64.577  1.00  0.00     0.000 HD 
ENDBRANCH  10  11
ENDBRANCH   8  10
BRANCH   8  15
HETATM   15  N   UNL     1      -9.630   9.829  67.945  1.00  0.00    -0.138 NA 
HETATM   16  N   UNL     1     -10.783   9.142  68.108  1.00  0.00    -0.177 NA 
HETATM   17  C   UNL     1      -8.808   9.736  69.037  1.00  0.00    -0.153 A  
HETATM   18  C   UNL     1     -10.676   8.615  69.328  1.00  0.00    -0.136 A  
HETATM   19  C   UNL     1      -9.468   8.957  69.962  1.00  0.00    -0.189 A  
BRANCH  19  20
HETATM   20  C   UNL     1      -8.934   8.596  71.248  1.00  0.00    -0.210 A  
HETATM   21  C   UNL     1      -9.608   7.717  72.099  1.00  0.00    -0.230 A  
HETATM   22  C   UNL     1     -10.851   7.023  72.133  1.00  0.00    -0.255 A  
HETATM   23  C   UNL     1     -10.881   6.276  73.292  1.00  0.00    -0.244 A  
HETATM   24  N   UNL     1      -9.714   6.510  73.972  1.00  0.00    -0.219 NA 
HETATM   25  H   UNL     1      -9.460   6.089  74.865  1.00  0.00     0.000 HD 
HETATM   26  C   UNL     1      -8.942   7.395  73.270  1.00  0.00    -0.165 A  
HETATM   27  N   UNL     1      -7.745   7.848  73.671  1.00  0.00    -0.147 NA 
HETATM   28  C   UNL     1      -7.215   8.708  72.784  1.00  0.00     0.072 A  
HETATM   29  N   UNL     1      -7.734   9.110  71.609  1.00  0.00    -0.336 NA 
ENDBRANCH  19  20
ENDBRANCH   8  15
ENDBRANCH   3   6
ENDBRANCH   2   3
TORSDOF 6
ENDMDL
MODEL      234
REMARK 921   NORMALIZED FREE ENERGY PREDICTED BY IDOCK:   -3.54 KCAL/MOL
REMARK 922        TOTAL FREE ENERGY PREDICTED BY IDOCK:   -5.29 KCAL/MOL
REMARK 923 INTER-LIGAND FREE ENERGY PREDICTED BY IDOCK:   -4.55 KCAL/MOL
REMARK 924 INTRA-LIGAND FREE ENERGY PREDICTED BY IDOCK:   -0.74 KCAL/MOL
REMARK 927      BINDING AFFINITY PREDICTED BY RF-SCORE:    0.00 PKD
ROOT
HETATM    1  C   UNL     1     -10.176  16.594  67.510  1.00  0.00    -0.289 C  
HETATM    2  C   UNL     1     -10.829  15.794  66.401  1.00  0.00    -0.226 C  
ENDROOT
BRANCH   2   3
HETATM    3  S   UNL     1     -11.674  14.356  67.035  1.00  0.00    -0.398 S  
HETATM    4  O   UNL     1     -12.349  14.713  68.260  1.00  0.00    -0.132 OA 
HETATM    5  O   UNL     1     -12.357  13.699  65.942  1.00  0.00    -0.438 OA 
BRANCH   3   6
HETATM    6  N   UNL     1     -10.338  13.411  67.447  1.00  0.00    -0.239 N  
HETATM    7  C   UNL     1      -9.023  13.400  66.744  1.00  0.00    -0.179 C  
HETATM    8  C   UNL     1      -8.339  12.863  68.045  1.00  0.00    -0.169 C  
HETATM    9  C   UNL     1      -9.619  13.413  68.753  1.00  0.00     0.043 C  
BRANCH   8  10
HETATM   10  C   UNL     1      -6.974  13.435  68.403  1.00  0.00    -0.105 C  
BRANCH  10  11
HETATM   11  C   UNL     1      -7.066  14.895  68.818  1.00  0.00    -0.115 C  
HETATM   12  H1  UNL     1      -7.203  17.085  69.441  1.00  0.00     0.000 HD 
HETATM   13  N   UNL     1      -7.142  16.106  69.163  1.00  0.00    -0.198 NA 
HETATM   14  H2  UNL     1      -7.705  16.300  69.991  1.00  0.00     0.000 HD 
ENDBRANCH  10  11
ENDBRANCH   8  10
BRANCH   8  15
HETATM   15  N   UNL     1      -8.279  11.409  67.980  1.00  0.00    -0.133 NA 
HETATM   16  N   UNL     1      -8.282  10.777  66.785  1.00  0.00    -0.130 NA 
HETATM   17  C   UNL     1      -8.260  10.533  69.033  1.00  0.00    -0.145 A  
HETATM   18  C   UNL     1      -8.270   9.482  67.103  1.00  0.00    -0.113 A  
HETATM   19  C   UNL     1      -8.265   9.266  68.493  1.00  0.00    -0.114 A  
BRANCH  19  20
HETATM   20  C   UNL     1      -8.228   8.053  69.267  1.00  0.00    -0.127 A  
HETATM   21  C   UNL     1      -9.355   7.242  69.409  1.00  0.00    -0.151 A  
HETATM   22  C   UNL     1     -10.730   7.268  69.038  1.00  0.00    -0.183 A  
HETATM   23  C   UNL     1     -11.306   6.098  69.487  1.00  0.00    -0.356 A  
HETATM   24  N   UNL     1     -10.338   5.377  70.137  1.00  0.00    -0.273 NA 
HETATM   25  H   UNL     1     -10.478   4.465  70.572  1.00  0.00     0.000 HD 
HETATM   26  C   UNL     1      -9.156   6.066  70.113  1.00  0.00    -0.147 A  
HETATM   27  N   UNL     1      -8.015   5.644  70.678  1.00  0.00    -0.102 NA 
HETATM   28  C   UNL     1      -7.015   6.524  70.499  1.00  0.00    -0.064 A  
HETATM   29  N   UNL     1      -7.053   7.696  69.838  1.00  0.00    -0.062 NA 
ENDBRANCH  19  20
ENDBRANCH   8  15
ENDBRANCH   3   6
ENDBRANCH   2   3
TORSDOF 6
ENDMDL
MODEL      235
REMARK 921   NORMALIZED FREE ENERGY PREDICTED BY IDOCK:   -3.50 KCAL/MOL
REMARK 922        TOTAL FREE ENERGY PREDICTED BY IDOCK:   -5.23 KCAL/MOL
REMARK 923 INTER-LIGAND FREE ENERGY PREDICTED BY IDOCK:   -4.98 KCAL/MOL
REMARK 924 INTRA-LIGAND FREE ENERGY PREDICTED BY IDOCK:   -0.25 KCAL/MOL
REMARK 927      BINDING AFFINITY PREDICTED BY RF-SCORE:    0.00 PKD
ROOT
HETATM    1  C   UNL     1      -9.403   4.348  70.573  1.00  0.00    -0.213 C  
HETATM    2  C   UNL     1      -9.907   5.268  69.480  1.00  0.00    -0.200 C  
ENDROOT
BRANCH   2   3
HETATM    3  S   UNL     1      -8.866   5.204  68.032  1.00  0.00    -0.102 S  
HETATM    4  O   UNL     1      -7.522   4.865  68.437  1.00  0.00    -0.072 OA 
HETATM    5  O   UNL     1      -9.562   4.482  66.990  1.00  0.00    -0.162 OA 
BRANCH   3   6
HETATM    6  N   UNL     1      -8.873   6.839  67.616  1.00  0.00    -0.118 N  
HETATM    7  C   UNL     1      -7.672   7.717  67.496  1.00  0.00    -0.117 C  
HETATM    8  C   UNL     1      -8.473   8.670  66.546  1.00  0.00    -0.113 C  
HETATM    9  C   UNL     1      -9.411   7.434  66.359  1.00  0.00    -0.134 C  
BRANCH   8  10
HETATM   10  C   UNL     1      -7.732   9.242  65.346  1.00  0.00    -0.099 C  
BRANCH  10  11
HETATM   11  C   UNL     1      -8.639   9.376  64.134  1.00  0.00    -0.198 C  
HETATM   12  H1  UNL     1     -10.001   9.576  62.314  1.00  0.00     0.000 HD 
HETATM   13  N   UNL     1      -9.392   9.487  63.128  1.00  0.00    -0.512 NA 
HETATM   14  H2  UNL     1      -9.331  10.370  62.619  1.00  0.00     0.000 HD 
ENDBRANCH  10  11
ENDBRANCH   8  10
BRANCH   8  15
HETATM   15  N   UNL     1      -9.060   9.741  67.339  1.00  0.00    -0.134 NA 
HETATM   16  N   UNL     1      -9.453   9.514  68.613  1.00  0.00    -0.141 NA 
HETATM   17  C   UNL     1      -9.325  11.022  66.933  1.00  0.00    -0.173 A  
HETATM   18  C   UNL     1      -9.977  10.677  69.003  1.00  0.00    -0.213 A  
HETATM   19  C   UNL     1      -9.933  11.655  67.994  1.00  0.00    -0.194 A  
BRANCH  19  20
HETATM   20  C   UNL     1     -10.355  13.031  67.986  1.00  0.00    -0.234 A  
HETATM   21  C   UNL     1      -9.464  14.070  68.259  1.00  0.00    -0.216 A  
HETATM   22  C   UNL     1      -8.106  14.221  68.660  1.00  0.00    -0.140 A  
HETATM   23  C   UNL     1      -7.837  15.571  68.728  1.00  0.00    -0.160 A  
HETATM   24  N   UNL     1      -8.987  16.245  68.406  1.00  0.00    -0.196 NA 
HETATM   25  H   UNL     1      -9.084  17.260  68.371  1.00  0.00     0.000 HD 
HETATM   26  C   UNL     1      -9.985  15.348  68.138  1.00  0.00    -0.221 A  
HETATM   27  N   UNL     1     -11.242  15.682  67.809  1.00  0.00    -0.322 NA 
HETATM   28  C   UNL     1     -12.007  14.596  67.602  1.00  0.00    -0.274 A  
HETATM   29  N   UNL     1     -11.645  13.302  67.675  1.00  0.00    -0.324 NA 
ENDBRANCH  19  20
ENDBRANCH   8  15
ENDBRANCH   3   6
ENDBRANCH   2   3
TORSDOF 6
ENDMDL
MODEL      236
REMARK 921   NORMALIZED FREE ENERGY PREDICTED BY IDOCK:   -3.46 KCAL/MOL
REMARK 922        TOTAL FREE ENERGY PREDICTED BY IDOCK:   -5.18 KCAL/MOL
REMARK 923 INTER-LIGAND FREE ENERGY PREDICTED BY IDOCK:   -4.65 KCAL/MOL
REMARK 924 INTRA-LIGAND FREE ENERGY PREDICTED BY IDOCK:   -0.53 KCAL/MOL
REMARK 927      BINDING AFFINITY PREDICTED BY RF-SCORE:    0.00 PKD
ROOT
HETATM    1  C   UNL     1      -7.220  13.484  67.674  1.00  0.00    -0.175 C  
HETATM    2  C   UNL     1      -7.679  12.593  68.809  1.00  0.00     0.007 C  
ENDROOT
BRANCH   2   3
HETATM    3  S   UNL     1      -6.556  11.232  69.075  1.00  0.00    -0.088 S  
HETATM    4  O   UNL     1      -5.380  11.430  68.259  1.00  0.00    -0.043 OA 
HETATM    5  O   UNL     1      -6.473  10.968  70.495  1.00  0.00    -0.309 OA 
BRANCH   3   6
HETATM    6  N   UNL     1      -7.457   9.990  68.373  1.00  0.00    -0.081 N  
HETATM    7  C   UNL     1      -8.481  10.150  67.301  1.00  0.00    -0.125 C  
HETATM    8  C   UNL     1      -8.272   8.655  66.887  1.00  0.00    -0.105 C  
HETATM    9  C   UNL     1      -6.919   8.798  67.657  1.00  0.00    -0.075 C  
BRANCH   8  10
HETATM   10  C   UNL     1      -8.263   8.338  65.398  1.00  0.00    -0.146 C  
BRANCH  10  11
HETATM   11  C   UNL     1      -7.668   9.475  64.583  1.00  0.00    -0.120 C  
HETATM   12  H1  UNL     1      -6.776  11.182  63.360  1.00  0.00     0.000 HD 
HETATM   13  N   UNL     1      -7.175  10.419  63.907  1.00  0.00    -0.317 NA 
HETATM   14  H2  UNL     1      -6.790  11.198  64.442  1.00  0.00     0.000 HD 
ENDBRANCH  10  11
ENDBRANCH   8  10
BRANCH   8  15
HETATM   15  N   UNL     1      -9.258   7.833  67.575  1.00  0.00    -0.132 NA 
HETATM   16  N   UNL     1     -10.318   7.330  66.903  1.00  0.00    -0.286 NA 
HETATM   17  C   UNL     1      -9.285   7.513  68.907  1.00  0.00    -0.142 A  
HETATM   18  C   UNL     1     -11.019   6.688  67.838  1.00  0.00    -0.257 A  
HETATM   19  C   UNL     1     -10.430   6.774  69.112  1.00  0.00    -0.240 A  
BRANCH  19  20
HETATM   20  C   UNL     1     -10.822   6.220  70.380  1.00  0.00    -0.299 A  
HETATM   21  C   UNL     1     -10.084   5.207  70.995  1.00  0.00    -0.297 A  
HETATM   22  C   UNL     1      -8.954   4.393  70.699  1.00  0.00    -0.158 A  
HETATM   23  C   UNL     1      -8.727   3.580  71.789  1.00  0.00    -0.089 A  
HETATM   24  N   UNL     1      -9.691   3.854  72.724  1.00  0.00    -0.133 NA 
HETATM   25  H   UNL     1      -9.770   3.403  73.636  1.00  0.00     0.000 HD 
HETATM   26  C   UNL     1     -10.531   4.824  72.249  1.00  0.00    -0.189 A  
HETATM   27  N   UNL     1     -11.592   5.306  72.913  1.00  0.00    -0.283 NA 
HETATM   28  C   UNL     1     -12.235   6.250  72.205  1.00  0.00    -0.203 A  
HETATM   29  N   UNL     1     -11.921   6.728  70.987  1.00  0.00    -0.370 NA 
ENDBRANCH  19  20
ENDBRANCH   8  15
ENDBRANCH   3   6
ENDBRANCH   2   3
TORSDOF 6
ENDMDL
MODEL      237
REMARK 921   NORMALIZED FREE ENERGY PREDICTED BY IDOCK:   -3.46 KCAL/MOL
REMARK 922        TOTAL FREE ENERGY PREDICTED BY IDOCK:   -5.18 KCAL/MOL
REMARK 923 INTER-LIGAND FREE ENERGY PREDICTED BY IDOCK:   -4.39 KCAL/MOL
REMARK 924 INTRA-LIGAND FREE ENERGY PREDICTED BY IDOCK:   -0.79 KCAL/MOL
REMARK 927      BINDING AFFINITY PREDICTED BY RF-SCORE:    0.00 PKD
ROOT
HETATM    1  C   UNL     1      -6.943   9.562  67.030  1.00  0.00    -0.085 C  
HETATM    2  C   UNL     1      -7.831  10.336  66.079  1.00  0.00    -0.133 C  
ENDROOT
BRANCH   2   3
HETATM    3  S   UNL     1      -8.839  11.530  66.942  1.00  0.00    -0.187 S  
HETATM    4  O   UNL     1      -7.981  12.383  67.731  1.00  0.00    -0.132 OA 
HETATM    5  O   UNL     1      -9.818  12.064  66.020  1.00  0.00    -0.228 OA 
BRANCH   3   6
HETATM    6  N   UNL     1      -9.643  10.496  68.004  1.00  0.00    -0.146 N  
HETATM    7  C   UNL     1      -9.580  10.550  69.494  1.00  0.00    -0.098 C  
HETATM    8  C   UNL     1     -10.955   9.806  69.571  1.00  0.00    -0.227 C  
HETATM    9  C   UNL     1     -11.116  10.283  68.092  1.00  0.00    -0.264 C  
BRANCH   8  10
HETATM   10  C   UNL     1     -11.945  10.278  70.627  1.00  0.00    -0.436 C  
BRANCH  10  11
HETATM   11  C   UNL     1     -12.071  11.793  70.647  1.00  0.00    -0.311 C  
HETATM   12  H1  UNL     1     -12.259  14.066  70.675  1.00  0.00     0.000 HD 
HETATM   13  N   UNL     1     -12.175  13.049  70.663  1.00  0.00    -0.448 NA 
HETATM   14  H2  UNL     1     -13.114  13.418  70.820  1.00  0.00     0.000 HD 
ENDBRANCH  10  11
ENDBRANCH   8  10
BRANCH   8  15
HETATM   15  N   UNL     1     -10.710   8.376  69.708  1.00  0.00    -0.228 NA 
HETATM   16  N   UNL     1     -10.956   7.539  68.676  1.00  0.00     0.014 NA 
HETATM   17  C   UNL     1     -10.277   7.714  70.825  1.00  0.00    -0.201 A  
HETATM   18  C   UNL     1     -10.673   6.330  69.164  1.00  0.00    -0.301 A  
HETATM   19  C   UNL     1     -10.252   6.374  70.505  1.00  0.00    -0.230 A  
BRANCH  19  20
HETATM   20  C   UNL     1      -9.830   5.332  71.404  1.00  0.00    -0.174 A  
HETATM   21  C   UNL     1      -8.516   5.255  71.868  1.00  0.00    -0.126 A  
HETATM   22  C   UNL     1      -7.279   5.929  71.658  1.00  0.00    -0.087 A  
HETATM   23  C   UNL     1      -6.340   5.345  72.481  1.00  0.00    -0.051 A  
HETATM   24  N   UNL     1      -6.955   4.328  73.164  1.00  0.00    -0.060 NA 
HETATM   25  H   UNL     1      -6.502   3.721  73.848  1.00  0.00     0.000 HD 
HETATM   26  C   UNL     1      -8.269   4.250  72.788  1.00  0.00    -0.094 A  
HETATM   27  N   UNL     1      -9.144   3.348  73.257  1.00  0.00    -0.096 NA 
HETATM   28  C   UNL     1     -10.362   3.507  72.712  1.00  0.00    -0.160 A  
HETATM   29  N   UNL     1     -10.754   4.432  71.817  1.00  0.00     0.103 NA 
ENDBRANCH  19  20
ENDBRANCH   8  15
ENDBRANCH   3   6
ENDBRANCH   2   3
TORSDOF 6
ENDMDL
MODEL      238
REMARK 921   NORMALIZED FREE ENERGY PREDICTED BY IDOCK:   -3.40 KCAL/MOL
REMARK 922        TOTAL FREE ENERGY PREDICTED BY IDOCK:   -5.11 KCAL/MOL
REMARK 923 INTER-LIGAND FREE ENERGY PREDICTED BY IDOCK:   -4.90 KCAL/MOL
REMARK 924 INTRA-LIGAND FREE ENERGY PREDICTED BY IDOCK:   -0.20 KCAL/MOL
REMARK 927      BINDING AFFINITY PREDICTED BY RF-SCORE:    0.00 PKD
ROOT
HETATM    1  C   UNL     1     -11.330  15.413  64.488  1.00  0.00    -0.321 C  
HETATM    2  C   UNL     1     -11.512  14.058  63.837  1.00  0.00     0.050 C  
ENDROOT
BRANCH   2   3
HETATM    3  S   UNL     1     -12.683  13.048  64.728  1.00  0.00    -0.268 S  
HETATM    4  O   UNL     1     -13.558  13.910  65.489  1.00  0.00    -0.579 OA 
HETATM    5  O   UNL     1     -13.192  12.029  63.836  1.00  0.00    -0.705 OA 
BRANCH   3   6
HETATM    6  N   UNL     1     -11.632  12.302  65.816  1.00  0.00    -0.380 N  
HETATM    7  C   UNL     1     -10.237  11.862  65.523  1.00  0.00    -0.254 C  
HETATM    8  C   UNL     1      -9.900  11.939  67.050  1.00  0.00    -0.192 C  
HETATM    9  C   UNL     1     -11.165  12.854  67.120  1.00  0.00    -0.289 C  
BRANCH   8  10
HETATM   10  C   UNL     1      -8.540  12.503  67.436  1.00  0.00    -0.187 C  
BRANCH  10  11
HETATM   11  C   UNL     1      -8.667  13.688  68.379  1.00  0.00    -0.153 C  
HETATM   12  H1  UNL     1      -8.858  15.467  69.794  1.00  0.00     0.000 HD 
HETATM   13  N   UNL     1      -8.772  14.672  69.162  1.00  0.00    -0.362 NA 
HETATM   14  H2  UNL     1      -7.924  14.936  69.664  1.00  0.00     0.000 HD 
ENDBRANCH  10  11
ENDBRANCH   8  10
BRANCH   8  15
HETATM   15  N   UNL     1     -10.090  10.621  67.641  1.00  0.00    -0.172 NA 
HETATM   16  N   UNL     1     -11.331  10.185  67.954  1.00  0.00    -0.254 NA 
HETATM   17  C   UNL     1      -9.118   9.721  67.987  1.00  0.00    -0.125 A  
HETATM   18  C   UNL     1     -11.124   8.990  68.509  1.00  0.00     0.212 A  
HETATM   19  C   UNL     1      -9.761   8.649  68.566  1.00  0.00    -0.174 A  
BRANCH  19  20
HETATM   20  C   UNL     1      -9.095   7.468  69.050  1.00  0.00    -0.140 A  
HETATM   21  C   UNL     1      -7.749   7.488  69.420  1.00  0.00    -0.111 A  
HETATM   22  C   UNL     1      -6.662   8.408  69.407  1.00  0.00    -0.045 A  
HETATM   23  C   UNL     1      -5.569   7.772  69.957  1.00  0.00    -0.023 A  
HETATM   24  N   UNL     1      -5.947   6.495  70.280  1.00  0.00    -0.022 NA 
HETATM   25  H   UNL     1      -5.341   5.794  70.708  1.00  0.00     0.000 HD 
HETATM   26  C   UNL     1      -7.259   6.303  69.943  1.00  0.00    -0.074 A  
HETATM   27  N   UNL     1      -7.930   5.153  70.112  1.00  0.00    -0.078 NA 
HETATM   28  C   UNL     1      -9.202   5.253  69.691  1.00  0.00    -0.118 A  
HETATM   29  N   UNL     1      -9.819   6.330  69.170  1.00  0.00    -0.141 NA 
ENDBRANCH  19  20
ENDBRANCH   8  15
ENDBRANCH   3   6
ENDBRANCH   2   3
TORSDOF 6
ENDMDL
MODEL      239
REMARK 921   NORMALIZED FREE ENERGY PREDICTED BY IDOCK:   -3.39 KCAL/MOL
REMARK 922        TOTAL FREE ENERGY PREDICTED BY IDOCK:   -5.08 KCAL/MOL
REMARK 923 INTER-LIGAND FREE ENERGY PREDICTED BY IDOCK:   -4.53 KCAL/MOL
REMARK 924 INTRA-LIGAND FREE ENERGY PREDICTED BY IDOCK:   -0.55 KCAL/MOL
REMARK 927      BINDING AFFINITY PREDICTED BY RF-SCORE:    0.00 PKD
ROOT
HETATM    1  C   UNL     1     -12.185  15.664  70.837  1.00  0.00    -0.466 C  
HETATM    2  C   UNL     1     -12.237  14.632  69.729  1.00  0.00    -0.302 C  
ENDROOT
BRANCH   2   3
HETATM    3  S   UNL     1     -11.518  15.250  68.217  1.00  0.00    -0.345 S  
HETATM    4  O   UNL     1     -12.232  14.686  67.096  1.00  0.00    -0.301 OA 
HETATM    5  O   UNL     1     -11.299  16.673  68.354  1.00  0.00    -0.321 OA 
BRANCH   3   6
HETATM    6  N   UNL     1     -10.014  14.489  68.297  1.00  0.00    -0.223 N  
HETATM    7  C   UNL     1      -9.093  14.248  67.148  1.00  0.00    -0.228 C  
HETATM    8  C   UNL     1      -7.887  14.162  68.142  1.00  0.00    -0.142 C  
HETATM    9  C   UNL     1      -8.846  14.914  69.121  1.00  0.00    -0.145 C  
BRANCH   8  10
HETATM   10  C   UNL     1      -6.582  14.818  67.713  1.00  0.00    -0.188 C  
BRANCH  10  11
HETATM   11  C   UNL     1      -6.482  16.252  68.207  1.00  0.00    -0.127 C  
HETATM   12  H1  UNL     1      -6.333  18.405  68.947  1.00  0.00     0.000 HD 
HETATM   13  N   UNL     1      -6.400  17.442  68.616  1.00  0.00    -0.172 NA 
HETATM   14  H2  UNL     1      -7.136  18.075  68.301  1.00  0.00     0.000 HD 
ENDBRANCH  10  11
ENDBRANCH   8  10
BRANCH   8  15
HETATM   15  N   UNL     1      -7.663  12.766  68.491  1.00  0.00    -0.131 NA 
HETATM   16  N   UNL     1      -6.833  12.439  69.507  1.00  0.00     0.011 NA 
HETATM   17  C   UNL     1      -8.179  11.662  67.863  1.00  0.00    -0.141 A  
HETATM   18  C   UNL     1      -6.830  11.105  69.507  1.00  0.00    -0.127 A  
HETATM   19  C   UNL     1      -7.645  10.562  68.498  1.00  0.00    -0.097 A  
BRANCH  19  20
HETATM   20  C   UNL     1      -7.952   9.199  68.154  1.00  0.00    -0.100 A  
HETATM   21  C   UNL     1      -8.015   8.777  66.825  1.00  0.00    -0.097 A  
HETATM   22  C   UNL     1      -7.926   9.354  65.527  1.00  0.00    -0.111 A  
HETATM   23  C   UNL     1      -8.057   8.336  64.606  1.00  0.00    -0.150 A  
HETATM   24  N   UNL     1      -8.245   7.168  65.297  1.00  0.00    -0.148 NA 
HETATM   25  H   UNL     1      -8.369   6.248  64.874  1.00  0.00     0.000 HD 
HETATM   26  C   UNL     1      -8.240   7.422  66.642  1.00  0.00    -0.125 A  
HETATM   27  N   UNL     1      -8.419   6.495  67.594  1.00  0.00    -0.117 NA 
HETATM   28  C   UNL     1      -8.367   7.030  68.826  1.00  0.00    -0.122 A  
HETATM   29  N   UNL     1      -8.152   8.315  69.161  1.00  0.00    -0.118 NA 
ENDBRANCH  19  20
ENDBRANCH   8  15
ENDBRANCH   3   6
ENDBRANCH   2   3
TORSDOF 6
ENDMDL
MODEL      240
REMARK 921   NORMALIZED FREE ENERGY PREDICTED BY IDOCK:   -3.37 KCAL/MOL
REMARK 922        TOTAL FREE ENERGY PREDICTED BY IDOCK:   -5.06 KCAL/MOL
REMARK 923 INTER-LIGAND FREE ENERGY PREDICTED BY IDOCK:   -4.27 KCAL/MOL
REMARK 924 INTRA-LIGAND FREE ENERGY PREDICTED BY IDOCK:   -0.79 KCAL/MOL
REMARK 927      BINDING AFFINITY PREDICTED BY RF-SCORE:    0.00 PKD
ROOT
HETATM    1  C   UNL     1      -9.011  15.198  67.616  1.00  0.00    -0.183 C  
HETATM    2  C   UNL     1      -8.777  14.099  68.631  1.00  0.00    -0.126 C  
ENDROOT
BRANCH   2   3
HETATM    3  S   UNL     1      -7.292  13.176  68.275  1.00  0.00    -0.128 S  
HETATM    4  O   UNL     1      -6.603  13.807  67.173  1.00  0.00    -0.180 OA 
HETATM    5  O   UNL     1      -6.627  12.866  69.522  1.00  0.00    -0.102 OA 
BRANCH   3   6
HETATM    6  N   UNL     1      -7.985  11.753  67.693  1.00  0.00    -0.134 N  
HETATM    7  C   UNL     1      -9.344  11.623  67.091  1.00  0.00    -0.174 C  
HETATM    8  C   UNL     1      -8.881  10.329  66.342  1.00  0.00    -0.145 C  
HETATM    9  C   UNL     1      -7.443  10.878  66.614  1.00  0.00    -0.139 C  
BRANCH   8  10
HETATM   10  C   UNL     1      -9.359  10.144  64.909  1.00  0.00    -0.310 C  
BRANCH  10  11
HETATM   11  C   UNL     1      -9.557  11.476  64.203  1.00  0.00    -0.157 C  
HETATM   12  H1  UNL     1      -9.853  13.474  63.144  1.00  0.00     0.000 HD 
HETATM   13  N   UNL     1      -9.721  12.581  63.618  1.00  0.00    -0.669 NA 
HETATM   14  H2  UNL     1      -9.868  13.390  64.223  1.00  0.00     0.000 HD 
ENDBRANCH  10  11
ENDBRANCH   8  10
BRANCH   8  15
HETATM   15  N   UNL     1      -9.231   9.168  67.149  1.00  0.00    -0.132 NA 
HETATM   16  N   UNL     1     -10.526   8.886  67.416  1.00  0.00    -0.277 NA 
HETATM   17  C   UNL     1      -8.371   8.287  67.749  1.00  0.00    -0.128 A  
HETATM   18  C   UNL     1     -10.468   7.810  68.202  1.00  0.00    -0.176 A  
HETATM   19  C   UNL     1      -9.149   7.393  68.453  1.00  0.00    -0.132 A  
BRANCH  19  20
HETATM   20  C   UNL     1      -8.629   6.287  69.212  1.00  0.00    -0.124 A  
HETATM   21  C   UNL     1      -8.773   4.969  68.774  1.00  0.00    -0.101 A  
HETATM   22  C   UNL     1      -9.411   4.272  67.708  1.00  0.00    -0.215 A  
HETATM   23  C   UNL     1      -9.128   2.931  67.856  1.00  0.00    -0.180 A  
HETATM   24  N   UNL     1      -8.364   2.786  68.985  1.00  0.00    -0.058 NA 
HETATM   25  H   UNL     1      -8.003   1.901  69.341  1.00  0.00     0.000 HD 
HETATM   26  C   UNL     1      -8.156   4.010  69.560  1.00  0.00    -0.055 A  
HETATM   27  N   UNL     1      -7.463   4.214  70.691  1.00  0.00    -0.044 NA 
HETATM   28  C   UNL     1      -7.423   5.516  71.022  1.00  0.00    -0.089 A  
HETATM   29  N   UNL     1      -7.964   6.555  70.360  1.00  0.00    -0.113 NA 
ENDBRANCH  19  20
ENDBRANCH   8  15
ENDBRANCH   3   6
ENDBRANCH   2   3
TORSDOF 6
ENDMDL
MODEL      241
REMARK 921   NORMALIZED FREE ENERGY PREDICTED BY IDOCK:   -3.34 KCAL/MOL
REMARK 922        TOTAL FREE ENERGY PREDICTED BY IDOCK:   -5.02 KCAL/MOL
REMARK 923 INTER-LIGAND FREE ENERGY PREDICTED BY IDOCK:   -4.62 KCAL/MOL
REMARK 924 INTRA-LIGAND FREE ENERGY PREDICTED BY IDOCK:   -0.40 KCAL/MOL
REMARK 927      BINDING AFFINITY PREDICTED BY RF-SCORE:    0.00 PKD
ROOT
HETATM    1  C   UNL     1      -8.715   3.424  70.680  1.00  0.00    -0.128 C  
HETATM    2  C   UNL     1      -9.201   4.035  69.383  1.00  0.00    -0.148 C  
ENDROOT
BRANCH   2   3
HETATM    3  S   UNL     1      -7.998   3.855  68.077  1.00  0.00    -0.080 S  
HETATM    4  O   UNL     1      -6.676   4.038  68.630  1.00  0.00    -0.044 OA 
HETATM    5  O   UNL     1      -8.346   2.699  67.280  1.00  0.00    -0.084 OA 
BRANCH   3   6
HETATM    6  N   UNL     1      -8.365   5.231  67.173  1.00  0.00    -0.108 N  
HETATM    7  C   UNL     1      -7.376   6.160  66.552  1.00  0.00    -0.081 C  
HETATM    8  C   UNL     1      -8.463   6.616  65.522  1.00  0.00    -0.131 C  
HETATM    9  C   UNL     1      -9.172   5.282  65.920  1.00  0.00    -0.159 C  
BRANCH   8  10
HETATM   10  C   UNL     1      -8.013   6.830  64.083  1.00  0.00    -0.085 C  
BRANCH  10  11
HETATM   11  C   UNL     1      -8.239   5.592  63.230  1.00  0.00    -0.090 C  
HETATM   12  H1  UNL     1      -8.577   3.734  61.951  1.00  0.00     0.000 HD 
HETATM   13  N   UNL     1      -8.425   4.565  62.523  1.00  0.00    -0.090 NA 
HETATM   14  H2  UNL     1      -7.586   4.060  62.237  1.00  0.00     0.000 HD 
ENDBRANCH  10  11
ENDBRANCH   8  10
BRANCH   8  15
HETATM   15  N   UNL     1      -9.123   7.811  66.030  1.00  0.00    -0.156 NA 
HETATM   16  N   UNL     1      -9.901   7.745  67.134  1.00  0.00    -0.185 NA 
HETATM   17  C   UNL     1      -9.097   9.067  65.484  1.00  0.00    -0.214 A  
HETATM   18  C   UNL     1     -10.372   8.985  67.273  1.00  0.00    -0.273 A  
HETATM   19  C   UNL     1      -9.912   9.854  66.268  1.00  0.00    -0.322 A  
BRANCH  19  20
HETATM   20  C   UNL     1     -10.141  11.258  66.047  1.00  0.00    -0.239 A  
HETATM   21  C   UNL     1     -10.989  11.709  65.034  1.00  0.00    -0.334 A  
HETATM   22  C   UNL     1     -11.749  11.153  63.965  1.00  0.00     0.455 A  
HETATM   23  C   UNL     1     -12.404  12.189  63.335  1.00  0.00    -0.538 A  
HETATM   24  N   UNL     1     -12.052  13.354  63.966  1.00  0.00    -0.520 NA 
HETATM   25  H   UNL     1     -12.388  14.284  63.714  1.00  0.00     0.000 HD 
HETATM   26  C   UNL     1     -11.180  13.079  64.985  1.00  0.00    -0.297 A  
HETATM   27  N   UNL     1     -10.629  14.003  65.787  1.00  0.00    -0.290 NA 
HETATM   28  C   UNL     1      -9.812  13.448  66.697  1.00  0.00    -0.278 A  
HETATM   29  N   UNL     1      -9.532  12.143  66.872  1.00  0.00    -0.204 NA 
ENDBRANCH  19  20
ENDBRANCH   8  15
ENDBRANCH   3   6
ENDBRANCH   2   3
TORSDOF 6
ENDMDL
MODEL      242
REMARK 921   NORMALIZED FREE ENERGY PREDICTED BY IDOCK:   -3.32 KCAL/MOL
REMARK 922        TOTAL FREE ENERGY PREDICTED BY IDOCK:   -5.00 KCAL/MOL
REMARK 923 INTER-LIGAND FREE ENERGY PREDICTED BY IDOCK:   -4.02 KCAL/MOL
REMARK 924 INTRA-LIGAND FREE ENERGY PREDICTED BY IDOCK:   -0.97 KCAL/MOL
REMARK 927      BINDING AFFINITY PREDICTED BY RF-SCORE:    0.00 PKD
ROOT
HETATM    1  C   UNL     1      -7.653   8.800  66.077  1.00  0.00    -0.093 C  
HETATM    2  C   UNL     1      -8.737   9.653  65.453  1.00  0.00    -0.158 C  
ENDROOT
BRANCH   2   3
HETATM    3  S   UNL     1      -9.293  10.933  66.566  1.00  0.00    -0.178 S  
HETATM    4  O   UNL     1      -8.143  11.660  67.053  1.00  0.00    -0.152 OA 
HETATM    5  O   UNL     1     -10.432  11.600  65.975  1.00  0.00    -0.236 OA 
BRANCH   3   6
HETATM    6  N   UNL     1      -9.859   9.972  67.831  1.00  0.00    -0.143 N  
HETATM    7  C   UNL     1      -9.445  10.073  69.261  1.00  0.00    -0.217 C  
HETATM    8  C   UNL     1     -10.787   9.393  69.691  1.00  0.00    -0.228 C  
HETATM    9  C   UNL     1     -11.276   9.826  68.271  1.00  0.00    -0.012 C  
BRANCH   8  10
HETATM   10  C   UNL     1     -11.483   9.944  70.928  1.00  0.00    -0.456 C  
BRANCH  10  11
HETATM   11  C   UNL     1     -11.863  11.406  70.759  1.00  0.00    -0.127 C  
HETATM   12  H1  UNL     1     -12.433  13.600  70.504  1.00  0.00     0.000 HD 
HETATM   13  N   UNL     1     -12.179  12.619  70.618  1.00  0.00    -0.451 NA 
HETATM   14  H2  UNL     1     -13.173  12.834  70.700  1.00  0.00     0.000 HD 
ENDBRANCH  10  11
ENDBRANCH   8  10
BRANCH   8  15
HETATM   15  N   UNL     1     -10.567   7.960  69.828  1.00  0.00    -0.240 NA 
HETATM   16  N   UNL     1     -11.579   7.089  69.619  1.00  0.00    -0.076 NA 
HETATM   17  C   UNL     1      -9.409   7.333  70.206  1.00  0.00    -0.158 A  
HETATM   18  C   UNL     1     -11.040   5.897  69.877  1.00  0.00    -0.347 A  
HETATM   19  C   UNL     1      -9.689   5.985  70.257  1.00  0.00    -0.201 A  
BRANCH  19  20
HETATM   20  C   UNL     1      -8.728   4.968  70.594  1.00  0.00    -0.122 A  
HETATM   21  C   UNL     1      -7.846   4.452  69.643  1.00  0.00    -0.057 A  
HETATM   22  C   UNL     1      -7.604   4.580  68.245  1.00  0.00    -0.072 A  
HETATM   23  C   UNL     1      -6.526   3.780  67.933  1.00  0.00    -0.038 A  
HETATM   24  N   UNL     1      -6.120   3.154  69.083  1.00  0.00    -0.024 NA 
HETATM   25  H   UNL     1      -5.339   2.502  69.153  1.00  0.00     0.000 HD 
HETATM   26  C   UNL     1      -6.923   3.538  70.123  1.00  0.00    -0.034 A  
HETATM   27  N   UNL     1      -6.804   3.092  71.383  1.00  0.00    -0.030 NA 
HETATM   28  C   UNL     1      -7.727   3.638  72.193  1.00  0.00    -0.059 A  
HETATM   29  N   UNL     1      -8.677   4.537  71.877  1.00  0.00    -0.116 NA 
ENDBRANCH  19  20
ENDBRANCH   8  15
ENDBRANCH   3   6
ENDBRANCH   2   3
TORSDOF 6
ENDMDL
MODEL      243
REMARK 921   NORMALIZED FREE ENERGY PREDICTED BY IDOCK:   -3.30 KCAL/MOL
REMARK 922        TOTAL FREE ENERGY PREDICTED BY IDOCK:   -4.96 KCAL/MOL
REMARK 923 INTER-LIGAND FREE ENERGY PREDICTED BY IDOCK:   -4.64 KCAL/MOL
REMARK 924 INTRA-LIGAND FREE ENERGY PREDICTED BY IDOCK:   -0.32 KCAL/MOL
REMARK 927      BINDING AFFINITY PREDICTED BY RF-SCORE:    0.00 PKD
ROOT
HETATM    1  C   UNL     1      -8.534  18.717  66.420  1.00  0.00    -0.296 C  
HETATM    2  C   UNL     1      -8.648  17.253  66.789  1.00  0.00    -0.249 C  
ENDROOT
BRANCH   2   3
HETATM    3  S   UNL     1      -8.686  17.018  68.557  1.00  0.00    -0.255 S  
HETATM    4  O   UNL     1      -7.562  17.709  69.145  1.00  0.00    -0.191 OA 
HETATM    5  O   UNL     1     -10.041  17.215  69.023  1.00  0.00    -0.295 OA 
BRANCH   3   6
HETATM    6  N   UNL     1      -8.356  15.365  68.622  1.00  0.00    -0.157 N  
HETATM    7  C   UNL     1      -7.545  14.595  67.634  1.00  0.00    -0.180 C  
HETATM    8  C   UNL     1      -7.257  13.511  68.726  1.00  0.00    -0.096 C  
HETATM    9  C   UNL     1      -7.664  14.640  69.727  1.00  0.00     0.137 C  
BRANCH   8  10
HETATM   10  C   UNL     1      -5.851  12.929  68.777  1.00  0.00    -0.069 C  
BRANCH  10  11
HETATM   11  C   UNL     1      -5.543  12.316  70.134  1.00  0.00    -0.141 C  
HETATM   12  H1  UNL     1      -5.080  11.397  72.169  1.00  0.00     0.000 HD 
HETATM   13  N   UNL     1      -5.286  11.808  71.259  1.00  0.00    -0.329 NA 
HETATM   14  H2  UNL     1      -4.444  12.150  71.723  1.00  0.00     0.000 HD 
ENDBRANCH  10  11
ENDBRANCH   8  10
BRANCH   8  15
HETATM   15  N   UNL     1      -8.243  12.446  68.605  1.00  0.00    -0.063 NA 
HETATM   16  N   UNL     1      -9.131  12.448  67.585  1.00  0.00    -0.178 NA 
HETATM   17  C   UNL     1      -8.436  11.395  69.461  1.00  0.00     0.684 A  
HETATM   18  C   UNL     1      -9.893  11.378  67.816  1.00  0.00    -0.175 A  
HETATM   19  C   UNL     1      -9.513  10.684  68.979  1.00  0.00    -0.202 A  
BRANCH  19  20
HETATM   20  C   UNL     1     -10.031   9.485  69.582  1.00  0.00    -0.205 A  
HETATM   21  C   UNL     1     -11.201   9.497  70.343  1.00  0.00    -0.323 A  
HETATM   22  C   UNL     1     -12.135  10.454  70.834  1.00  0.00    -0.477 A  
HETATM   23  C   UNL     1     -13.111   9.770  71.526  1.00  0.00    -0.411 A  
HETATM   24  N   UNL     1     -12.792   8.437  71.494  1.00  0.00    -0.358 NA 
HETATM   25  H   UNL     1     -13.339   7.691  71.924  1.00  0.00     0.000 HD 
HETATM   26  C   UNL     1     -11.628   8.259  70.797  1.00  0.00    -0.236 A  
HETATM   27  N   UNL     1     -11.031   7.074  70.598  1.00  0.00    -0.250 NA 
HETATM   28  C   UNL     1      -9.902   7.200  69.881  1.00  0.00    -0.174 A  
HETATM   29  N   UNL     1      -9.367   8.324  69.369  1.00  0.00    -0.155 NA 
ENDBRANCH  19  20
ENDBRANCH   8  15
ENDBRANCH   3   6
ENDBRANCH   2   3
TORSDOF 6
ENDMDL
MODEL      244
REMARK 921   NORMALIZED FREE ENERGY PREDICTED BY IDOCK:   -3.28 KCAL/MOL
REMARK 922        TOTAL FREE ENERGY PREDICTED BY IDOCK:   -4.94 KCAL/MOL
REMARK 923 INTER-LIGAND FREE ENERGY PREDICTED BY IDOCK:   -5.80 KCAL/MOL
REMARK 924 INTRA-LIGAND FREE ENERGY PREDICTED BY IDOCK:    0.87 KCAL/MOL
REMARK 927      BINDING AFFINITY PREDICTED BY RF-SCORE:    0.00 PKD
ROOT
HETATM    1  C   UNL     1      -9.411  19.184  68.773  1.00  0.00    -0.423 C  
HETATM    2  C   UNL     1      -8.718  19.887  67.625  1.00  0.00    -0.334 C  
ENDROOT
BRANCH   2   3
HETATM    3  S   UNL     1      -7.865  18.735  66.562  1.00  0.00    -0.277 S  
HETATM    4  O   UNL     1      -7.891  19.239  65.209  1.00  0.00    -0.209 OA 
HETATM    5  O   UNL     1      -6.637  18.328  67.209  1.00  0.00    -0.183 OA 
BRANCH   3   6
HETATM    6  N   UNL     1      -8.942  17.439  66.641  1.00  0.00    -0.243 N  
HETATM    7  C   UNL     1      -9.088  16.490  67.784  1.00  0.00    -0.204 C  
HETATM    8  C   UNL     1     -10.545  16.162  67.316  1.00  0.00    -0.305 C  
HETATM    9  C   UNL     1     -10.427  17.510  66.534  1.00  0.00    -0.270 C  
BRANCH   8  10
HETATM   10  C   UNL     1     -11.607  16.007  68.396  1.00  0.00    -0.279 C  
BRANCH  10  11
HETATM   11  C   UNL     1     -11.141  15.092  69.517  1.00  0.00    -0.277 C  
HETATM   12  H1  UNL     1     -10.443  13.719  71.200  1.00  0.00     0.000 HD 
HETATM   13  N   UNL     1     -10.756  14.333  70.448  1.00  0.00    -0.201 NA 
HETATM   14  H2  UNL     1     -10.906  14.677  71.397  1.00  0.00     0.000 HD 
ENDBRANCH  10  11
ENDBRANCH   8  10
BRANCH   8  15
HETATM   15  N   UNL     1     -10.511  14.981  66.464  1.00  0.00    -0.278 NA 
HETATM   16  N   UNL     1     -11.221  14.947  65.313  1.00  0.00    -0.354 NA 
HETATM   17  C   UNL     1      -9.850  13.806  66.704  1.00  0.00    -0.284 A  
HETATM   18  C   UNL     1     -10.998  13.723  64.831  1.00  0.00    -0.375 A  
HETATM   19  C   UNL     1     -10.157  12.960  65.660  1.00  0.00    -0.282 A  
BRANCH  19  20
HETATM   20  C   UNL     1      -9.643  11.623  65.520  1.00  0.00    -0.218 A  
HETATM   21  C   UNL     1      -8.545  11.181  66.261  1.00  0.00    -0.180 A  
HETATM   22  C   UNL     1      -7.606  11.722  67.186  1.00  0.00    -0.155 A  
HETATM   23  C   UNL     1      -6.763  10.701  67.571  1.00  0.00    -0.070 A  
HETATM   24  N   UNL     1      -7.140   9.569  66.896  1.00  0.00    -0.085 NA 
HETATM   25  H   UNL     1      -6.694   8.656  66.985  1.00  0.00     0.000 HD 
HETATM   26  C   UNL     1      -8.207   9.850  66.086  1.00  0.00    -0.118 A  
HETATM   27  N   UNL     1      -8.804   8.962  65.277  1.00  0.00    -0.197 NA 
HETATM   28  C   UNL     1      -9.823   9.516  64.597  1.00  0.00     0.338 A  
HETATM   29  N   UNL     1     -10.271  10.783  64.665  1.00  0.00    -0.340 NA 
ENDBRANCH  19  20
ENDBRANCH   8  15
ENDBRANCH   3   6
ENDBRANCH   2   3
TORSDOF 6
ENDMDL
MODEL      245
REMARK 921   NORMALIZED FREE ENERGY PREDICTED BY IDOCK:   -3.21 KCAL/MOL
REMARK 922        TOTAL FREE ENERGY PREDICTED BY IDOCK:   -4.84 KCAL/MOL
REMARK 923 INTER-LIGAND FREE ENERGY PREDICTED BY IDOCK:   -4.11 KCAL/MOL
REMARK 924 INTRA-LIGAND FREE ENERGY PREDICTED BY IDOCK:   -0.74 KCAL/MOL
REMARK 927      BINDING AFFINITY PREDICTED BY RF-SCORE:    0.00 PKD
ROOT
HETATM    1  C   UNL     1     -12.837  12.262  72.013  1.00  0.00    -0.260 C  
HETATM    2  C   UNL     1     -13.197  10.801  72.185  1.00  0.00    -0.255 C  
ENDROOT
BRANCH   2   3
HETATM    3  S   UNL     1     -13.147   9.921  70.634  1.00  0.00     0.013 S  
HETATM    4  O   UNL     1     -14.391   9.208  70.461  1.00  0.00     0.342 OA 
HETATM    5  O   UNL     1     -12.616  10.802  69.616  1.00  0.00    -0.246 OA 
BRANCH   3   6
HETATM    6  N   UNL     1     -11.957   8.783  71.001  1.00  0.00    -0.280 N  
HETATM    7  C   UNL     1     -10.659   9.062  71.681  1.00  0.00    -0.364 C  
HETATM    8  C   UNL     1     -10.584   7.567  72.137  1.00  0.00    -0.221 C  
HETATM    9  C   UNL     1     -12.121   7.569  71.851  1.00  0.00    -0.305 C  
BRANCH   8  10
HETATM   10  C   UNL     1     -10.080   7.292  73.547  1.00  0.00    -0.387 C  
BRANCH  10  11
HETATM   11  C   UNL     1      -8.746   7.972  73.812  1.00  0.00    -0.265 C  
HETATM   12  H1  UNL     1      -6.745   8.991  74.211  1.00  0.00     0.000 HD 
HETATM   13  N   UNL     1      -7.640   8.535  74.033  1.00  0.00    -0.386 NA 
HETATM   14  H2  UNL     1      -7.125   8.206  74.851  1.00  0.00     0.000 HD 
ENDBRANCH  10  11
ENDBRANCH   8  10
BRANCH   8  15
HETATM   15  N   UNL     1      -9.803   6.816  71.164  1.00  0.00    -0.178 NA 
HETATM   16  N   UNL     1      -9.698   5.472  71.262  1.00  0.00    -0.161 NA 
HETATM   17  C   UNL     1      -9.078   7.320  70.117  1.00  0.00    -0.148 A  
HETATM   18  C   UNL     1      -8.887   5.136  70.258  1.00  0.00    -0.120 A  
HETATM   19  C   UNL     1      -8.459   6.248  69.512  1.00  0.00    -0.129 A  
BRANCH  19  20
HETATM   20  C   UNL     1      -7.615   6.347  68.351  1.00  0.00    -0.100 A  
HETATM   21  C   UNL     1      -8.018   7.047  67.212  1.00  0.00    -0.111 A  
HETATM   22  C   UNL     1      -9.177   7.731  66.746  1.00  0.00    -0.202 A  
HETATM   23  C   UNL     1      -8.890   8.237  65.496  1.00  0.00    -0.110 A  
HETATM   24  N   UNL     1      -7.609   7.866  65.178  1.00  0.00    -0.086 NA 
HETATM   25  H   UNL     1      -7.127   8.103  64.310  1.00  0.00     0.000 HD 
HETATM   26  C   UNL     1      -7.076   7.129  66.200  1.00  0.00    -0.073 A  
HETATM   27  N   UNL     1      -5.845   6.597  66.196  1.00  0.00    -0.025 NA 
HETATM   28  C   UNL     1      -5.589   5.924  67.330  1.00  0.00    -0.012 A  
HETATM   29  N   UNL     1      -6.394   5.763  68.396  1.00  0.00    -0.039 NA 
ENDBRANCH  19  20
ENDBRANCH   8  15
ENDBRANCH   3   6
ENDBRANCH   2   3
TORSDOF 6
ENDMDL
MODEL      246
REMARK 921   NORMALIZED FREE ENERGY PREDICTED BY IDOCK:   -3.20 KCAL/MOL
REMARK 922        TOTAL FREE ENERGY PREDICTED BY IDOCK:   -4.84 KCAL/MOL
REMARK 923 INTER-LIGAND FREE ENERGY PREDICTED BY IDOCK:   -4.20 KCAL/MOL
REMARK 924 INTRA-LIGAND FREE ENERGY PREDICTED BY IDOCK:   -0.64 KCAL/MOL
REMARK 927      BINDING AFFINITY PREDICTED BY RF-SCORE:    0.00 PKD
ROOT
HETATM    1  C   UNL     1      -7.195   6.853  73.240  1.00  0.00    -0.074 C  
HETATM    2  C   UNL     1      -6.948   7.256  71.801  1.00  0.00    -0.059 C  
ENDROOT
BRANCH   2   3
HETATM    3  S   UNL     1      -8.469   7.658  70.958  1.00  0.00    -0.117 S  
HETATM    4  O   UNL     1      -8.983   6.465  70.328  1.00  0.00    -0.152 OA 
HETATM    5  O   UNL     1      -9.280   8.480  71.829  1.00  0.00    -0.198 OA 
BRANCH   3   6
HETATM    6  N   UNL     1      -7.854   8.650  69.740  1.00  0.00    -0.091 N  
HETATM    7  C   UNL     1      -7.826  10.142  69.756  1.00  0.00    -0.166 C  
HETATM    8  C   UNL     1      -6.642  10.124  68.732  1.00  0.00    -0.052 C  
HETATM    9  C   UNL     1      -6.459   8.648  69.213  1.00  0.00    -0.042 C  
BRANCH   8  10
HETATM   10  C   UNL     1      -5.521  11.132  68.945  1.00  0.00    -0.040 C  
BRANCH  10  11
HETATM   11  C   UNL     1      -5.939  12.251  69.885  1.00  0.00    -0.148 C  
HETATM   12  H1  UNL     1      -6.565  13.931  71.295  1.00  0.00     0.000 HD 
HETATM   13  N   UNL     1      -6.285  13.180  70.664  1.00  0.00    -0.472 NA 
HETATM   14  H2  UNL     1      -6.046  14.127  70.365  1.00  0.00     0.000 HD 
ENDBRANCH  10  11
ENDBRANCH   8  10
BRANCH   8  15
HETATM   15  N   UNL     1      -7.183  10.243  67.385  1.00  0.00    -0.091 NA 
HETATM   16  N   UNL     1      -6.475   9.798  66.322  1.00  0.00    -0.070 NA 
HETATM   17  C   UNL     1      -8.369  10.821  67.017  1.00  0.00    -0.129 A  
HETATM   18  C   UNL     1      -7.237  10.110  65.272  1.00  0.00    -0.141 A  
HETATM   19  C   UNL     1      -8.428  10.759  65.642  1.00  0.00    -0.163 A  
BRANCH  19  20
HETATM   20  C   UNL     1      -9.532  11.241  64.854  1.00  0.00    -0.196 A  
HETATM   21  C   UNL     1     -10.074  12.511  65.056  1.00  0.00    -0.258 A  
HETATM   22  C   UNL     1      -9.904  13.603  65.955  1.00  0.00    -0.290 A  
HETATM   23  C   UNL     1     -10.772  14.602  65.570  1.00  0.00    -0.349 A  
HETATM   24  N   UNL     1     -11.478  14.148  64.486  1.00  0.00    -0.481 NA 
HETATM   25  H   UNL     1     -12.193  14.678  63.986  1.00  0.00     0.000 HD 
HETATM   26  C   UNL     1     -11.078  12.877  64.175  1.00  0.00    -0.399 A  
HETATM   27  N   UNL     1     -11.587  12.139  63.177  1.00  0.00    -0.284 NA 
HETATM   28  C   UNL     1     -11.006  10.929  63.106  1.00  0.00     0.544 A  
HETATM   29  N   UNL     1     -10.022  10.437  63.880  1.00  0.00    -0.279 NA 
ENDBRANCH  19  20
ENDBRANCH   8  15
ENDBRANCH   3   6
ENDBRANCH   2   3
TORSDOF 6
ENDMDL
MODEL      247
REMARK 921   NORMALIZED FREE ENERGY PREDICTED BY IDOCK:   -3.16 KCAL/MOL
REMARK 922        TOTAL FREE ENERGY PREDICTED BY IDOCK:   -4.78 KCAL/MOL
REMARK 923 INTER-LIGAND FREE ENERGY PREDICTED BY IDOCK:   -3.90 KCAL/MOL
REMARK 924 INTRA-LIGAND FREE ENERGY PREDICTED BY IDOCK:   -0.88 KCAL/MOL
REMARK 927      BINDING AFFINITY PREDICTED BY RF-SCORE:    0.00 PKD
ROOT
HETATM    1  C   UNL     1     -10.113  10.092  66.299  1.00  0.00    -0.303 C  
HETATM    2  C   UNL     1      -8.700  10.242  66.820  1.00  0.00    -0.126 C  
ENDROOT
BRANCH   2   3
HETATM    3  S   UNL     1      -7.518   9.409  65.774  1.00  0.00    -0.100 S  
HETATM    4  O   UNL     1      -8.130   9.154  64.490  1.00  0.00    -0.123 OA 
HETATM    5  O   UNL     1      -6.238  10.070  65.899  1.00  0.00    -0.073 OA 
BRANCH   3   6
HETATM    6  N   UNL     1      -7.418   7.936  66.590  1.00  0.00    -0.088 N  
HETATM    7  C   UNL     1      -8.410   6.824  66.514  1.00  0.00    -0.121 C  
HETATM    8  C   UNL     1      -7.298   5.812  66.951  1.00  0.00    -0.079 C  
HETATM    9  C   UNL     1      -6.316   6.937  66.487  1.00  0.00    -0.049 C  
BRANCH   8  10
HETATM   10  C   UNL     1      -7.275   4.458  66.256  1.00  0.00    -0.076 C  
BRANCH  10  11
HETATM   11  C   UNL     1      -8.553   3.673  66.507  1.00  0.00    -0.115 C  
HETATM   12  H1  UNL     1     -10.470   2.496  66.885  1.00  0.00     0.000 HD 
HETATM   13  N   UNL     1      -9.613   3.022  66.716  1.00  0.00    -0.409 NA 
HETATM   14  H2  UNL     1     -10.447   3.577  66.912  1.00  0.00     0.000 HD 
ENDBRANCH  10  11
ENDBRANCH   8  10
BRANCH   8  15
HETATM   15  N   UNL     1      -7.359   5.640  68.396  1.00  0.00    -0.075 NA 
HETATM   16  N   UNL     1      -6.282   5.189  69.077  1.00  0.00    -0.029 NA 
HETATM   17  C   UNL     1      -8.441   5.846  69.209  1.00  0.00    -0.113 A  
HETATM   18  C   UNL     1      -6.706   5.109  70.339  1.00  0.00    -0.040 A  
HETATM   19  C   UNL     1      -8.050   5.498  70.484  1.00  0.00    -0.104 A  
BRANCH  19  20
HETATM   20  C   UNL     1      -8.893   5.589  71.646  1.00  0.00    -0.136 A  
HETATM   21  C   UNL     1      -8.669   6.546  72.637  1.00  0.00    -0.125 A  
HETATM   22  C   UNL     1      -7.707   7.552  72.939  1.00  0.00    -0.111 A  
HETATM   23  C   UNL     1      -8.107   8.179  74.099  1.00  0.00    -0.253 A  
HETATM   24  N   UNL     1      -9.262   7.576  74.525  1.00  0.00    -0.405 NA 
HETATM   25  H   UNL     1      -9.787   7.835  75.361  1.00  0.00     0.000 HD 
HETATM   26  C   UNL     1      -9.604   6.573  73.659  1.00  0.00    -0.175 A  
HETATM   27  N   UNL     1     -10.673   5.775  73.800  1.00  0.00    -0.261 NA 
HETATM   28  C   UNL     1     -10.760   4.879  72.802  1.00  0.00    -0.228 A  
HETATM   29  N   UNL     1      -9.939   4.735  71.746  1.00  0.00    -0.183 NA 
ENDBRANCH  19  20
ENDBRANCH   8  15
ENDBRANCH   3   6
ENDBRANCH   2   3
TORSDOF 6
ENDMDL
MODEL      248
REMARK 921   NORMALIZED FREE ENERGY PREDICTED BY IDOCK:   -3.11 KCAL/MOL
REMARK 922        TOTAL FREE ENERGY PREDICTED BY IDOCK:   -4.71 KCAL/MOL
REMARK 923 INTER-LIGAND FREE ENERGY PREDICTED BY IDOCK:   -4.21 KCAL/MOL
REMARK 924 INTRA-LIGAND FREE ENERGY PREDICTED BY IDOCK:   -0.51 KCAL/MOL
REMARK 927      BINDING AFFINITY PREDICTED BY RF-SCORE:    0.00 PKD
ROOT
HETATM    1  C   UNL     1      -9.245   3.613  70.803  1.00  0.00    -0.201 C  
HETATM    2  C   UNL     1      -9.675   4.044  69.416  1.00  0.00    -0.135 C  
ENDROOT
BRANCH   2   3
HETATM    3  S   UNL     1      -8.358   3.854  68.227  1.00  0.00    -0.092 S  
HETATM    4  O   UNL     1      -7.091   3.938  68.916  1.00  0.00    -0.049 OA 
HETATM    5  O   UNL     1      -8.683   2.755  67.345  1.00  0.00    -0.100 OA 
BRANCH   3   6
HETATM    6  N   UNL     1      -8.561   5.287  67.361  1.00  0.00    -0.106 N  
HETATM    7  C   UNL     1      -7.467   6.168  66.857  1.00  0.00    -0.087 C  
HETATM    8  C   UNL     1      -8.437   6.739  65.770  1.00  0.00    -0.147 C  
HETATM    9  C   UNL     1      -9.264   5.443  66.055  1.00  0.00    -0.158 C  
BRANCH   8  10
HETATM   10  C   UNL     1      -7.864   6.977  64.379  1.00  0.00    -0.111 C  
BRANCH  10  11
HETATM   11  C   UNL     1      -8.148   5.812  63.445  1.00  0.00    -0.104 C  
HETATM   12  H1  UNL     1      -8.574   4.064  62.042  1.00  0.00     0.000 HD 
HETATM   13  N   UNL     1      -8.383   4.845  62.669  1.00  0.00    -0.098 NA 
HETATM   14  H2  UNL     1      -7.579   4.272  62.413  1.00  0.00     0.000 HD 
ENDBRANCH  10  11
ENDBRANCH   8  10
BRANCH   8  15
HETATM   15  N   UNL     1      -9.053   7.956  66.280  1.00  0.00    -0.177 NA 
HETATM   16  N   UNL     1     -10.143   7.889  67.078  1.00  0.00    -0.248 NA 
HETATM   17  C   UNL     1      -8.682   9.247  66.012  1.00  0.00    -0.153 A  
HETATM   18  C   UNL     1     -10.457   9.165  67.306  1.00  0.00    -0.265 A  
HETATM   19  C   UNL     1      -9.586  10.060  66.660  1.00  0.00    -0.234 A  
BRANCH  19  20
HETATM   20  C   UNL     1      -9.537  11.498  66.650  1.00  0.00    -0.197 A  
HETATM   21  C   UNL     1      -8.578  12.202  67.380  1.00  0.00    -0.175 A  
HETATM   22  C   UNL     1      -7.535  11.916  68.307  1.00  0.00    -0.104 A  
HETATM   23  C   UNL     1      -6.932  13.110  68.640  1.00  0.00    -0.102 A  
HETATM   24  N   UNL     1      -7.586  14.111  67.969  1.00  0.00    -0.125 NA 
HETATM   25  H   UNL     1      -7.354  15.103  68.022  1.00  0.00     0.000 HD 
HETATM   26  C   UNL     1      -8.596  13.577  67.216  1.00  0.00    -0.213 A  
HETATM   27  N   UNL     1      -9.439  14.290  66.455  1.00  0.00    -0.286 NA 
HETATM   28  C   UNL     1     -10.332  13.504  65.829  1.00  0.00    -0.292 A  
HETATM   29  N   UNL     1     -10.435  12.163  65.884  1.00  0.00    -0.246 NA 
ENDBRANCH  19  20
ENDBRANCH   8  15
ENDBRANCH   3   6
ENDBRANCH   2   3
TORSDOF 6
ENDMDL
MODEL      249
REMARK 921   NORMALIZED FREE ENERGY PREDICTED BY IDOCK:   -3.11 KCAL/MOL
REMARK 922        TOTAL FREE ENERGY PREDICTED BY IDOCK:   -4.71 KCAL/MOL
REMARK 923 INTER-LIGAND FREE ENERGY PREDICTED BY IDOCK:   -3.87 KCAL/MOL
REMARK 924 INTRA-LIGAND FREE ENERGY PREDICTED BY IDOCK:   -0.84 KCAL/MOL
REMARK 927      BINDING AFFINITY PREDICTED BY RF-SCORE:    0.00 PKD
ROOT
HETATM    1  C   UNL     1      -7.167  17.613  67.811  1.00  0.00    -0.196 C  
HETATM    2  C   UNL     1      -7.442  16.765  66.588  1.00  0.00    -0.273 C  
ENDROOT
BRANCH   2   3
HETATM    3  S   UNL     1      -8.900  15.757  66.797  1.00  0.00    -0.294 S  
HETATM    4  O   UNL     1      -9.525  16.094  68.055  1.00  0.00    -0.209 OA 
HETATM    5  O   UNL     1      -9.636  15.740  65.552  1.00  0.00    -0.331 OA 
BRANCH   3   6
HETATM    6  N   UNL     1      -8.168  14.249  66.982  1.00  0.00    -0.148 N  
HETATM    7  C   UNL     1      -6.834  13.993  67.600  1.00  0.00    -0.179 C  
HETATM    8  C   UNL     1      -7.269  12.523  67.914  1.00  0.00    -0.115 C  
HETATM    9  C   UNL     1      -8.718  13.080  67.729  1.00  0.00    -0.188 C  
BRANCH   8  10
HETATM   10  C   UNL     1      -6.851  11.943  69.258  1.00  0.00    -0.080 C  
BRANCH  10  11
HETATM   11  C   UNL     1      -7.603  10.661  69.579  1.00  0.00    -0.124 C  
HETATM   12  H1  UNL     1      -8.732   8.738  70.060  1.00  0.00     0.000 HD 
HETATM   13  N   UNL     1      -8.227   9.598  69.845  1.00  0.00    -0.156 NA 
HETATM   14  H2  UNL     1      -8.973   9.343  69.196  1.00  0.00     0.000 HD 
ENDBRANCH  10  11
ENDBRANCH   8  10
BRANCH   8  15
HETATM   15  N   UNL     1      -6.826  11.658  66.828  1.00  0.00    -0.121 NA 
HETATM   16  N   UNL     1      -5.540  11.686  66.413  1.00  0.00    -0.266 NA 
HETATM   17  C   UNL     1      -7.593  10.794  66.092  1.00  0.00    -0.139 A  
HETATM   18  C   UNL     1      -5.509  10.824  65.396  1.00  0.00    -0.133 A  
HETATM   19  C   UNL     1      -6.763  10.242  65.142  1.00  0.00    -0.120 A  
BRANCH  19  20
HETATM   20  C   UNL     1      -7.176   9.260  64.174  1.00  0.00    -0.098 A  
HETATM   21  C   UNL     1      -6.698   7.949  64.214  1.00  0.00    -0.060 A  
HETATM   22  C   UNL     1      -5.758   7.188  64.965  1.00  0.00    -0.033 A  
HETATM   23  C   UNL     1      -5.789   5.895  64.488  1.00  0.00    -0.025 A  
HETATM   24  N   UNL     1      -6.696   5.849  63.461  1.00  0.00    -0.036 NA 
HETATM   25  H   UNL     1      -6.929   5.016  62.920  1.00  0.00     0.000 HD 
HETATM   26  C   UNL     1      -7.240   7.090  63.272  1.00  0.00    -0.074 A  
HETATM   27  N   UNL     1      -8.148   7.389  62.330  1.00  0.00    -0.137 NA 
HETATM   28  C   UNL     1      -8.504   8.684  62.376  1.00  0.00    -0.194 A  
HETATM   29  N   UNL     1      -8.073   9.631  63.230  1.00  0.00    -0.139 NA 
ENDBRANCH  19  20
ENDBRANCH   8  15
ENDBRANCH   3   6
ENDBRANCH   2   3
TORSDOF 6
ENDMDL
MODEL      250
REMARK 921   NORMALIZED FREE ENERGY PREDICTED BY IDOCK:   -3.10 KCAL/MOL
REMARK 922        TOTAL FREE ENERGY PREDICTED BY IDOCK:   -4.70 KCAL/MOL
REMARK 923 INTER-LIGAND FREE ENERGY PREDICTED BY IDOCK:   -3.86 KCAL/MOL
REMARK 924 INTRA-LIGAND FREE ENERGY PREDICTED BY IDOCK:   -0.84 KCAL/MOL
REMARK 927      BINDING AFFINITY PREDICTED BY RF-SCORE:    0.00 PKD
ROOT
HETATM    1  C   UNL     1      -8.134  17.876  67.963  1.00  0.00    -0.252 C  
HETATM    2  C   UNL     1      -8.243  16.999  66.734  1.00  0.00    -0.238 C  
ENDROOT
BRANCH   2   3
HETATM    3  S   UNL     1      -9.512  15.758  66.918  1.00  0.00    -0.239 S  
HETATM    4  O   UNL     1     -10.407  16.158  67.979  1.00  0.00    -0.255 OA 
HETATM    5  O   UNL     1      -9.992  15.385  65.605  1.00  0.00    -0.327 OA 
BRANCH   3   6
HETATM    6  N   UNL     1      -8.571  14.485  67.501  1.00  0.00    -0.177 N  
HETATM    7  C   UNL     1      -7.110  14.297  67.263  1.00  0.00     0.072 C  
HETATM    8  C   UNL     1      -7.021  13.416  68.554  1.00  0.00    -0.102 C  
HETATM    9  C   UNL     1      -8.368  14.114  68.931  1.00  0.00    -0.003 C  
BRANCH   8  10
HETATM   10  C   UNL     1      -5.800  13.604  69.444  1.00  0.00    -0.093 C  
BRANCH  10  11
HETATM   11  C   UNL     1      -5.693  12.511  70.495  1.00  0.00    -0.170 C  
HETATM   12  H1  UNL     1      -5.534  10.871  72.072  1.00  0.00     0.000 HD 
HETATM   13  N   UNL     1      -5.605  11.604  71.367  1.00  0.00    -0.369 NA 
HETATM   14  H2  UNL     1      -4.887  11.738  72.080  1.00  0.00     0.000 HD 
ENDBRANCH  10  11
ENDBRANCH   8  10
BRANCH   8  15
HETATM   15  N   UNL     1      -7.166  12.016  68.180  1.00  0.00    -0.083 NA 
HETATM   16  N   UNL     1      -6.301  11.446  67.312  1.00  0.00    -0.085 NA 
HETATM   17  C   UNL     1      -8.149  11.149  68.581  1.00  0.00    -0.150 A  
HETATM   18  C   UNL     1      -6.758  10.202  67.167  1.00  0.00    -0.074 A  
HETATM   19  C   UNL     1      -7.915   9.959  67.928  1.00  0.00    -0.104 A  
BRANCH  19  20
HETATM   20  C   UNL     1      -8.715   8.773  68.090  1.00  0.00    -0.134 A  
HETATM   21  C   UNL     1      -8.298   7.717  68.902  1.00  0.00    -0.128 A  
HETATM   22  C   UNL     1      -7.153   7.362  69.672  1.00  0.00    -0.072 A  
HETATM   23  C   UNL     1      -7.412   6.148  70.271  1.00  0.00    -0.090 A  
HETATM   24  N   UNL     1      -8.660   5.742  69.875  1.00  0.00    -0.126 NA 
HETATM   25  H   UNL     1      -9.117   4.877  70.165  1.00  0.00     0.000 HD 
HETATM   26  C   UNL     1      -9.201   6.675  69.031  1.00  0.00    -0.131 A  
HETATM   27  N   UNL     1     -10.405   6.570  68.450  1.00  0.00    -0.172 NA 
HETATM   28  C   UNL     1     -10.676   7.631  67.672  1.00  0.00    -0.175 A  
HETATM   29  N   UNL     1      -9.909   8.715  67.454  1.00  0.00    -0.178 NA 
ENDBRANCH  19  20
ENDBRANCH   8  15
ENDBRANCH   3   6
ENDBRANCH   2   3
TORSDOF 6
ENDMDL
MODEL      251
REMARK 921   NORMALIZED FREE ENERGY PREDICTED BY IDOCK:   -3.10 KCAL/MOL
REMARK 922        TOTAL FREE ENERGY PREDICTED BY IDOCK:   -4.70 KCAL/MOL
REMARK 923 INTER-LIGAND FREE ENERGY PREDICTED BY IDOCK:   -5.04 KCAL/MOL
REMARK 924 INTRA-LIGAND FREE ENERGY PREDICTED BY IDOCK:    0.34 KCAL/MOL
REMARK 927      BINDING AFFINITY PREDICTED BY RF-SCORE:    0.00 PKD
ROOT
HETATM    1  C   UNL     1     -10.108  20.415  68.708  1.00  0.00    -0.092 C  
HETATM    2  C   UNL     1      -9.288  20.796  67.493  1.00  0.00    -0.236 C  
ENDROOT
BRANCH   2   3
HETATM    3  S   UNL     1      -9.814  19.909  66.037  1.00  0.00    -0.355 S  
HETATM    4  O   UNL     1     -11.205  20.207  65.786  1.00  0.00     0.055 OA 
HETATM    5  O   UNL     1      -8.799  20.050  65.015  1.00  0.00     0.387 OA 
BRANCH   3   6
HETATM    6  N   UNL     1      -9.731  18.332  66.630  1.00  0.00    -0.323 N  
HETATM    7  C   UNL     1      -8.542  17.433  66.565  1.00  0.00    -0.261 C  
HETATM    8  C   UNL     1      -9.099  16.620  67.781  1.00  0.00    -0.212 C  
HETATM    9  C   UNL     1      -9.958  17.900  68.039  1.00  0.00    -0.333 C  
BRANCH   8  10
HETATM   10  C   UNL     1      -8.096  16.161  68.830  1.00  0.00    -0.228 C  
BRANCH  10  11
HETATM   11  C   UNL     1      -6.880  17.071  68.886  1.00  0.00    -0.211 C  
HETATM   12  H1  UNL     1      -5.055  18.437  68.970  1.00  0.00     0.000 HD 
HETATM   13  N   UNL     1      -5.871  17.827  68.933  1.00  0.00    -0.182 NA 
HETATM   14  H2  UNL     1      -5.419  17.913  69.844  1.00  0.00     0.000 HD 
ENDBRANCH  10  11
ENDBRANCH   8  10
BRANCH   8  15
HETATM   15  N   UNL     1      -9.864  15.487  67.279  1.00  0.00    -0.223 NA 
HETATM   16  N   UNL     1     -10.747  14.849  68.080  1.00  0.00    -0.246 NA 
HETATM   17  C   UNL     1      -9.776  14.913  66.039  1.00  0.00    -0.328 A  
HETATM   18  C   UNL     1     -11.213  13.856  67.322  1.00  0.00    -0.312 A  
HETATM   19  C   UNL     1     -10.638  13.838  66.039  1.00  0.00    -0.290 A  
BRANCH  19  20
HETATM   20  C   UNL     1     -10.861  12.975  64.909  1.00  0.00    -0.323 A  
HETATM   21  C   UNL     1     -10.137  11.794  64.739  1.00  0.00    -0.302 A  
HETATM   22  C   UNL     1      -9.061  11.111  65.374  1.00  0.00    -0.193 A  
HETATM   23  C   UNL     1      -8.844   9.937  64.685  1.00  0.00    -0.204 A  
HETATM   24  N   UNL     1      -9.733   9.894  63.642  1.00  0.00    -0.492 NA 
HETATM   25  H   UNL     1      -9.804   9.137  62.962  1.00  0.00     0.000 HD 
HETATM   26  C   UNL     1     -10.509  11.020  63.651  1.00  0.00    -0.322 A  
HETATM   27  N   UNL     1     -11.465  11.296  62.751  1.00  0.00     0.649 NA 
HETATM   28  C   UNL     1     -12.065  12.471  63.006  1.00  0.00    -0.026 A  
HETATM   29  N   UNL     1     -11.820  13.323  64.019  1.00  0.00    -0.433 NA 
ENDBRANCH  19  20
ENDBRANCH   8  15
ENDBRANCH   3   6
ENDBRANCH   2   3
TORSDOF 6
ENDMDL
MODEL      252
REMARK 921   NORMALIZED FREE ENERGY PREDICTED BY IDOCK:   -3.07 KCAL/MOL
REMARK 922        TOTAL FREE ENERGY PREDICTED BY IDOCK:   -4.66 KCAL/MOL
REMARK 923 INTER-LIGAND FREE ENERGY PREDICTED BY IDOCK:   -3.81 KCAL/MOL
REMARK 924 INTRA-LIGAND FREE ENERGY PREDICTED BY IDOCK:   -0.85 KCAL/MOL
REMARK 927      BINDING AFFINITY PREDICTED BY RF-SCORE:    0.00 PKD
ROOT
HETATM    1  C   UNL     1     -12.540  12.636  71.236  1.00  0.00    -0.339 C  
HETATM    2  C   UNL     1     -12.877  11.280  71.820  1.00  0.00    -0.360 C  
ENDROOT
BRANCH   2   3
HETATM    3  S   UNL     1     -13.165  10.065  70.545  1.00  0.00     0.179 S  
HETATM    4  O   UNL     1     -14.354   9.314  70.875  1.00  0.00     0.025 OA 
HETATM    5  O   UNL     1     -12.985  10.694  69.254  1.00  0.00     0.019 OA 
BRANCH   3   6
HETATM    6  N   UNL     1     -11.838   9.060  70.817  1.00  0.00    -0.249 N  
HETATM    7  C   UNL     1     -10.697   9.345  71.735  1.00  0.00    -0.120 C  
HETATM    8  C   UNL     1     -10.405   7.811  71.838  1.00  0.00    -0.207 C  
HETATM    9  C   UNL     1     -11.875   7.659  71.327  1.00  0.00    -0.292 C  
BRANCH   8  10
HETATM   10  C   UNL     1     -10.022   7.265  73.206  1.00  0.00    -0.319 C  
BRANCH  10  11
HETATM   11  C   UNL     1     -10.762   5.976  73.527  1.00  0.00    -0.250 C  
HETATM   12  H1  UNL     1     -11.872   4.042  74.007  1.00  0.00     0.000 HD 
HETATM   13  N   UNL     1     -11.376   4.907  73.793  1.00  0.00    -0.413 NA 
HETATM   14  H2  UNL     1     -11.471   4.680  74.784  1.00  0.00     0.000 HD 
ENDBRANCH  10  11
ENDBRANCH   8  10
BRANCH   8  15
HETATM   15  N   UNL     1      -9.397   7.455  70.849  1.00  0.00    -0.155 NA 
HETATM   16  N   UNL     1      -8.542   8.390  70.377  1.00  0.00    -0.131 NA 
HETATM   17  C   UNL     1      -9.210   6.233  70.260  1.00  0.00    -0.157 A  
HETATM   18  C   UNL     1      -7.811   7.735  69.473  1.00  0.00    -0.111 A  
HETATM   19  C   UNL     1      -8.187   6.386  69.349  1.00  0.00    -0.118 A  
BRANCH  19  20
HETATM   20  C   UNL     1      -7.664   5.325  68.529  1.00  0.00    -0.080 A  
HETATM   21  C   UNL     1      -8.319   4.908  67.369  1.00  0.00    -0.105 A  
HETATM   22  C   UNL     1      -9.534   5.188  66.681  1.00  0.00    -0.147 A  
HETATM   23  C   UNL     1      -9.557   4.414  65.540  1.00  0.00    -0.186 A  
HETATM   24  N   UNL     1      -8.414   3.658  65.524  1.00  0.00    -0.108 NA 
HETATM   25  H   UNL     1      -8.160   2.991  64.794  1.00  0.00     0.000 HD 
HETATM   26  C   UNL     1      -7.663   3.933  66.635  1.00  0.00    -0.089 A  
HETATM   27  N   UNL     1      -6.494   3.347  66.930  1.00  0.00    -0.036 NA 
HETATM   28  C   UNL     1      -5.981   3.811  68.083  1.00  0.00    -0.027 A  
HETATM   29  N   UNL     1      -6.493   4.752  68.896  1.00  0.00    -0.035 NA 
ENDBRANCH  19  20
ENDBRANCH   8  15
ENDBRANCH   3   6
ENDBRANCH   2   3
TORSDOF 6
ENDMDL
MODEL      253
REMARK 921   NORMALIZED FREE ENERGY PREDICTED BY IDOCK:   -3.04 KCAL/MOL
REMARK 922        TOTAL FREE ENERGY PREDICTED BY IDOCK:   -4.61 KCAL/MOL
REMARK 923 INTER-LIGAND FREE ENERGY PREDICTED BY IDOCK:   -4.46 KCAL/MOL
REMARK 924 INTRA-LIGAND FREE ENERGY PREDICTED BY IDOCK:   -0.16 KCAL/MOL
REMARK 927      BINDING AFFINITY PREDICTED BY RF-SCORE:    0.00 PKD
ROOT
HETATM    1  C   UNL     1     -10.586  10.170  68.109  1.00  0.00    -0.262 C  
HETATM    2  C   UNL     1     -10.537   9.612  69.516  1.00  0.00    -0.229 C  
ENDROOT
BRANCH   2   3
HETATM    3  S   UNL     1     -11.886  10.220  70.514  1.00  0.00    -0.350 S  
HETATM    4  O   UNL     1     -13.129   9.725  69.972  1.00  0.00     0.363 OA 
HETATM    5  O   UNL     1     -11.538  10.064  71.910  1.00  0.00    -0.114 OA 
BRANCH   3   6
HETATM    6  N   UNL     1     -11.787  11.862  70.140  1.00  0.00    -0.330 N  
HETATM    7  C   UNL     1     -12.783  12.641  69.349  1.00  0.00     0.792 C  
HETATM    8  C   UNL     1     -12.283  13.958  70.030  1.00  0.00    -0.344 C  
HETATM    9  C   UNL     1     -11.702  12.991  71.110  1.00  0.00     0.996 C  
BRANCH   8  10
HETATM   10  C   UNL     1     -13.338  14.983  70.425  1.00  0.00    -0.056 C  
BRANCH  10  11
HETATM   11  C   UNL     1     -13.265  15.327  71.904  1.00  0.00    -0.415 C  
HETATM   12  H1  UNL     1     -13.155  15.843  74.123  1.00  0.00     0.000 HD 
HETATM   13  N   UNL     1     -13.204  15.612  73.131  1.00  0.00    -0.533 NA 
HETATM   14  H2  UNL     1     -12.773  14.909  73.732  1.00  0.00     0.000 HD 
ENDBRANCH  10  11
ENDBRANCH   8  10
BRANCH   8  15
HETATM   15  N   UNL     1     -11.271  14.573  69.181  1.00  0.00    -0.257 NA 
HETATM   16  N   UNL     1     -10.191  13.865  68.782  1.00  0.00    -0.218 NA 
HETATM   17  C   UNL     1     -11.239  15.868  68.737  1.00  0.00    -0.359 A  
HETATM   18  C   UNL     1      -9.471  14.740  68.079  1.00  0.00    -0.204 A  
HETATM   19  C   UNL     1     -10.070  16.011  68.022  1.00  0.00    -0.240 A  
BRANCH  19  20
HETATM   20  C   UNL     1      -9.663  17.224  67.364  1.00  0.00    -0.258 A  
HETATM   21  C   UNL     1      -8.341  17.433  66.967  1.00  0.00    -0.239 A  
HETATM   22  C   UNL     1      -7.086  16.769  67.078  1.00  0.00    -0.238 A  
HETATM   23  C   UNL     1      -6.148  17.534  66.419  1.00  0.00    -0.224 A  
HETATM   24  N   UNL     1      -6.782  18.649  65.934  1.00  0.00    -0.246 NA 
HETATM   25  H   UNL     1      -6.334  19.394  65.400  1.00  0.00     0.000 HD 
HETATM   26  C   UNL     1      -8.107  18.609  66.275  1.00  0.00    -0.244 A  
HETATM   27  N   UNL     1      -9.002  19.560  65.968  1.00  0.00    -0.424 NA 
HETATM   28  C   UNL     1     -10.227  19.258  66.430  1.00  0.00    -0.449 A  
HETATM   29  N   UNL     1     -10.608  18.160  67.109  1.00  0.00    -0.374 NA 
ENDBRANCH  19  20
ENDBRANCH   8  15
ENDBRANCH   3   6
ENDBRANCH   2   3
TORSDOF 6
ENDMDL
MODEL      254
REMARK 921   NORMALIZED FREE ENERGY PREDICTED BY IDOCK:   -3.03 KCAL/MOL
REMARK 922        TOTAL FREE ENERGY PREDICTED BY IDOCK:   -4.60 KCAL/MOL
REMARK 923 INTER-LIGAND FREE ENERGY PREDICTED BY IDOCK:   -3.66 KCAL/MOL
REMARK 924 INTRA-LIGAND FREE ENERGY PREDICTED BY IDOCK:   -0.94 KCAL/MOL
REMARK 927      BINDING AFFINITY PREDICTED BY RF-SCORE:    0.00 PKD
ROOT
HETATM    1  C   UNL     1      -7.334   9.232  64.462  1.00  0.00    -0.101 C  
HETATM    2  C   UNL     1      -8.515  10.130  64.163  1.00  0.00    -0.180 C  
ENDROOT
BRANCH   2   3
HETATM    3  S   UNL     1      -9.039  11.036  65.609  1.00  0.00    -0.200 S  
HETATM    4  O   UNL     1      -7.875  11.590  66.260  1.00  0.00    -0.086 OA 
HETATM    5  O   UNL     1     -10.185  11.846  65.260  1.00  0.00    -0.254 OA 
BRANCH   3   6
HETATM    6  N   UNL     1      -9.586   9.751  66.555  1.00  0.00    -0.182 N  
HETATM    7  C   UNL     1      -9.059   9.364  67.896  1.00  0.00    -0.129 C  
HETATM    8  C   UNL     1     -10.417   8.657  68.219  1.00  0.00    -0.184 C  
HETATM    9  C   UNL     1     -10.974   9.551  67.064  1.00  0.00     0.084 C  
BRANCH   8  10
HETATM   10  C   UNL     1     -10.969   8.818  69.629  1.00  0.00    -0.114 C  
BRANCH  10  11
HETATM   11  C   UNL     1     -11.214  10.277  69.977  1.00  0.00    -0.311 C  
HETATM   12  H1  UNL     1     -11.582  12.467  70.498  1.00  0.00     0.000 HD 
HETATM   13  N   UNL     1     -11.418  11.488  70.265  1.00  0.00    -0.515 NA 
HETATM   14  H2  UNL     1     -12.378  11.734  70.508  1.00  0.00     0.000 HD 
ENDBRANCH  10  11
ENDBRANCH   8  10
BRANCH   8  15
HETATM   15  N   UNL     1     -10.308   7.246  67.874  1.00  0.00    -0.190 NA 
HETATM   16  N   UNL     1     -11.240   6.660  67.089  1.00  0.00    -0.353 NA 
HETATM   17  C   UNL     1      -9.352   6.362  68.298  1.00  0.00    -0.109 A  
HETATM   18  C   UNL     1     -10.856   5.384  67.028  1.00  0.00    -0.027 A  
HETATM   19  C   UNL     1      -9.688   5.134  67.770  1.00  0.00    -0.182 A  
BRANCH  19  20
HETATM   20  C   UNL     1      -8.922   3.932  67.961  1.00  0.00    -0.122 A  
HETATM   21  C   UNL     1      -7.793   3.654  67.188  1.00  0.00    -0.080 A  
HETATM   22  C   UNL     1      -7.103   4.225  66.080  1.00  0.00    -0.067 A  
HETATM   23  C   UNL     1      -6.006   3.432  65.817  1.00  0.00    -0.023 A  
HETATM   24  N   UNL     1      -6.019   2.390  66.707  1.00  0.00    -0.022 NA 
HETATM   25  H   UNL     1      -5.324   1.644  66.749  1.00  0.00     0.000 HD 
HETATM   26  C   UNL     1      -7.105   2.502  67.532  1.00  0.00    -0.049 A  
HETATM   27  N   UNL     1      -7.419   1.631  68.502  1.00  0.00    -0.043 NA 
HETATM   28  C   UNL     1      -8.540   1.991  69.151  1.00  0.00    -0.060 A  
HETATM   29  N   UNL     1      -9.307   3.076  68.938  1.00  0.00    -0.166 NA 
ENDBRANCH  19  20
ENDBRANCH   8  15
ENDBRANCH   3   6
ENDBRANCH   2   3
TORSDOF 6
ENDMDL
MODEL      255
REMARK 921   NORMALIZED FREE ENERGY PREDICTED BY IDOCK:   -3.02 KCAL/MOL
REMARK 922        TOTAL FREE ENERGY PREDICTED BY IDOCK:   -4.59 KCAL/MOL
REMARK 923 INTER-LIGAND FREE ENERGY PREDICTED BY IDOCK:   -3.90 KCAL/MOL
REMARK 924 INTRA-LIGAND FREE ENERGY PREDICTED BY IDOCK:   -0.69 KCAL/MOL
REMARK 927      BINDING AFFINITY PREDICTED BY RF-SCORE:    0.00 PKD
ROOT
HETATM    1  C   UNL     1     -10.019  13.544  68.900  1.00  0.00     0.009 C  
HETATM    2  C   UNL     1     -10.185  13.162  67.444  1.00  0.00    -0.232 C  
ENDROOT
BRANCH   2   3
HETATM    3  S   UNL     1     -11.455  11.927  67.226  1.00  0.00    -0.295 S  
HETATM    4  O   UNL     1     -12.371  11.997  68.340  1.00  0.00    -0.270 OA 
HETATM    5  O   UNL     1     -11.907  11.963  65.852  1.00  0.00    -0.466 OA 
BRANCH   3   6
HETATM    6  N   UNL     1     -10.521  10.536  67.423  1.00  0.00    -0.227 N  
HETATM    7  C   UNL     1     -10.534   9.339  66.532  1.00  0.00    -0.134 C  
HETATM    8  C   UNL     1      -9.095   8.967  67.022  1.00  0.00    -0.135 C  
HETATM    9  C   UNL     1      -9.032  10.464  67.466  1.00  0.00    -0.135 C  
BRANCH   8  10
HETATM   10  C   UNL     1      -8.115   8.449  65.978  1.00  0.00    -0.104 C  
BRANCH  10  11
HETATM   11  C   UNL     1      -6.773   9.156  66.064  1.00  0.00    -0.076 C  
HETATM   12  H1  UNL     1      -4.758  10.217  66.193  1.00  0.00     0.000 HD 
HETATM   13  N   UNL     1      -5.658   9.742  66.135  1.00  0.00    -0.050 NA 
HETATM   14  H2  UNL     1      -4.876   9.177  66.466  1.00  0.00     0.000 HD 
ENDBRANCH  10  11
ENDBRANCH   8  10
BRANCH   8  15
HETATM   15  N   UNL     1      -9.202   8.026  68.129  1.00  0.00    -0.134 NA 
HETATM   16  N   UNL     1     -10.377   7.411  68.393  1.00  0.00    -0.191 NA 
HETATM   17  C   UNL     1      -8.224   7.688  69.025  1.00  0.00    -0.127 A  
HETATM   18  C   UNL     1     -10.123   6.679  69.478  1.00  0.00    -0.177 A  
HETATM   19  C   UNL     1      -8.797   6.817  69.926  1.00  0.00    -0.141 A  
BRANCH  19  20
HETATM   20  C   UNL     1      -8.096   6.205  71.023  1.00  0.00    -0.121 A  
HETATM   21  C   UNL     1      -8.431   6.481  72.350  1.00  0.00    -0.118 A  
HETATM   22  C   UNL     1      -9.319   7.338  73.060  1.00  0.00    -0.204 A  
HETATM   23  C   UNL     1      -9.160   7.084  74.405  1.00  0.00    -0.204 A  
HETATM   24  N   UNL     1      -8.191   6.123  74.539  1.00  0.00    -0.122 NA 
HETATM   25  H   UNL     1      -7.865   5.736  75.424  1.00  0.00     0.000 HD 
HETATM   26  C   UNL     1      -7.728   5.762  73.302  1.00  0.00    -0.099 A  
HETATM   27  N   UNL     1      -6.762   4.857  73.084  1.00  0.00    -0.065 NA 
HETATM   28  C   UNL     1      -6.510   4.704  71.773  1.00  0.00    -0.023 A  
HETATM   29  N   UNL     1      -7.110   5.322  70.738  1.00  0.00    -0.061 NA 
ENDBRANCH  19  20
ENDBRANCH   8  15
ENDBRANCH   3   6
ENDBRANCH   2   3
TORSDOF 6
ENDMDL
MODEL      256
REMARK 921   NORMALIZED FREE ENERGY PREDICTED BY IDOCK:   -2.97 KCAL/MOL
REMARK 922        TOTAL FREE ENERGY PREDICTED BY IDOCK:   -4.52 KCAL/MOL
REMARK 923 INTER-LIGAND FREE ENERGY PREDICTED BY IDOCK:   -4.00 KCAL/MOL
REMARK 924 INTRA-LIGAND FREE ENERGY PREDICTED BY IDOCK:   -0.51 KCAL/MOL
REMARK 927      BINDING AFFINITY PREDICTED BY RF-SCORE:    0.00 PKD
ROOT
HETATM    1  C   UNL     1     -12.666  12.509  71.283  1.00  0.00    -0.350 C  
HETATM    2  C   UNL     1     -12.849  11.138  71.899  1.00  0.00    -0.294 C  
ENDROOT
BRANCH   2   3
HETATM    3  S   UNL     1     -13.152   9.892  70.658  1.00  0.00     0.013 S  
HETATM    4  O   UNL     1     -14.238   9.048  71.099  1.00  0.00    -0.220 OA 
HETATM    5  O   UNL     1     -13.146  10.522  69.356  1.00  0.00     0.126 OA 
BRANCH   3   6
HETATM    6  N   UNL     1     -11.726   9.003  70.806  1.00  0.00    -0.270 N  
HETATM    7  C   UNL     1     -10.574   9.338  71.692  1.00  0.00    -0.290 C  
HETATM    8  C   UNL     1     -10.137   7.835  71.680  1.00  0.00    -0.185 C  
HETATM    9  C   UNL     1     -11.609   7.576  71.223  1.00  0.00    -0.281 C  
BRANCH   8  10
HETATM   10  C   UNL     1      -9.640   7.243  72.991  1.00  0.00    -0.219 C  
BRANCH  10  11
HETATM   11  C   UNL     1     -10.343   5.936  73.323  1.00  0.00    -0.217 C  
HETATM   12  H1  UNL     1     -11.398   3.976  73.821  1.00  0.00     0.000 HD 
HETATM   13  N   UNL     1     -10.927   4.853  73.598  1.00  0.00    -0.307 NA 
HETATM   14  H2  UNL     1     -11.591   4.514  72.901  1.00  0.00     0.000 HD 
ENDBRANCH  10  11
ENDBRANCH   8  10
BRANCH   8  15
HETATM   15  N   UNL     1      -9.149   7.640  70.628  1.00  0.00    -0.157 NA 
HETATM   16  N   UNL     1      -8.060   6.869  70.846  1.00  0.00    -0.112 NA 
HETATM   17  C   UNL     1      -9.148   8.202  69.378  1.00  0.00    -0.148 A  
HETATM   18  C   UNL     1      -7.367   6.957  69.710  1.00  0.00    -0.085 A  
HETATM   19  C   UNL     1      -7.991   7.783  68.758  1.00  0.00    -0.125 A  
BRANCH  19  20
HETATM   20  C   UNL     1      -7.618   8.134  67.414  1.00  0.00    -0.101 A  
HETATM   21  C   UNL     1      -7.884   7.288  66.336  1.00  0.00    -0.106 A  
HETATM   22  C   UNL     1      -8.421   5.986  66.121  1.00  0.00    -0.134 A  
HETATM   23  C   UNL     1      -8.427   5.755  64.762  1.00  0.00    -0.079 A  
HETATM   24  N   UNL     1      -7.893   6.857  64.147  1.00  0.00    -0.118 NA 
HETATM   25  H   UNL     1      -7.774   6.969  63.140  1.00  0.00     0.000 HD 
HETATM   26  C   UNL     1      -7.543   7.786  65.090  1.00  0.00    -0.094 A  
HETATM   27  N   UNL     1      -6.975   8.970  64.819  1.00  0.00    -0.083 NA 
HETATM   28  C   UNL     1      -6.740   9.677  65.938  1.00  0.00    -0.084 A  
HETATM   29  N   UNL     1      -7.020   9.332  67.209  1.00  0.00    -0.081 NA 
ENDBRANCH  19  20
ENDBRANCH   8  15
ENDBRANCH   3   6
ENDBRANCH   2   3
TORSDOF 6
ENDMDL
MODEL      257
REMARK 921   NORMALIZED FREE ENERGY PREDICTED BY IDOCK:   -2.93 KCAL/MOL
REMARK 922        TOTAL FREE ENERGY PREDICTED BY IDOCK:   -4.47 KCAL/MOL
REMARK 923 INTER-LIGAND FREE ENERGY PREDICTED BY IDOCK:   -4.28 KCAL/MOL
REMARK 924 INTRA-LIGAND FREE ENERGY PREDICTED BY IDOCK:   -0.19 KCAL/MOL
REMARK 927      BINDING AFFINITY PREDICTED BY RF-SCORE:    0.00 PKD
ROOT
HETATM    1  C   UNL     1      -6.937   3.833  72.875  1.00  0.00    -0.048 C  
HETATM    2  C   UNL     1      -6.406   4.165  71.496  1.00  0.00    -0.018 C  
ENDROOT
BRANCH   2   3
HETATM    3  S   UNL     1      -7.202   3.192  70.230  1.00  0.00    -0.040 S  
HETATM    4  O   UNL     1      -6.202   2.401  69.551  1.00  0.00    -0.024 OA 
HETATM    5  O   UNL     1      -8.405   2.607  70.780  1.00  0.00    -0.051 OA 
BRANCH   3   6
HETATM    6  N   UNL     1      -7.666   4.430  69.182  1.00  0.00    -0.055 N  
HETATM    7  C   UNL     1      -6.746   5.343  68.443  1.00  0.00    -0.054 C  
HETATM    8  C   UNL     1      -7.869   5.608  67.386  1.00  0.00    -0.101 C  
HETATM    9  C   UNL     1      -8.487   4.286  67.945  1.00  0.00    -0.095 C  
BRANCH   8  10
HETATM   10  C   UNL     1      -7.448   5.685  65.925  1.00  0.00    -0.078 C  
BRANCH  10  11
HETATM   11  C   UNL     1      -7.803   4.415  65.168  1.00  0.00    -0.086 C  
HETATM   12  H1  UNL     1      -8.336   2.510  64.032  1.00  0.00     0.000 HD 
HETATM   13  N   UNL     1      -8.097   3.362  64.540  1.00  0.00    -0.086 NA 
HETATM   14  H2  UNL     1      -8.461   3.492  63.595  1.00  0.00     0.000 HD 
ENDBRANCH  10  11
ENDBRANCH   8  10
BRANCH   8  15
HETATM   15  N   UNL     1      -8.600   6.809  67.767  1.00  0.00    -0.122 NA 
HETATM   16  N   UNL     1      -8.521   7.927  67.010  1.00  0.00    -0.122 NA 
HETATM   17  C   UNL     1      -9.374   6.988  68.883  1.00  0.00    -0.139 A  
HETATM   18  C   UNL     1      -9.259   8.819  67.672  1.00  0.00    -0.134 A  
HETATM   19  C   UNL     1      -9.810   8.295  68.855  1.00  0.00    -0.183 A  
BRANCH  19  20
HETATM   20  C   UNL     1     -10.674   8.884  69.844  1.00  0.00    -0.227 A  
HETATM   21  C   UNL     1     -11.058  10.224  69.774  1.00  0.00    -0.340 A  
HETATM   22  C   UNL     1     -10.780  11.363  68.965  1.00  0.00    -0.245 A  
HETATM   23  C   UNL     1     -11.540  12.410  69.441  1.00  0.00    -0.307 A  
HETATM   24  N   UNL     1     -12.251  11.954  70.522  1.00  0.00    -0.363 NA 
HETATM   25  H   UNL     1     -12.902  12.512  71.074  1.00  0.00     0.000 HD 
HETATM   26  C   UNL     1     -11.954  10.637  70.745  1.00  0.00    -0.374 A  
HETATM   27  N   UNL     1     -12.467   9.899  71.741  1.00  0.00    -0.398 NA 
HETATM   28  C   UNL     1     -11.997   8.639  71.719  1.00  0.00    -0.336 A  
HETATM   29  N   UNL     1     -11.135   8.093  70.842  1.00  0.00    -0.254 NA 
ENDBRANCH  19  20
ENDBRANCH   8  15
ENDBRANCH   3   6
ENDBRANCH   2   3
TORSDOF 6
ENDMDL
MODEL      258
REMARK 921   NORMALIZED FREE ENERGY PREDICTED BY IDOCK:   -2.92 KCAL/MOL
REMARK 922        TOTAL FREE ENERGY PREDICTED BY IDOCK:   -4.46 KCAL/MOL
REMARK 923 INTER-LIGAND FREE ENERGY PREDICTED BY IDOCK:   -3.74 KCAL/MOL
REMARK 924 INTRA-LIGAND FREE ENERGY PREDICTED BY IDOCK:   -0.72 KCAL/MOL
REMARK 927      BINDING AFFINITY PREDICTED BY RF-SCORE:    0.00 PKD
ROOT
HETATM    1  C   UNL     1      -8.879   7.607  74.069  1.00  0.00    -0.305 C  
HETATM    2  C   UNL     1      -9.133   8.068  72.649  1.00  0.00    -0.227 C  
ENDROOT
BRANCH   2   3
HETATM    3  S   UNL     1      -7.615   8.225  71.724  1.00  0.00    -0.105 S  
HETATM    4  O   UNL     1      -6.994   9.486  72.057  1.00  0.00    -0.210 OA 
HETATM    5  O   UNL     1      -6.897   6.971  71.792  1.00  0.00    -0.059 OA 
BRANCH   3   6
HETATM    6  N   UNL     1      -8.253   8.369  70.170  1.00  0.00    -0.114 N  
HETATM    7  C   UNL     1      -9.689   8.217  69.795  1.00  0.00    -0.173 C  
HETATM    8  C   UNL     1      -9.440   9.079  68.513  1.00  0.00    -0.143 C  
HETATM    9  C   UNL     1      -8.167   9.563  69.281  1.00  0.00    -0.112 C  
BRANCH   8  10
HETATM   10  C   UNL     1     -10.516  10.085  68.128  1.00  0.00    -0.250 C  
BRANCH  10  11
HETATM   11  C   UNL     1     -10.078  11.514  68.405  1.00  0.00    -0.204 C  
HETATM   12  H1  UNL     1      -9.420  13.658  68.820  1.00  0.00     0.000 HD 
HETATM   13  N   UNL     1      -9.714  12.699  68.635  1.00  0.00    -0.404 NA 
HETATM   14  H2  UNL     1      -9.239  12.857  69.524  1.00  0.00     0.000 HD 
ENDBRANCH  10  11
ENDBRANCH   8  10
BRANCH   8  15
HETATM   15  N   UNL     1      -9.153   8.189  67.396  1.00  0.00    -0.133 NA 
HETATM   16  N   UNL     1      -8.771   8.694  66.201  1.00  0.00    -0.146 NA 
HETATM   17  C   UNL     1      -9.266   6.825  67.374  1.00  0.00    -0.127 A  
HETATM   18  C   UNL     1      -8.647   7.619  65.420  1.00  0.00    -0.053 A  
HETATM   19  C   UNL     1      -8.952   6.423  66.094  1.00  0.00    -0.162 A  
BRANCH  19  20
HETATM   20  C   UNL     1      -8.928   5.053  65.656  1.00  0.00    -0.149 A  
HETATM   21  C   UNL     1      -7.992   4.143  66.150  1.00  0.00    -0.098 A  
HETATM   22  C   UNL     1      -6.861   4.155  67.016  1.00  0.00    -0.051 A  
HETATM   23  C   UNL     1      -6.384   2.864  67.098  1.00  0.00    -0.035 A  
HETATM   24  N   UNL     1      -7.168   2.075  66.297  1.00  0.00    -0.058 NA 
HETATM   25  H   UNL     1      -7.050   1.071  66.165  1.00  0.00     0.000 HD 
HETATM   26  C   UNL     1      -8.135   2.840  65.703  1.00  0.00    -0.087 A  
HETATM   27  N   UNL     1      -9.054   2.376  64.843  1.00  0.00    -0.128 NA 
HETATM   28  C   UNL     1      -9.874   3.351  64.416  1.00  0.00    -0.174 A  
HETATM   29  N   UNL     1      -9.864   4.651  64.763  1.00  0.00    -0.033 NA 
ENDBRANCH  19  20
ENDBRANCH   8  15
ENDBRANCH   3   6
ENDBRANCH   2   3
TORSDOF 6
ENDMDL
MODEL      259
REMARK 921   NORMALIZED FREE ENERGY PREDICTED BY IDOCK:   -2.91 KCAL/MOL
REMARK 922        TOTAL FREE ENERGY PREDICTED BY IDOCK:   -4.45 KCAL/MOL
REMARK 923 INTER-LIGAND FREE ENERGY PREDICTED BY IDOCK:   -3.65 KCAL/MOL
REMARK 924 INTRA-LIGAND FREE ENERGY PREDICTED BY IDOCK:   -0.80 KCAL/MOL
REMARK 927      BINDING AFFINITY PREDICTED BY RF-SCORE:    0.00 PKD
ROOT
HETATM    1  C   UNL     1      -8.581   3.216  70.789  1.00  0.00    -0.116 C  
HETATM    2  C   UNL     1      -8.687   3.775  69.386  1.00  0.00    -0.080 C  
ENDROOT
BRANCH   2   3
HETATM    3  S   UNL     1      -7.197   3.489  68.447  1.00  0.00    -0.051 S  
HETATM    4  O   UNL     1      -6.080   3.403  69.358  1.00  0.00    -0.023 OA 
HETATM    5  O   UNL     1      -7.461   2.470  67.454  1.00  0.00    -0.059 OA 
BRANCH   3   6
HETATM    6  N   UNL     1      -7.086   4.970  67.647  1.00  0.00    -0.065 N  
HETATM    7  C   UNL     1      -5.836   5.752  67.421  1.00  0.00    -0.017 C  
HETATM    8  C   UNL     1      -6.511   6.466  66.203  1.00  0.00    -0.043 C  
HETATM    9  C   UNL     1      -7.496   5.253  66.241  1.00  0.00    -0.087 C  
BRANCH   8  10
HETATM   10  C   UNL     1      -5.652   6.701  64.968  1.00  0.00    -0.030 C  
BRANCH  10  11
HETATM   11  C   UNL     1      -5.811   5.584  63.949  1.00  0.00    -0.021 C  
HETATM   12  H1  UNL     1      -6.049   3.908  62.420  1.00  0.00     0.000 HD 
HETATM   13  N   UNL     1      -5.942   4.657  63.104  1.00  0.00    -0.017 NA 
HETATM   14  H2  UNL     1      -5.139   4.036  62.993  1.00  0.00     0.000 HD 
ENDBRANCH  10  11
ENDBRANCH   8  10
BRANCH   8  15
HETATM   15  N   UNL     1      -7.100   7.718  66.658  1.00  0.00    -0.077 NA 
HETATM   16  N   UNL     1      -6.310   8.766  66.986  1.00  0.00    -0.059 NA 
HETATM   17  C   UNL     1      -8.429   7.986  66.852  1.00  0.00    -0.124 A  
HETATM   18  C   UNL     1      -7.167   9.702  67.396  1.00  0.00    -0.086 A  
HETATM   19  C   UNL     1      -8.505   9.271  67.345  1.00  0.00    -0.122 A  
BRANCH  19  20
HETATM   20  C   UNL     1      -9.734   9.947  67.663  1.00  0.00    -0.155 A  
HETATM   21  C   UNL     1     -10.366   9.772  68.895  1.00  0.00    -0.225 A  
HETATM   22  C   UNL     1     -10.196   8.983  70.069  1.00  0.00    -0.222 A  
HETATM   23  C   UNL     1     -11.194   9.329  70.954  1.00  0.00    -0.306 A  
HETATM   24  N   UNL     1     -11.977  10.280  70.352  1.00  0.00    -0.304 NA 
HETATM   25  H   UNL     1     -12.793  10.723  70.775  1.00  0.00     0.000 HD 
HETATM   26  C   UNL     1     -11.498  10.544  69.098  1.00  0.00    -0.247 A  
HETATM   27  N   UNL     1     -12.049  11.414  68.239  1.00  0.00    -0.608 NA 
HETATM   28  C   UNL     1     -11.369  11.469  67.081  1.00  0.00    -0.284 A  
HETATM   29  N   UNL     1     -10.257  10.790  66.742  1.00  0.00    -0.222 NA 
ENDBRANCH  19  20
ENDBRANCH   8  15
ENDBRANCH   3   6
ENDBRANCH   2   3
TORSDOF 6
ENDMDL
MODEL      260
REMARK 921   NORMALIZED FREE ENERGY PREDICTED BY IDOCK:   -2.91 KCAL/MOL
REMARK 922        TOTAL FREE ENERGY PREDICTED BY IDOCK:   -4.44 KCAL/MOL
REMARK 923 INTER-LIGAND FREE ENERGY PREDICTED BY IDOCK:   -4.31 KCAL/MOL
REMARK 924 INTRA-LIGAND FREE ENERGY PREDICTED BY IDOCK:   -0.14 KCAL/MOL
REMARK 927      BINDING AFFINITY PREDICTED BY RF-SCORE:    0.00 PKD
ROOT
HETATM    1  C   UNL     1      -6.943   3.835  72.870  1.00  0.00    -0.048 C  
HETATM    2  C   UNL     1      -6.399   4.187  71.501  1.00  0.00    -0.018 C  
ENDROOT
BRANCH   2   3
HETATM    3  S   UNL     1      -7.175   3.224  70.215  1.00  0.00    -0.041 S  
HETATM    4  O   UNL     1      -6.164   2.445  69.540  1.00  0.00    -0.024 OA 
HETATM    5  O   UNL     1      -8.382   2.628  70.744  1.00  0.00    -0.051 OA 
BRANCH   3   6
HETATM    6  N   UNL     1      -7.631   4.472  69.175  1.00  0.00    -0.056 N  
HETATM    7  C   UNL     1      -6.707   5.415  68.480  1.00  0.00    -0.054 C  
HETATM    8  C   UNL     1      -7.803   5.678  67.394  1.00  0.00    -0.101 C  
HETATM    9  C   UNL     1      -8.412   4.335  67.912  1.00  0.00    -0.095 C  
BRANCH   8  10
HETATM   10  C   UNL     1      -7.340   5.789  65.948  1.00  0.00    -0.073 C  
BRANCH  10  11
HETATM   11  C   UNL     1      -7.650   4.527  65.158  1.00  0.00    -0.077 C  
HETATM   12  H1  UNL     1      -8.117   2.635  63.973  1.00  0.00     0.000 HD 
HETATM   13  N   UNL     1      -7.909   3.481  64.503  1.00  0.00    -0.084 NA 
HETATM   14  H2  UNL     1      -8.756   3.507  63.935  1.00  0.00     0.000 HD 
ENDBRANCH  10  11
ENDBRANCH   8  10
BRANCH   8  15
HETATM   15  N   UNL     1      -8.568   6.858  67.774  1.00  0.00    -0.122 NA 
HETATM   16  N   UNL     1      -8.457   8.003  67.063  1.00  0.00    -0.119 NA 
HETATM   17  C   UNL     1      -9.408   6.990  68.847  1.00  0.00    -0.139 A  
HETATM   18  C   UNL     1      -9.241   8.865  67.712  1.00  0.00    -0.141 A  
HETATM   19  C   UNL     1      -9.856   8.293  68.840  1.00  0.00    -0.183 A  
BRANCH  19  20
HETATM   20  C   UNL     1     -10.782   8.839  69.797  1.00  0.00    -0.218 A  
HETATM   21  C   UNL     1     -11.039   8.200  71.011  1.00  0.00    -0.281 A  
HETATM   22  C   UNL     1     -10.679   6.987  71.666  1.00  0.00    -0.244 A  
HETATM   23  C   UNL     1     -11.283   6.985  72.905  1.00  0.00    -0.236 A  
HETATM   24  N   UNL     1     -12.014   8.139  73.017  1.00  0.00    -0.596 NA 
HETATM   25  H   UNL     1     -12.566   8.409  73.831  1.00  0.00     0.000 HD 
HETATM   26  C   UNL     1     -11.890   8.876  71.870  1.00  0.00    -0.370 A  
HETATM   27  N   UNL     1     -12.497  10.052  71.650  1.00  0.00    -0.402 NA 
HETATM   28  C   UNL     1     -12.195  10.547  70.437  1.00  0.00    -0.328 A  
HETATM   29  N   UNL     1     -11.386  10.015  69.503  1.00  0.00    -0.206 NA 
ENDBRANCH  19  20
ENDBRANCH   8  15
ENDBRANCH   3   6
ENDBRANCH   2   3
TORSDOF 6
ENDMDL
MODEL      261
REMARK 921   NORMALIZED FREE ENERGY PREDICTED BY IDOCK:   -2.90 KCAL/MOL
REMARK 922        TOTAL FREE ENERGY PREDICTED BY IDOCK:   -4.43 KCAL/MOL
REMARK 923 INTER-LIGAND FREE ENERGY PREDICTED BY IDOCK:   -4.51 KCAL/MOL
REMARK 924 INTRA-LIGAND FREE ENERGY PREDICTED BY IDOCK:    0.08 KCAL/MOL
REMARK 927      BINDING AFFINITY PREDICTED BY RF-SCORE:    0.00 PKD
ROOT
HETATM    1  C   UNL     1      -8.104   4.081  73.775  1.00  0.00    -0.088 C  
HETATM    2  C   UNL     1      -7.637   4.570  72.420  1.00  0.00    -0.084 C  
ENDROOT
BRANCH   2   3
HETATM    3  S   UNL     1      -8.255   3.543  71.098  1.00  0.00    -0.067 S  
HETATM    4  O   UNL     1      -7.171   2.740  70.584  1.00  0.00    -0.033 OA 
HETATM    5  O   UNL     1      -9.515   2.963  71.511  1.00  0.00    -0.122 OA 
BRANCH   3   6
HETATM    6  N   UNL     1      -8.589   4.737  69.955  1.00  0.00    -0.074 N  
HETATM    7  C   UNL     1      -7.644   5.244  68.918  1.00  0.00    -0.081 C  
HETATM    8  C   UNL     1      -8.859   5.712  68.049  1.00  0.00    -0.105 C  
HETATM    9  C   UNL     1      -9.670   4.706  68.928  1.00  0.00    -0.166 C  
BRANCH   8  10
HETATM   10  C   UNL     1      -8.767   5.495  66.545  1.00  0.00    -0.119 C  
BRANCH  10  11
HETATM   11  C   UNL     1      -9.524   4.252  66.107  1.00  0.00    -0.178 C  
HETATM   12  H1  UNL     1     -10.661   2.387  65.449  1.00  0.00     0.000 HD 
HETATM   13  N   UNL     1     -10.153   3.221  65.743  1.00  0.00    -0.286 NA 
HETATM   14  H2  UNL     1     -11.093   3.377  65.376  1.00  0.00     0.000 HD 
ENDBRANCH  10  11
ENDBRANCH   8  10
BRANCH   8  15
HETATM   15  N   UNL     1      -9.138   7.112  68.344  1.00  0.00    -0.128 NA 
HETATM   16  N   UNL     1      -9.282   7.526  69.623  1.00  0.00    -0.147 NA 
HETATM   17  C   UNL     1      -9.329   8.125  67.443  1.00  0.00    -0.141 A  
HETATM   18  C   UNL     1      -9.573   8.823  69.513  1.00  0.00    -0.167 A  
HETATM   19  C   UNL     1      -9.625   9.254  68.175  1.00  0.00    -0.159 A  
BRANCH  19  20
HETATM   20  C   UNL     1      -9.874  10.551  67.603  1.00  0.00    -0.166 A  
HETATM   21  C   UNL     1      -9.738  10.784  66.234  1.00  0.00    -0.248 A  
HETATM   22  C   UNL     1      -9.311  10.071  65.077  1.00  0.00    -0.314 A  
HETATM   23  C   UNL     1      -9.452  10.911  63.992  1.00  0.00    -0.262 A  
HETATM   24  N   UNL     1      -9.926  12.112  64.451  1.00  0.00    -0.442 NA 
HETATM   25  H   UNL     1     -10.129  12.925  63.869  1.00  0.00     0.000 HD 
HETATM   26  C   UNL     1     -10.086  12.055  65.810  1.00  0.00    -0.238 A  
HETATM   27  N   UNL     1     -10.516  13.073  66.570  1.00  0.00    -0.274 NA 
HETATM   28  C   UNL     1     -10.574  12.734  67.869  1.00  0.00    -0.221 A  
HETATM   29  N   UNL     1     -10.277  11.546  68.428  1.00  0.00    -0.199 NA 
ENDBRANCH  19  20
ENDBRANCH   8  15
ENDBRANCH   3   6
ENDBRANCH   2   3
TORSDOF 6
ENDMDL
MODEL      262
REMARK 921   NORMALIZED FREE ENERGY PREDICTED BY IDOCK:   -2.87 KCAL/MOL
REMARK 922        TOTAL FREE ENERGY PREDICTED BY IDOCK:   -4.39 KCAL/MOL
REMARK 923 INTER-LIGAND FREE ENERGY PREDICTED BY IDOCK:   -4.09 KCAL/MOL
REMARK 924 INTRA-LIGAND FREE ENERGY PREDICTED BY IDOCK:   -0.30 KCAL/MOL
REMARK 927      BINDING AFFINITY PREDICTED BY RF-SCORE:    0.00 PKD
ROOT
HETATM    1  C   UNL     1      -8.920   6.991  73.317  1.00  0.00    -0.159 C  
HETATM    2  C   UNL     1      -9.376   7.181  71.886  1.00  0.00    -0.138 C  
ENDROOT
BRANCH   2   3
HETATM    3  S   UNL     1      -8.190   8.115  70.934  1.00  0.00    -0.116 S  
HETATM    4  O   UNL     1      -7.405   8.928  71.833  1.00  0.00    -0.281 OA 
HETATM    5  O   UNL     1      -7.581   7.236  69.959  1.00  0.00    -0.086 OA 
BRANCH   3   6
HETATM    6  N   UNL     1      -9.245   9.142  70.111  1.00  0.00    -0.189 N  
HETATM    7  C   UNL     1     -10.731   9.020  70.069  1.00  0.00    -0.229 C  
HETATM    8  C   UNL     1     -10.840  10.545  69.735  1.00  0.00    -0.281 C  
HETATM    9  C   UNL     1      -9.390  10.613  70.313  1.00  0.00     1.096 C  
BRANCH   8  10
HETATM   10  C   UNL     1     -11.958  11.329  70.409  1.00  0.00    -0.471 C  
BRANCH  10  11
HETATM   11  C   UNL     1     -12.717  10.478  71.414  1.00  0.00    -0.442 C  
HETATM   12  H1  UNL     1     -13.857   9.200  72.922  1.00  0.00     0.000 HD 
HETATM   13  N   UNL     1     -13.347   9.771  72.248  1.00  0.00    -0.570 NA 
HETATM   14  H2  UNL     1     -12.794   9.386  73.015  1.00  0.00     0.000 HD 
ENDBRANCH  10  11
ENDBRANCH   8  10
BRANCH   8  15
HETATM   15  N   UNL     1     -10.908  10.707  68.289  1.00  0.00    -0.221 NA 
HETATM   16  N   UNL     1     -10.108   9.976  67.480  1.00  0.00    -0.186 NA 
HETATM   17  C   UNL     1     -11.692  11.586  67.590  1.00  0.00    -0.208 A  
HETATM   18  C   UNL     1     -10.398  10.414  66.255  1.00  0.00    -0.203 A  
HETATM   19  C   UNL     1     -11.375  11.426  66.259  1.00  0.00    -0.140 A  
BRANCH  19  20
HETATM   20  C   UNL     1     -11.995  12.153  65.183  1.00  0.00    -0.262 A  
HETATM   21  C   UNL     1     -11.805  13.526  65.024  1.00  0.00    -0.377 A  
HETATM   22  C   UNL     1     -11.162  14.592  65.716  1.00  0.00    -0.336 A  
HETATM   23  C   UNL     1     -11.345  15.741  64.977  1.00  0.00    -0.220 A  
HETATM   24  N   UNL     1     -12.094  15.417  63.876  1.00  0.00    -0.981 NA 
HETATM   25  H   UNL     1     -12.383  16.071  63.149  1.00  0.00     0.000 HD 
HETATM   26  C   UNL     1     -12.396  14.083  63.902  1.00  0.00    -0.234 A  
HETATM   27  N   UNL     1     -13.134  13.450  62.978  1.00  0.00     0.394 NA 
HETATM   28  C   UNL     1     -13.269  12.142  63.258  1.00  0.00     0.436 A  
HETATM   29  N   UNL     1     -12.754  11.462  64.299  1.00  0.00     0.316 NA 
ENDBRANCH  19  20
ENDBRANCH   8  15
ENDBRANCH   3   6
ENDBRANCH   2   3
TORSDOF 6
ENDMDL
MODEL      263
REMARK 921   NORMALIZED FREE ENERGY PREDICTED BY IDOCK:   -2.85 KCAL/MOL
REMARK 922        TOTAL FREE ENERGY PREDICTED BY IDOCK:   -4.37 KCAL/MOL
REMARK 923 INTER-LIGAND FREE ENERGY PREDICTED BY IDOCK:   -3.87 KCAL/MOL
REMARK 924 INTRA-LIGAND FREE ENERGY PREDICTED BY IDOCK:   -0.50 KCAL/MOL
REMARK 927      BINDING AFFINITY PREDICTED BY RF-SCORE:    0.00 PKD
ROOT
HETATM    1  C   UNL     1     -12.728  14.312  71.815  1.00  0.00    -0.428 C  
HETATM    2  C   UNL     1     -12.561  14.340  70.310  1.00  0.00    -0.319 C  
ENDROOT
BRANCH   2   3
HETATM    3  S   UNL     1     -11.661  15.784  69.772  1.00  0.00    -0.356 S  
HETATM    4  O   UNL     1     -12.411  16.439  68.726  1.00  0.00     0.322 OA 
HETATM    5  O   UNL     1     -11.182  16.494  70.938  1.00  0.00    -0.283 OA 
BRANCH   3   6
HETATM    6  N   UNL     1     -10.336  15.029  69.050  1.00  0.00    -0.236 N  
HETATM    7  C   UNL     1     -10.016  15.027  67.593  1.00  0.00    -0.225 C  
HETATM    8  C   UNL     1      -8.514  14.748  67.930  1.00  0.00    -0.155 C  
HETATM    9  C   UNL     1      -8.898  15.285  69.347  1.00  0.00    -0.220 C  
BRANCH   8  10
HETATM   10  C   UNL     1      -7.466  15.482  67.105  1.00  0.00    -0.244 C  
BRANCH  10  11
HETATM   11  C   UNL     1      -6.828  16.620  67.885  1.00  0.00    -0.144 C  
HETATM   12  H1  UNL     1      -5.870  18.328  69.056  1.00  0.00     0.000 HD 
HETATM   13  N   UNL     1      -6.298  17.564  68.532  1.00  0.00    -0.173 NA 
HETATM   14  H2  UNL     1      -5.336  17.795  68.280  1.00  0.00     0.000 HD 
ENDBRANCH  10  11
ENDBRANCH   8  10
BRANCH   8  15
HETATM   15  N   UNL     1      -8.279  13.311  67.887  1.00  0.00    -0.149 NA 
HETATM   16  N   UNL     1      -8.545  12.609  66.762  1.00  0.00    -0.149 NA 
HETATM   17  C   UNL     1      -7.838  12.513  68.908  1.00  0.00     0.127 A  
HETATM   18  C   UNL     1      -8.266  11.348  67.095  1.00  0.00    -0.157 A  
HETATM   19  C   UNL     1      -7.829  11.223  68.425  1.00  0.00    -0.136 A  
BRANCH  19  20
HETATM   20  C   UNL     1      -7.405  10.075  69.183  1.00  0.00    -0.087 A  
HETATM   21  C   UNL     1      -7.456   8.787  68.648  1.00  0.00    -0.092 A  
HETATM   22  C   UNL     1      -7.915   8.153  67.458  1.00  0.00    -0.122 A  
HETATM   23  C   UNL     1      -7.630   6.808  67.563  1.00  0.00    -0.106 A  
HETATM   24  N   UNL     1      -7.038   6.599  68.782  1.00  0.00    -0.080 NA 
HETATM   25  H   UNL     1      -6.717   5.697  69.132  1.00  0.00     0.000 HD 
HETATM   26  C   UNL     1      -6.943   7.786  69.457  1.00  0.00    -0.058 A  
HETATM   27  N   UNL     1      -6.429   7.924  70.688  1.00  0.00    -0.037 NA 
HETATM   28  C   UNL     1      -6.465   9.203  71.102  1.00  0.00    -0.084 A  
HETATM   29  N   UNL     1      -6.923  10.276  70.432  1.00  0.00    -0.277 NA 
ENDBRANCH  19  20
ENDBRANCH   8  15
ENDBRANCH   3   6
ENDBRANCH   2   3
TORSDOF 6
ENDMDL
MODEL      264
REMARK 921   NORMALIZED FREE ENERGY PREDICTED BY IDOCK:   -2.82 KCAL/MOL
REMARK 922        TOTAL FREE ENERGY PREDICTED BY IDOCK:   -4.32 KCAL/MOL
REMARK 923 INTER-LIGAND FREE ENERGY PREDICTED BY IDOCK:   -4.13 KCAL/MOL
REMARK 924 INTRA-LIGAND FREE ENERGY PREDICTED BY IDOCK:   -0.19 KCAL/MOL
REMARK 927      BINDING AFFINITY PREDICTED BY RF-SCORE:    0.00 PKD
ROOT
HETATM    1  C   UNL     1      -6.082  17.458  67.613  1.00  0.00    -0.159 C  
HETATM    2  C   UNL     1      -6.986  16.452  66.931  1.00  0.00    -0.212 C  
ENDROOT
BRANCH   2   3
HETATM    3  S   UNL     1      -8.229  15.820  68.044  1.00  0.00    -0.143 S  
HETATM    4  O   UNL     1      -8.069  16.455  69.332  1.00  0.00    -0.190 OA 
HETATM    5  O   UNL     1      -9.499  15.789  67.353  1.00  0.00    -0.210 OA 
BRANCH   3   6
HETATM    6  N   UNL     1      -7.685  14.230  68.191  1.00  0.00    -0.128 N  
HETATM    7  C   UNL     1      -6.260  13.797  68.277  1.00  0.00    -0.110 C  
HETATM    8  C   UNL     1      -6.711  12.477  68.986  1.00  0.00    -0.098 C  
HETATM    9  C   UNL     1      -8.022  13.273  69.283  1.00  0.00     0.554 C  
BRANCH   8  10
HETATM   10  C   UNL     1      -5.854  11.977  70.141  1.00  0.00    -0.162 C  
BRANCH  10  11
HETATM   11  C   UNL     1      -5.897  12.926  71.327  1.00  0.00     0.284 C  
HETATM   12  H1  UNL     1      -5.962  14.351  73.108  1.00  0.00     0.000 HD 
HETATM   13  N   UNL     1      -5.933  13.715  72.311  1.00  0.00    -0.462 NA 
HETATM   14  H2  UNL     1      -5.798  14.703  72.098  1.00  0.00     0.000 HD 
ENDBRANCH  10  11
ENDBRANCH   8  10
BRANCH   8  15
HETATM   15  N   UNL     1      -6.869  11.433  67.982  1.00  0.00    -0.065 NA 
HETATM   16  N   UNL     1      -6.259  10.236  68.138  1.00  0.00    -0.052 NA 
HETATM   17  C   UNL     1      -7.561  11.516  66.803  1.00  0.00    -0.126 A  
HETATM   18  C   UNL     1      -6.576   9.564  67.031  1.00  0.00    -0.068 A  
HETATM   19  C   UNL     1      -7.380  10.314  66.154  1.00  0.00    -0.122 A  
BRANCH  19  20
HETATM   20  C   UNL     1      -7.965   9.982  64.882  1.00  0.00    -0.140 A  
HETATM   21  C   UNL     1      -9.109  10.628  64.413  1.00  0.00    -0.240 A  
HETATM   22  C   UNL     1     -10.046  11.593  64.882  1.00  0.00    -0.303 A  
HETATM   23  C   UNL     1     -10.959  11.816  63.873  1.00  0.00    -0.407 A  
HETATM   24  N   UNL     1     -10.624  11.005  62.819  1.00  0.00    -0.778 NA 
HETATM   25  H   UNL     1     -11.124  10.959  61.931  1.00  0.00     0.000 HD 
HETATM   26  C   UNL     1      -9.517  10.267  63.140  1.00  0.00    -0.298 A  
HETATM   27  N   UNL     1      -8.944   9.361  62.333  1.00  0.00    -0.260 NA 
HETATM   28  C   UNL     1      -7.874   8.788  62.909  1.00  0.00    -0.136 A  
HETATM   29  N   UNL     1      -7.356   9.037  64.126  1.00  0.00    -0.101 NA 
ENDBRANCH  19  20
ENDBRANCH   8  15
ENDBRANCH   3   6
ENDBRANCH   2   3
TORSDOF 6
ENDMDL
MODEL      265
REMARK 921   NORMALIZED FREE ENERGY PREDICTED BY IDOCK:   -2.77 KCAL/MOL
REMARK 922        TOTAL FREE ENERGY PREDICTED BY IDOCK:   -4.25 KCAL/MOL
REMARK 923 INTER-LIGAND FREE ENERGY PREDICTED BY IDOCK:   -5.33 KCAL/MOL
REMARK 924 INTRA-LIGAND FREE ENERGY PREDICTED BY IDOCK:    1.07 KCAL/MOL
REMARK 927      BINDING AFFINITY PREDICTED BY RF-SCORE:    0.00 PKD
ROOT
HETATM    1  C   UNL     1      -8.244   5.520  67.689  1.00  0.00    -0.101 C  
HETATM    2  C   UNL     1      -8.992   5.745  68.986  1.00  0.00    -0.117 C  
ENDROOT
BRANCH   2   3
HETATM    3  S   UNL     1      -8.085   6.808  70.096  1.00  0.00    -0.130 S  
HETATM    4  O   UNL     1      -8.442   6.477  71.455  1.00  0.00    -0.124 OA 
HETATM    5  O   UNL     1      -6.709   6.874  69.655  1.00  0.00    -0.047 OA 
BRANCH   3   6
HETATM    6  N   UNL     1      -8.816   8.282  69.723  1.00  0.00    -0.141 N  
HETATM    7  C   UNL     1     -10.263   8.491  69.423  1.00  0.00    -0.211 C  
HETATM    8  C   UNL     1     -10.126   9.993  69.842  1.00  0.00    -0.246 C  
HETATM    9  C   UNL     1      -8.836   9.504  70.577  1.00  0.00    -0.201 C  
BRANCH   8  10
HETATM   10  C   UNL     1     -11.267  10.600  70.646  1.00  0.00    -0.182 C  
BRANCH  10  11
HETATM   11  C   UNL     1     -11.892  11.787  69.932  1.00  0.00    -0.348 C  
HETATM   12  H1  UNL     1     -12.828  13.570  68.860  1.00  0.00     0.000 HD 
HETATM   13  N   UNL     1     -12.409  12.773  69.339  1.00  0.00    -0.040 NA 
HETATM   14  H2  UNL     1     -12.084  12.942  68.386  1.00  0.00     0.000 HD 
ENDBRANCH  10  11
ENDBRANCH   8  10
BRANCH   8  15
HETATM   15  N   UNL     1      -9.861  10.791  68.653  1.00  0.00    -0.176 NA 
HETATM   16  N   UNL     1      -8.614  11.246  68.398  1.00  0.00    -0.150 NA 
HETATM   17  C   UNL     1     -10.771  11.209  67.718  1.00  0.00    -0.222 A  
HETATM   18  C   UNL     1      -8.753  11.965  67.283  1.00  0.00    -0.171 A  
HETATM   19  C   UNL     1     -10.079  11.987  66.815  1.00  0.00    -0.223 A  
BRANCH  19  20
HETATM   20  C   UNL     1     -10.668  12.604  65.656  1.00  0.00    -0.269 A  
HETATM   21  C   UNL     1     -10.532  13.971  65.409  1.00  0.00    -0.365 A  
HETATM   22  C   UNL     1      -9.980  15.114  66.055  1.00  0.00    -0.335 A  
HETATM   23  C   UNL     1     -10.171  16.198  65.226  1.00  0.00    -0.170 A  
HETATM   24  N   UNL     1     -10.840  15.760  64.112  1.00  0.00    -0.550 NA 
HETATM   25  H   UNL     1     -11.115  16.346  63.324  1.00  0.00     0.000 HD 
HETATM   26  C   UNL     1     -11.081  14.417  64.218  1.00  0.00    -0.044 A  
HETATM   27  N   UNL     1     -11.735  13.685  63.303  1.00  0.00     0.045 NA 
HETATM   28  C   UNL     1     -11.826  12.396  63.671  1.00  0.00    -0.526 A  
HETATM   29  N   UNL     1     -11.342  11.817  64.785  1.00  0.00    -0.284 NA 
ENDBRANCH  19  20
ENDBRANCH   8  15
ENDBRANCH   3   6
ENDBRANCH   2   3
TORSDOF 6
ENDMDL
MODEL      266
REMARK 921   NORMALIZED FREE ENERGY PREDICTED BY IDOCK:   -2.76 KCAL/MOL
REMARK 922        TOTAL FREE ENERGY PREDICTED BY IDOCK:   -4.24 KCAL/MOL
REMARK 923 INTER-LIGAND FREE ENERGY PREDICTED BY IDOCK:   -3.94 KCAL/MOL
REMARK 924 INTRA-LIGAND FREE ENERGY PREDICTED BY IDOCK:   -0.31 KCAL/MOL
REMARK 927      BINDING AFFINITY PREDICTED BY RF-SCORE:    0.00 PKD
ROOT
HETATM    1  C   UNL     1      -7.871   3.168  66.876  1.00  0.00    -0.079 C  
HETATM    2  C   UNL     1      -7.472   4.211  67.899  1.00  0.00    -0.068 C  
ENDROOT
BRANCH   2   3
HETATM    3  S   UNL     1      -6.273   5.357  67.240  1.00  0.00    -0.032 S  
HETATM    4  O   UNL     1      -5.179   5.476  68.175  1.00  0.00    -0.003 OA 
HETATM    5  O   UNL     1      -6.062   5.056  65.841  1.00  0.00    -0.028 OA 
BRANCH   3   6
HETATM    6  N   UNL     1      -7.175   6.780  67.330  1.00  0.00    -0.083 N  
HETATM    7  C   UNL     1      -7.840   7.468  66.186  1.00  0.00    -0.096 C  
HETATM    8  C   UNL     1      -8.833   8.152  67.184  1.00  0.00    -0.131 C  
HETATM    9  C   UNL     1      -8.397   7.007  68.153  1.00  0.00    -0.123 C  
BRANCH   8  10
HETATM   10  C   UNL     1     -10.290   8.261  66.753  1.00  0.00    -0.361 C  
BRANCH  10  11
HETATM   11  C   UNL     1     -10.952   6.897  66.651  1.00  0.00     0.079 C  
HETATM   12  H1  UNL     1     -11.947   4.850  66.499  1.00  0.00     0.000 HD 
HETATM   13  N   UNL     1     -11.503   5.765  66.568  1.00  0.00    -0.358 NA 
HETATM   14  H2  UNL     1     -12.410   5.674  67.026  1.00  0.00     0.000 HD 
ENDBRANCH  10  11
ENDBRANCH   8  10
BRANCH   8  15
HETATM   15  N   UNL     1      -8.311   9.463  67.545  1.00  0.00    -0.121 NA 
HETATM   16  N   UNL     1      -7.359   9.581  68.498  1.00  0.00    -0.078 NA 
HETATM   17  C   UNL     1      -8.707  10.677  67.050  1.00  0.00    -0.128 A  
HETATM   18  C   UNL     1      -7.164  10.896  68.599  1.00  0.00    -0.088 A  
HETATM   19  C   UNL     1      -7.983  11.634  67.726  1.00  0.00    -0.131 A  
BRANCH  19  20
HETATM   20  C   UNL     1      -8.086  13.049  67.487  1.00  0.00    -0.179 A  
HETATM   21  C   UNL     1      -9.314  13.660  67.231  1.00  0.00    -0.233 A  
HETATM   22  C   UNL     1     -10.671  13.269  67.041  1.00  0.00    -0.263 A  
HETATM   23  C   UNL     1     -11.413  14.414  66.843  1.00  0.00    -0.366 A  
HETATM   24  N   UNL     1     -10.554  15.482  66.883  1.00  0.00    -0.304 NA 
HETATM   25  H   UNL     1     -10.825  16.459  66.769  1.00  0.00     0.000 HD 
HETATM   26  C   UNL     1      -9.278  15.038  67.099  1.00  0.00    -0.216 A  
HETATM   27  N   UNL     1      -8.197  15.830  67.171  1.00  0.00    -0.187 NA 
HETATM   28  C   UNL     1      -7.075  15.122  67.389  1.00  0.00    -0.187 A  
HETATM   29  N   UNL     1      -6.954  13.791  67.545  1.00  0.00    -0.172 NA 
ENDBRANCH  19  20
ENDBRANCH   8  15
ENDBRANCH   3   6
ENDBRANCH   2   3
TORSDOF 6
ENDMDL
MODEL      267
REMARK 921   NORMALIZED FREE ENERGY PREDICTED BY IDOCK:   -2.71 KCAL/MOL
REMARK 922        TOTAL FREE ENERGY PREDICTED BY IDOCK:   -4.17 KCAL/MOL
REMARK 923 INTER-LIGAND FREE ENERGY PREDICTED BY IDOCK:   -3.27 KCAL/MOL
REMARK 924 INTRA-LIGAND FREE ENERGY PREDICTED BY IDOCK:   -0.90 KCAL/MOL
REMARK 927      BINDING AFFINITY PREDICTED BY RF-SCORE:    0.00 PKD
ROOT
HETATM    1  C   UNL     1      -8.529   2.785  70.781  1.00  0.00    -0.091 C  
HETATM    2  C   UNL     1      -9.111   3.336  69.496  1.00  0.00    -0.133 C  
ENDROOT
BRANCH   2   3
HETATM    3  S   UNL     1      -8.587   2.391  68.076  1.00  0.00    -0.096 S  
HETATM    4  O   UNL     1      -7.225   1.955  68.281  1.00  0.00    -0.043 OA 
HETATM    5  O   UNL     1      -9.644   1.472  67.713  1.00  0.00    -0.124 OA 
BRANCH   3   6
HETATM    6  N   UNL     1      -8.557   3.621  66.922  1.00  0.00    -0.106 N  
HETATM    7  C   UNL     1      -7.740   3.631  65.674  1.00  0.00    -0.085 C  
HETATM    8  C   UNL     1      -8.746   4.645  65.032  1.00  0.00    -0.143 C  
HETATM    9  C   UNL     1      -9.720   4.137  66.144  1.00  0.00    -0.205 C  
BRANCH   8  10
HETATM   10  C   UNL     1      -9.102   4.441  63.566  1.00  0.00    -0.132 C  
BRANCH  10  11
HETATM   11  C   UNL     1      -9.252   2.968  63.221  1.00  0.00    -0.094 C  
HETATM   12  H1  UNL     1      -9.476   0.758  62.704  1.00  0.00     0.000 HD 
HETATM   13  N   UNL     1      -9.377   1.746  62.935  1.00  0.00    -0.089 NA 
HETATM   14  H2  UNL     1     -10.329   1.380  62.942  1.00  0.00     0.000 HD 
ENDBRANCH  10  11
ENDBRANCH   8  10
BRANCH   8  15
HETATM   15  N   UNL     1      -8.255   5.999  65.252  1.00  0.00    -0.134 NA 
HETATM   16  N   UNL     1      -7.026   6.359  64.819  1.00  0.00    -0.050 NA 
HETATM   17  C   UNL     1      -8.891   7.013  65.918  1.00  0.00    -0.103 A  
HETATM   18  C   UNL     1      -6.895   7.622  65.228  1.00  0.00    -0.048 A  
HETATM   19  C   UNL     1      -8.024   8.083  65.928  1.00  0.00    -0.107 A  
BRANCH  19  20
HETATM   20  C   UNL     1      -8.321   9.363  66.516  1.00  0.00    -0.119 A  
HETATM   21  C   UNL     1      -8.013   9.644  67.848  1.00  0.00    -0.098 A  
HETATM   22  C   UNL     1      -7.490   8.958  68.980  1.00  0.00    -0.074 A  
HETATM   23  C   UNL     1      -7.417   9.860  70.020  1.00  0.00    -0.168 A  
HETATM   24  N   UNL     1      -7.899  11.061  69.567  1.00  0.00    -0.374 NA 
HETATM   25  H   UNL     1      -7.963  11.915  70.121  1.00  0.00     0.000 HD 
HETATM   26  C   UNL     1      -8.281  10.940  68.259  1.00  0.00    -0.127 A  
HETATM   27  N   UNL     1      -8.813  11.929  67.525  1.00  0.00    -0.162 NA 
HETATM   28  C   UNL     1      -9.093  11.524  66.274  1.00  0.00    -0.208 A  
HETATM   29  N   UNL     1      -8.886  10.311  65.731  1.00  0.00    -0.155 NA 
ENDBRANCH  19  20
ENDBRANCH   8  15
ENDBRANCH   3   6
ENDBRANCH   2   3
TORSDOF 6
ENDMDL
MODEL      268
REMARK 921   NORMALIZED FREE ENERGY PREDICTED BY IDOCK:   -2.68 KCAL/MOL
REMARK 922        TOTAL FREE ENERGY PREDICTED BY IDOCK:   -4.13 KCAL/MOL
REMARK 923 INTER-LIGAND FREE ENERGY PREDICTED BY IDOCK:   -3.23 KCAL/MOL
REMARK 924 INTRA-LIGAND FREE ENERGY PREDICTED BY IDOCK:   -0.90 KCAL/MOL
REMARK 927      BINDING AFFINITY PREDICTED BY RF-SCORE:    0.00 PKD
ROOT
HETATM    1  C   UNL     1     -10.331   8.141  66.495  1.00  0.00    -0.162 C  
HETATM    2  C   UNL     1      -9.105   8.443  67.332  1.00  0.00    -0.137 C  
ENDROOT
BRANCH   2   3
HETATM    3  S   UNL     1      -7.604   7.931  66.514  1.00  0.00    -0.094 S  
HETATM    4  O   UNL     1      -7.888   7.709  65.115  1.00  0.00    -0.108 OA 
HETATM    5  O   UNL     1      -6.521   8.782  66.955  1.00  0.00    -0.059 OA 
BRANCH   3   6
HETATM    6  N   UNL     1      -7.399   6.420  67.235  1.00  0.00    -0.085 N  
HETATM    7  C   UNL     1      -8.172   5.185  66.916  1.00  0.00    -0.108 C  
HETATM    8  C   UNL     1      -6.995   4.314  67.470  1.00  0.00    -0.063 C  
HETATM    9  C   UNL     1      -6.148   5.610  67.258  1.00  0.00    -0.029 C  
BRANCH   8  10
HETATM   10  C   UNL     1      -6.642   3.048  66.701  1.00  0.00    -0.037 C  
BRANCH  10  11
HETATM   11  C   UNL     1      -7.884   2.281  66.276  1.00  0.00    -0.076 C  
HETATM   12  H1  UNL     1      -9.748   1.130  65.638  1.00  0.00     0.000 HD 
HETATM   13  N   UNL     1      -8.914   1.644  65.923  1.00  0.00    -0.175 NA 
HETATM   14  H2  UNL     1      -8.767   0.672  65.651  1.00  0.00     0.000 HD 
ENDBRANCH  10  11
ENDBRANCH   8  10
BRANCH   8  15
HETATM   15  N   UNL     1      -7.258   4.002  68.868  1.00  0.00    -0.054 NA 
HETATM   16  N   UNL     1      -6.248   3.632  69.688  1.00  0.00    -0.027 NA 
HETATM   17  C   UNL     1      -8.473   3.989  69.500  1.00  0.00    -0.060 A  
HETATM   18  C   UNL     1      -6.851   3.381  70.851  1.00  0.00    -0.033 A  
HETATM   19  C   UNL     1      -8.242   3.578  70.794  1.00  0.00    -0.081 A  
BRANCH  19  20
HETATM   20  C   UNL     1      -9.262   3.451  71.801  1.00  0.00    -0.120 A  
HETATM   21  C   UNL     1      -9.996   4.554  72.240  1.00  0.00    -0.239 A  
HETATM   22  C   UNL     1     -10.016   5.963  72.030  1.00  0.00    -0.204 A  
HETATM   23  C   UNL     1     -11.047   6.483  72.782  1.00  0.00    -0.245 A  
HETATM   24  N   UNL     1     -11.638   5.447  73.458  1.00  0.00    -0.382 NA 
HETATM   25  H   UNL     1     -12.433   5.535  74.092  1.00  0.00     0.000 HD 
HETATM   26  C   UNL     1     -10.999   4.275  73.153  1.00  0.00    -0.211 A  
HETATM   27  N   UNL     1     -11.320   3.077  73.663  1.00  0.00    -0.211 NA 
HETATM   28  C   UNL     1     -10.523   2.104  73.188  1.00  0.00    -0.134 A  
HETATM   29  N   UNL     1      -9.519   2.218  72.299  1.00  0.00    -0.092 NA 
ENDBRANCH  19  20
ENDBRANCH   8  15
ENDBRANCH   3   6
ENDBRANCH   2   3
TORSDOF 6
ENDMDL
MODEL      269
REMARK 921   NORMALIZED FREE ENERGY PREDICTED BY IDOCK:   -2.67 KCAL/MOL
REMARK 922        TOTAL FREE ENERGY PREDICTED BY IDOCK:   -4.11 KCAL/MOL
REMARK 923 INTER-LIGAND FREE ENERGY PREDICTED BY IDOCK:   -3.33 KCAL/MOL
REMARK 924 INTRA-LIGAND FREE ENERGY PREDICTED BY IDOCK:   -0.79 KCAL/MOL
REMARK 927      BINDING AFFINITY PREDICTED BY RF-SCORE:    0.00 PKD
ROOT
HETATM    1  C   UNL     1      -7.854  14.686  68.794  1.00  0.00    -0.146 C  
HETATM    2  C   UNL     1      -8.541  13.963  67.654  1.00  0.00    -0.190 C  
ENDROOT
BRANCH   2   3
HETATM    3  S   UNL     1     -10.241  13.583  68.042  1.00  0.00    -0.248 S  
HETATM    4  O   UNL     1     -10.589  14.222  69.290  1.00  0.00    -0.223 OA 
HETATM    5  O   UNL     1     -11.038  13.744  66.846  1.00  0.00    -0.294 OA 
BRANCH   3   6
HETATM    6  N   UNL     1     -10.092  11.930  68.343  1.00  0.00    -0.203 N  
HETATM    7  C   UNL     1      -9.654  11.310  69.627  1.00  0.00     0.716 C  
HETATM    8  C   UNL     1     -10.392   9.987  69.232  1.00  0.00    -0.219 C  
HETATM    9  C   UNL     1     -11.172  10.907  68.238  1.00  0.00    -0.286 C  
BRANCH   8  10
HETATM   10  C   UNL     1     -11.147   9.254  70.332  1.00  0.00    -0.300 C  
BRANCH  10  11
HETATM   11  C   UNL     1     -10.207   8.487  71.248  1.00  0.00    -0.223 C  
HETATM   12  H1  UNL     1      -8.796   7.337  72.622  1.00  0.00     0.000 HD 
HETATM   13  N   UNL     1      -9.427   7.852  72.008  1.00  0.00    -0.162 NA 
HETATM   14  H2  UNL     1      -9.245   8.276  72.918  1.00  0.00     0.000 HD 
ENDBRANCH  10  11
ENDBRANCH   8  10
BRANCH   8  15
HETATM   15  N   UNL     1      -9.441   9.092  68.586  1.00  0.00    -0.143 NA 
HETATM   16  N   UNL     1      -8.112   9.260  68.766  1.00  0.00    -0.103 NA 
HETATM   17  C   UNL     1      -9.725   8.062  67.729  1.00  0.00    -0.156 A  
HETATM   18  C   UNL     1      -7.559   8.316  68.003  1.00  0.00    -0.102 A  
HETATM   19  C   UNL     1      -8.516   7.542  67.323  1.00  0.00    -0.118 A  
BRANCH  19  20
HETATM   20  C   UNL     1      -8.372   6.422  66.430  1.00  0.00    -0.119 A  
HETATM   21  C   UNL     1      -8.291   5.113  66.907  1.00  0.00    -0.107 A  
HETATM   22  C   UNL     1      -8.231   4.447  68.164  1.00  0.00    -0.090 A  
HETATM   23  C   UNL     1      -8.184   3.091  67.918  1.00  0.00    -0.078 A  
HETATM   24  N   UNL     1      -8.189   2.912  66.559  1.00  0.00    -0.085 NA 
HETATM   25  H   UNL     1      -8.163   2.009  66.085  1.00  0.00     0.000 HD 
HETATM   26  C   UNL     1      -8.235   4.129  65.934  1.00  0.00    -0.109 A  
HETATM   27  N   UNL     1      -8.232   4.303  64.604  1.00  0.00    -0.101 NA 
HETATM   28  C   UNL     1      -8.282   5.605  64.273  1.00  0.00    -0.117 A  
HETATM   29  N   UNL     1      -8.346   6.667  65.098  1.00  0.00    -0.122 NA 
ENDBRANCH  19  20
ENDBRANCH   8  15
ENDBRANCH   3   6
ENDBRANCH   2   3
TORSDOF 6
ENDMDL
MODEL      270
REMARK 921   NORMALIZED FREE ENERGY PREDICTED BY IDOCK:   -2.64 KCAL/MOL
REMARK 922        TOTAL FREE ENERGY PREDICTED BY IDOCK:   -4.08 KCAL/MOL
REMARK 923 INTER-LIGAND FREE ENERGY PREDICTED BY IDOCK:   -4.22 KCAL/MOL
REMARK 924 INTRA-LIGAND FREE ENERGY PREDICTED BY IDOCK:    0.14 KCAL/MOL
REMARK 927      BINDING AFFINITY PREDICTED BY RF-SCORE:    0.00 PKD
ROOT
HETATM    1  C   UNL     1      -7.853  14.686  68.799  1.00  0.00    -0.146 C  
HETATM    2  C   UNL     1      -8.482  13.863  67.695  1.00  0.00    -0.192 C  
ENDROOT
BRANCH   2   3
HETATM    3  S   UNL     1     -10.176  13.442  68.068  1.00  0.00    -0.249 S  
HETATM    4  O   UNL     1     -10.550  14.071  69.314  1.00  0.00    -0.186 OA 
HETATM    5  O   UNL     1     -10.967  13.586  66.866  1.00  0.00    -0.283 OA 
BRANCH   3   6
HETATM    6  N   UNL     1      -9.990  11.793  68.368  1.00  0.00    -0.200 N  
HETATM    7  C   UNL     1     -10.877  10.705  67.860  1.00  0.00    -0.277 C  
HETATM    8  C   UNL     1      -9.705   9.681  68.028  1.00  0.00    -0.146 C  
HETATM    9  C   UNL     1      -8.802  10.957  68.030  1.00  0.00    -0.135 C  
BRANCH   8  10
HETATM   10  C   UNL     1      -9.530   8.636  66.935  1.00  0.00    -0.235 C  
BRANCH  10  11
HETATM   11  C   UNL     1      -8.762   7.422  67.433  1.00  0.00    -0.121 C  
HETATM   12  H1  UNL     1      -7.608   5.601  68.179  1.00  0.00     0.000 HD 
HETATM   13  N   UNL     1      -8.123   6.416  67.845  1.00  0.00    -0.114 NA 
HETATM   14  H2  UNL     1      -7.120   6.414  67.655  1.00  0.00     0.000 HD 
ENDBRANCH  10  11
ENDBRANCH   8  10
BRANCH   8  15
HETATM   15  N   UNL     1      -9.823   9.039  69.330  1.00  0.00    -0.178 NA 
HETATM   16  N   UNL     1     -11.004   9.038  69.988  1.00  0.00    -0.233 NA 
HETATM   17  C   UNL     1      -8.826   8.433  70.048  1.00  0.00    -0.137 A  
HETATM   18  C   UNL     1     -10.733   8.422  71.140  1.00  0.00    -0.230 A  
HETATM   19  C   UNL     1      -9.387   8.029  71.240  1.00  0.00    -0.182 A  
BRANCH  19  20
HETATM   20  C   UNL     1      -8.676   7.327  72.275  1.00  0.00    -0.119 A  
HETATM   21  C   UNL     1      -8.240   6.012  72.100  1.00  0.00    -0.111 A  
HETATM   22  C   UNL     1      -8.345   4.985  71.119  1.00  0.00    -0.115 A  
HETATM   23  C   UNL     1      -7.637   3.894  71.577  1.00  0.00    -0.060 A  
HETATM   24  N   UNL     1      -7.127   4.213  72.809  1.00  0.00    -0.060 NA 
HETATM   25  H   UNL     1      -6.556   3.596  73.386  1.00  0.00     0.000 HD 
HETATM   26  C   UNL     1      -7.500   5.486  73.146  1.00  0.00    -0.096 A  
HETATM   27  N   UNL     1      -7.180   6.095  74.298  1.00  0.00    -0.087 NA 
HETATM   28  C   UNL     1      -7.683   7.340  74.358  1.00  0.00    -0.134 A  
HETATM   29  N   UNL     1      -8.409   7.986  73.427  1.00  0.00    -0.199 NA 
ENDBRANCH  19  20
ENDBRANCH   8  15
ENDBRANCH   3   6
ENDBRANCH   2   3
TORSDOF 6
ENDMDL
MODEL      271
REMARK 921   NORMALIZED FREE ENERGY PREDICTED BY IDOCK:   -2.36 KCAL/MOL
REMARK 922        TOTAL FREE ENERGY PREDICTED BY IDOCK:   -3.69 KCAL/MOL
REMARK 923 INTER-LIGAND FREE ENERGY PREDICTED BY IDOCK:   -3.31 KCAL/MOL
REMARK 924 INTRA-LIGAND FREE ENERGY PREDICTED BY IDOCK:   -0.39 KCAL/MOL
REMARK 927      BINDING AFFINITY PREDICTED BY RF-SCORE:    0.00 PKD
ROOT
HETATM    1  C   UNL     1      -6.935   3.833  72.876  1.00  0.00    -0.048 C  
HETATM    2  C   UNL     1      -6.400   4.173  71.501  1.00  0.00    -0.018 C  
ENDROOT
BRANCH   2   3
HETATM    3  S   UNL     1      -7.208   3.224  70.224  1.00  0.00    -0.041 S  
HETATM    4  O   UNL     1      -6.220   2.424  69.540  1.00  0.00    -0.024 OA 
HETATM    5  O   UNL     1      -8.421   2.652  70.768  1.00  0.00    -0.052 OA 
BRANCH   3   6
HETATM    6  N   UNL     1      -7.652   4.479  69.188  1.00  0.00    -0.056 N  
HETATM    7  C   UNL     1      -6.717   5.377  68.450  1.00  0.00    -0.054 C  
HETATM    8  C   UNL     1      -7.840   5.673  67.401  1.00  0.00    -0.101 C  
HETATM    9  C   UNL     1      -8.482   4.360  67.954  1.00  0.00    -0.098 C  
BRANCH   8  10
HETATM   10  C   UNL     1      -7.425   5.751  65.938  1.00  0.00    -0.078 C  
BRANCH  10  11
HETATM   11  C   UNL     1      -7.810   4.494  65.174  1.00  0.00    -0.090 C  
HETATM   12  H1  UNL     1      -8.389   2.608  64.029  1.00  0.00     0.000 HD 
HETATM   13  N   UNL     1      -8.130   3.452  64.540  1.00  0.00    -0.086 NA 
HETATM   14  H2  UNL     1      -8.496   3.596  63.599  1.00  0.00     0.000 HD 
ENDBRANCH  10  11
ENDBRANCH   8  10
BRANCH   8  15
HETATM   15  N   UNL     1      -8.544   6.886  67.794  1.00  0.00    -0.122 NA 
HETATM   16  N   UNL     1      -9.793   6.817  68.306  1.00  0.00    -0.140 NA 
HETATM   17  C   UNL     1      -8.103   8.177  67.669  1.00  0.00    -0.127 A  
HETATM   18  C   UNL     1     -10.136   8.091  68.499  1.00  0.00    -0.199 A  
HETATM   19  C   UNL     1      -9.125   8.988  68.112  1.00  0.00    -0.134 A  
BRANCH  19  20
HETATM   20  C   UNL     1      -9.056  10.424  68.166  1.00  0.00    -0.142 A  
HETATM   21  C   UNL     1     -10.139  11.192  68.595  1.00  0.00    -0.208 A  
HETATM   22  C   UNL     1     -11.493  10.986  68.986  1.00  0.00    -0.368 A  
HETATM   23  C   UNL     1     -12.023  12.212  69.326  1.00  0.00    -0.262 A  
HETATM   24  N   UNL     1     -11.048  13.157  69.133  1.00  0.00    -0.375 NA 
HETATM   25  H   UNL     1     -11.156  14.157  69.307  1.00  0.00     0.000 HD 
HETATM   26  C   UNL     1      -9.908  12.556  68.673  1.00  0.00    -0.075 A  
HETATM   27  N   UNL     1      -8.775  13.204  68.366  1.00  0.00    -0.156 NA 
HETATM   28  C   UNL     1      -7.820  12.360  67.938  1.00  0.00    -0.145 A  
HETATM   29  N   UNL     1      -7.892  11.022  67.814  1.00  0.00    -0.108 NA 
ENDBRANCH  19  20
ENDBRANCH   8  15
ENDBRANCH   3   6
ENDBRANCH   2   3
TORSDOF 6
ENDMDL
MODEL      272
REMARK 921   NORMALIZED FREE ENERGY PREDICTED BY IDOCK:   -2.30 KCAL/MOL
REMARK 922        TOTAL FREE ENERGY PREDICTED BY IDOCK:   -3.62 KCAL/MOL
REMARK 923 INTER-LIGAND FREE ENERGY PREDICTED BY IDOCK:   -3.05 KCAL/MOL
REMARK 924 INTRA-LIGAND FREE ENERGY PREDICTED BY IDOCK:   -0.57 KCAL/MOL
REMARK 927      BINDING AFFINITY PREDICTED BY RF-SCORE:    0.00 PKD
ROOT
HETATM    1  C   UNL     1      -5.258   6.401  64.408  1.00  0.00    -0.021 C  
HETATM    2  C   UNL     1      -6.115   5.449  63.601  1.00  0.00    -0.022 C  
ENDROOT
BRANCH   2   3
HETATM    3  S   UNL     1      -7.803   5.428  64.180  1.00  0.00    -0.110 S  
HETATM    4  O   UNL     1      -8.679   5.183  63.058  1.00  0.00    -0.127 OA 
HETATM    5  O   UNL     1      -7.869   4.645  65.394  1.00  0.00    -0.088 OA 
BRANCH   3   6
HETATM    6  N   UNL     1      -7.968   7.052  64.606  1.00  0.00    -0.125 N  
HETATM    7  C   UNL     1      -8.323   8.168  63.682  1.00  0.00     0.013 C  
HETATM    8  C   UNL     1      -8.845   9.001  64.901  1.00  0.00    -0.148 C  
HETATM    9  C   UNL     1      -8.909   7.614  65.618  1.00  0.00    -0.050 C  
BRANCH   8  10
HETATM   10  C   UNL     1     -10.123   9.805  64.700  1.00  0.00     0.306 C  
BRANCH  10  11
HETATM   11  C   UNL     1      -9.857  11.116  63.978  1.00  0.00    -0.302 C  
HETATM   12  H1  UNL     1      -9.458  13.084  62.896  1.00  0.00     0.000 HD 
HETATM   13  N   UNL     1      -9.636  12.204  63.380  1.00  0.00    -0.671 NA 
HETATM   14  H2  UNL     1      -9.450  13.012  63.976  1.00  0.00     0.000 HD 
ENDBRANCH  10  11
ENDBRANCH   8  10
BRANCH   8  15
HETATM   15  N   UNL     1      -7.772   9.863  65.377  1.00  0.00    -0.124 NA 
HETATM   16  N   UNL     1      -6.616   9.963  64.683  1.00  0.00    -0.113 NA 
HETATM   17  C   UNL     1      -7.755  10.604  66.529  1.00  0.00    -0.137 A  
HETATM   18  C   UNL     1      -5.864  10.779  65.422  1.00  0.00    -0.079 A  
HETATM   19  C   UNL     1      -6.517  11.206  66.592  1.00  0.00    -0.134 A  
BRANCH  19  20
HETATM   20  C   UNL     1      -6.099  12.093  67.645  1.00  0.00    -0.110 A  
HETATM   21  C   UNL     1      -6.089  11.689  68.981  1.00  0.00    -0.057 A  
HETATM   22  C   UNL     1      -6.474  10.549  69.744  1.00  0.00    -0.102 A  
HETATM   23  C   UNL     1      -6.158  10.802  71.062  1.00  0.00     0.169 A  
HETATM   24  N   UNL     1      -5.619  12.060  71.130  1.00  0.00    -0.374 NA 
HETATM   25  H   UNL     1      -5.290  12.514  71.982  1.00  0.00     0.000 HD 
HETATM   26  C   UNL     1      -5.588  12.616  69.879  1.00  0.00    -0.111 A  
HETATM   27  N   UNL     1      -5.137  13.849  69.603  1.00  0.00    -0.084 NA 
HETATM   28  C   UNL     1      -5.227  14.130  68.292  1.00  0.00    -0.112 A  
HETATM   29  N   UNL     1      -5.682  13.336  67.305  1.00  0.00    -0.334 NA 
ENDBRANCH  19  20
ENDBRANCH   8  15
ENDBRANCH   3   6
ENDBRANCH   2   3
TORSDOF 6
ENDMDL
MODEL      273
REMARK 921   NORMALIZED FREE ENERGY PREDICTED BY IDOCK:   -2.07 KCAL/MOL
REMARK 922        TOTAL FREE ENERGY PREDICTED BY IDOCK:   -3.31 KCAL/MOL
REMARK 923 INTER-LIGAND FREE ENERGY PREDICTED BY IDOCK:   -3.68 KCAL/MOL
REMARK 924 INTRA-LIGAND FREE ENERGY PREDICTED BY IDOCK:    0.37 KCAL/MOL
REMARK 927      BINDING AFFINITY PREDICTED BY RF-SCORE:    0.00 PKD
ROOT
HETATM    1  C   UNL     1     -11.549   6.840  72.452  1.00  0.00    -0.284 C  
HETATM    2  C   UNL     1     -11.811   8.297  72.771  1.00  0.00    -0.205 C  
ENDROOT
BRANCH   2   3
HETATM    3  S   UNL     1     -12.449   9.179  71.357  1.00  0.00    -0.326 S  
HETATM    4  O   UNL     1     -13.624   8.495  70.871  1.00  0.00     0.063 OA 
HETATM    5  O   UNL     1     -12.449  10.595  71.653  1.00  0.00    -0.373 OA 
BRANCH   3   6
HETATM    6  N   UNL     1     -11.200   8.883  70.262  1.00  0.00    -0.232 N  
HETATM    7  C   UNL     1      -9.799   8.508  70.612  1.00  0.00    -0.186 C  
HETATM    8  C   UNL     1      -9.626   7.862  69.197  1.00  0.00    -0.153 C  
HETATM    9  C   UNL     1     -11.188   7.850  69.187  1.00  0.00     0.330 C  
BRANCH   8  10
HETATM   10  C   UNL     1      -8.861   6.548  69.119  1.00  0.00    -0.128 C  
BRANCH  10  11
HETATM   11  C   UNL     1      -8.367   6.265  67.709  1.00  0.00    -0.117 C  
HETATM   12  H1  UNL     1      -7.626   5.841  65.594  1.00  0.00     0.000 HD 
HETATM   13  N   UNL     1      -7.958   6.031  66.540  1.00  0.00    -0.104 NA 
HETATM   14  H2  UNL     1      -8.459   6.505  65.787  1.00  0.00     0.000 HD 
ENDBRANCH  10  11
ENDBRANCH   8  10
BRANCH   8  15
HETATM   15  N   UNL     1      -9.037   8.846  68.299  1.00  0.00    -0.140 NA 
HETATM   16  N   UNL     1      -9.071   8.658  66.961  1.00  0.00    -0.134 NA 
HETATM   17  C   UNL     1      -8.371   9.991  68.648  1.00  0.00    -0.116 A  
HETATM   18  C   UNL     1      -8.409   9.707  66.469  1.00  0.00    -0.120 A  
HETATM   19  C   UNL     1      -7.940  10.570  67.475  1.00  0.00    -0.107 A  
BRANCH  19  20
HETATM   20  C   UNL     1      -7.213  11.810  67.400  1.00  0.00    -0.133 A  
HETATM   21  C   UNL     1      -7.870  13.042  67.375  1.00  0.00    -0.166 A  
HETATM   22  C   UNL     1      -9.209  13.526  67.328  1.00  0.00    -0.233 A  
HETATM   23  C   UNL     1      -9.157  14.903  67.351  1.00  0.00    -0.189 A  
HETATM   24  N   UNL     1      -7.837  15.272  67.387  1.00  0.00    -0.177 NA 
HETATM   25  H   UNL     1      -7.496  16.233  67.412  1.00  0.00     0.000 HD 
HETATM   26  C   UNL     1      -7.046  14.155  67.383  1.00  0.00    -0.077 A  
HETATM   27  N   UNL     1      -5.705  14.170  67.393  1.00  0.00    -0.315 NA 
HETATM   28  C   UNL     1      -5.193  12.927  67.384  1.00  0.00     0.025 A  
HETATM   29  N   UNL     1      -5.860  11.758  67.383  1.00  0.00    -0.088 NA 
ENDBRANCH  19  20
ENDBRANCH   8  15
ENDBRANCH   3   6
ENDBRANCH   2   3
TORSDOF 6
ENDMDL
MODEL      274
REMARK 921   NORMALIZED FREE ENERGY PREDICTED BY IDOCK:   -1.97 KCAL/MOL
REMARK 922        TOTAL FREE ENERGY PREDICTED BY IDOCK:   -3.17 KCAL/MOL
REMARK 923 INTER-LIGAND FREE ENERGY PREDICTED BY IDOCK:   -2.30 KCAL/MOL
REMARK 924 INTRA-LIGAND FREE ENERGY PREDICTED BY IDOCK:   -0.87 KCAL/MOL
REMARK 927      BINDING AFFINITY PREDICTED BY RF-SCORE:    0.00 PKD
ROOT
HETATM    1  C   UNL     1      -7.276  14.219  67.956  1.00  0.00    -0.146 C  
HETATM    2  C   UNL     1      -8.503  14.508  67.117  1.00  0.00    -0.212 C  
ENDROOT
BRANCH   2   3
HETATM    3  S   UNL     1      -9.973  13.786  67.826  1.00  0.00    -0.248 S  
HETATM    4  O   UNL     1      -9.682  13.366  69.177  1.00  0.00     0.179 OA 
HETATM    5  O   UNL     1     -11.105  14.629  67.508  1.00  0.00    -0.292 OA 
BRANCH   3   6
HETATM    6  N   UNL     1     -10.083  12.397  66.876  1.00  0.00    -0.218 N  
HETATM    7  C   UNL     1     -11.235  11.450  66.840  1.00  0.00    -0.264 C  
HETATM    8  C   UNL     1     -10.798  10.984  65.411  1.00  0.00    -0.098 C  
HETATM    9  C   UNL     1     -10.005  12.330  65.388  1.00  0.00    -0.244 C  
BRANCH   8  10
HETATM   10  C   UNL     1     -11.900  10.741  64.389  1.00  0.00     1.899 C  
BRANCH  10  11
HETATM   11  C   UNL     1     -12.483  12.044  63.867  1.00  0.00    -0.436 C  
HETATM   12  H1  UNL     1     -13.357  13.999  63.082  1.00  0.00     0.000 HD 
HETATM   13  N   UNL     1     -12.966  13.125  63.432  1.00  0.00    -0.193 NA 
HETATM   14  H2  UNL     1     -13.321  13.104  62.476  1.00  0.00     0.000 HD 
ENDBRANCH  10  11
ENDBRANCH   8  10
BRANCH   8  15
HETATM   15  N   UNL     1      -9.954   9.803  65.538  1.00  0.00    -0.305 NA 
HETATM   16  N   UNL     1      -8.897   9.626  64.714  1.00  0.00    -0.194 NA 
HETATM   17  C   UNL     1     -10.120   8.756  66.406  1.00  0.00    -0.243 A  
HETATM   18  C   UNL     1      -8.398   8.444  65.076  1.00  0.00    -0.158 A  
HETATM   19  C   UNL     1      -9.125   7.847  66.122  1.00  0.00    -0.210 A  
BRANCH  19  20
HETATM   20  C   UNL     1      -8.931   6.608  66.828  1.00  0.00    -0.133 A  
HETATM   21  C   UNL     1      -9.352   5.389  66.294  1.00  0.00    -0.163 A  
HETATM   22  C   UNL     1     -10.064   4.925  65.151  1.00  0.00     0.102 A  
HETATM   23  C   UNL     1     -10.116   3.549  65.221  1.00  0.00     0.081 A  
HETATM   24  N   UNL     1      -9.482   3.164  66.374  1.00  0.00    -0.375 NA 
HETATM   25  H   UNL     1      -9.365   2.200  66.686  1.00  0.00     0.000 HD 
HETATM   26  C   UNL     1      -9.031   4.269  67.043  1.00  0.00    -0.123 A  
HETATM   27  N   UNL     1      -8.385   4.239  68.218  1.00  0.00    -0.092 NA 
HETATM   28  C   UNL     1      -8.062   5.473  68.640  1.00  0.00    -0.102 A  
HETATM   29  N   UNL     1      -8.298   6.647  68.025  1.00  0.00    -0.117 NA 
ENDBRANCH  19  20
ENDBRANCH   8  15
ENDBRANCH   3   6
ENDBRANCH   2   3
TORSDOF 6
ENDMDL
MODEL      275
REMARK 921   NORMALIZED FREE ENERGY PREDICTED BY IDOCK:   -1.86 KCAL/MOL
REMARK 922        TOTAL FREE ENERGY PREDICTED BY IDOCK:   -3.03 KCAL/MOL
REMARK 923 INTER-LIGAND FREE ENERGY PREDICTED BY IDOCK:   -2.10 KCAL/MOL
REMARK 924 INTRA-LIGAND FREE ENERGY PREDICTED BY IDOCK:   -0.92 KCAL/MOL
REMARK 927      BINDING AFFINITY PREDICTED BY RF-SCORE:    0.00 PKD
ROOT
HETATM    1  C   UNL     1      -5.805   6.618  65.214  1.00  0.00    -0.030 C  
HETATM    2  C   UNL     1      -5.129   5.424  64.572  1.00  0.00    -0.009 C  
ENDROOT
BRANCH   2   3
HETATM    3  S   UNL     1      -6.288   4.420  63.660  1.00  0.00    -0.026 S  
HETATM    4  O   UNL     1      -6.507   5.020  62.364  1.00  0.00    -0.024 OA 
HETATM    5  O   UNL     1      -5.920   3.030  63.813  1.00  0.00    -0.013 OA 
BRANCH   3   6
HETATM    6  N   UNL     1      -7.673   4.690  64.585  1.00  0.00    -0.076 N  
HETATM    7  C   UNL     1      -8.997   5.144  64.067  1.00  0.00     0.084 C  
HETATM    8  C   UNL     1      -9.693   4.521  65.323  1.00  0.00    -0.172 C  
HETATM    9  C   UNL     1      -8.372   3.695  65.448  1.00  0.00    -0.105 C  
BRANCH   8  10
HETATM   10  C   UNL     1     -11.015   3.799  65.100  1.00  0.00     0.563 C  
BRANCH  10  11
HETATM   11  C   UNL     1     -11.142   3.279  63.678  1.00  0.00     0.086 C  
HETATM   12  H1  UNL     1     -11.332   2.498  61.543  1.00  0.00     0.000 HD 
HETATM   13  N   UNL     1     -11.248   2.847  62.497  1.00  0.00    -0.074 NA 
HETATM   14  H2  UNL     1     -11.942   2.114  62.350  1.00  0.00     0.000 HD 
ENDBRANCH  10  11
ENDBRANCH   8  10
BRANCH   8  15
HETATM   15  N   UNL     1      -9.844   5.553  66.339  1.00  0.00    -0.163 NA 
HETATM   16  N   UNL     1     -10.281   6.787  66.002  1.00  0.00     0.402 NA 
HETATM   17  C   UNL     1      -9.542   5.453  67.672  1.00  0.00    -0.127 A  
HETATM   18  C   UNL     1     -10.247   7.468  67.148  1.00  0.00    -0.280 A  
HETATM   19  C   UNL     1      -9.785   6.691  68.226  1.00  0.00    -0.132 A  
BRANCH  19  20
HETATM   20  C   UNL     1      -9.614   7.005  69.619  1.00  0.00    -0.150 A  
HETATM   21  C   UNL     1     -10.699   7.053  70.496  1.00  0.00    -0.262 A  
HETATM   22  C   UNL     1     -12.118   6.939  70.431  1.00  0.00    -0.250 A  
HETATM   23  C   UNL     1     -12.607   7.065  71.714  1.00  0.00    -0.350 A  
HETATM   24  N   UNL     1     -11.541   7.275  72.550  1.00  0.00    -0.425 NA 
HETATM   25  H   UNL     1     -11.602   7.401  73.561  1.00  0.00     0.000 HD 
HETATM   26  C   UNL     1     -10.381   7.288  71.824  1.00  0.00    -0.196 A  
HETATM   27  N   UNL     1      -9.160   7.489  72.340  1.00  0.00    -0.131 NA 
HETATM   28  C   UNL     1      -8.206   7.450  71.393  1.00  0.00    -0.104 A  
HETATM   29  N   UNL     1      -8.359   7.228  70.075  1.00  0.00    -0.136 NA 
ENDBRANCH  19  20
ENDBRANCH   8  15
ENDBRANCH   3   6
ENDBRANCH   2   3
TORSDOF 6
ENDMDL
MODEL      276
REMARK 921   NORMALIZED FREE ENERGY PREDICTED BY IDOCK:   -1.80 KCAL/MOL
REMARK 922        TOTAL FREE ENERGY PREDICTED BY IDOCK:   -2.94 KCAL/MOL
REMARK 923 INTER-LIGAND FREE ENERGY PREDICTED BY IDOCK:   -4.31 KCAL/MOL
REMARK 924 INTRA-LIGAND FREE ENERGY PREDICTED BY IDOCK:    1.37 KCAL/MOL
REMARK 927      BINDING AFFINITY PREDICTED BY RF-SCORE:    0.00 PKD
ROOT
HETATM    1  C   UNL     1      -9.266  18.438  66.616  1.00  0.00    -0.305 C  
HETATM    2  C   UNL     1     -10.657  17.868  66.435  1.00  0.00    -0.235 C  
ENDROOT
BRANCH   2   3
HETATM    3  S   UNL     1     -10.618  16.107  66.148  1.00  0.00    -0.243 S  
HETATM    4  O   UNL     1     -11.698  15.490  66.881  1.00  0.00    -0.017 OA 
HETATM    5  O   UNL     1     -10.411  15.871  64.736  1.00  0.00    -0.538 OA 
BRANCH   3   6
HETATM    6  N   UNL     1      -9.181  15.730  66.948  1.00  0.00    -0.217 N  
HETATM    7  C   UNL     1      -7.822  16.232  66.590  1.00  0.00    -0.275 C  
HETATM    8  C   UNL     1      -7.346  15.967  68.057  1.00  0.00    -0.131 C  
HETATM    9  C   UNL     1      -8.874  15.977  68.386  1.00  0.00    -0.188 C  
BRANCH   8  10
HETATM   10  C   UNL     1      -6.431  17.005  68.692  1.00  0.00    -0.172 C  
BRANCH  10  11
HETATM   11  C   UNL     1      -5.735  16.463  69.929  1.00  0.00    -0.193 C  
HETATM   12  H1  UNL     1      -4.689  15.649  71.786  1.00  0.00     0.000 HD 
HETATM   13  N   UNL     1      -5.156  16.013  70.956  1.00  0.00    -0.181 NA 
HETATM   14  H2  UNL     1      -4.417  15.329  70.789  1.00  0.00     0.000 HD 
ENDBRANCH  10  11
ENDBRANCH   8  10
BRANCH   8  15
HETATM   15  N   UNL     1      -6.737  14.645  68.124  1.00  0.00    -0.116 NA 
HETATM   16  N   UNL     1      -5.504  14.434  67.610  1.00  0.00    -0.340 NA 
HETATM   17  C   UNL     1      -7.294  13.501  68.630  1.00  0.00    -0.112 A  
HETATM   18  C   UNL     1      -5.294  13.130  67.798  1.00  0.00    -0.100 A  
HETATM   19  C   UNL     1      -6.380  12.492  68.423  1.00  0.00    -0.064 A  
BRANCH  19  20
HETATM   20  C   UNL     1      -6.572  11.126  68.833  1.00  0.00    -0.065 A  
HETATM   21  C   UNL     1      -7.848  10.579  68.977  1.00  0.00    -0.129 A  
HETATM   22  C   UNL     1      -9.201  11.016  68.900  1.00  0.00    -0.139 A  
HETATM   23  C   UNL     1     -10.008   9.923  69.134  1.00  0.00    -0.198 A  
HETATM   24  N   UNL     1      -9.195   8.845  69.373  1.00  0.00    -0.145 NA 
HETATM   25  H   UNL     1      -9.518   7.899  69.575  1.00  0.00     0.000 HD 
HETATM   26  C   UNL     1      -7.885   9.232  69.299  1.00  0.00    -0.085 A  
HETATM   27  N   UNL     1      -6.837   8.419  69.501  1.00  0.00    -0.041 NA 
HETATM   28  C   UNL     1      -5.669   9.069  69.366  1.00  0.00    -0.035 A  
HETATM   29  N   UNL     1      -5.474  10.364  69.052  1.00  0.00    -0.041 NA 
ENDBRANCH  19  20
ENDBRANCH   8  15
ENDBRANCH   3   6
ENDBRANCH   2   3
TORSDOF 6
ENDMDL
MODEL      277
REMARK 921   NORMALIZED FREE ENERGY PREDICTED BY IDOCK:   -1.77 KCAL/MOL
REMARK 922        TOTAL FREE ENERGY PREDICTED BY IDOCK:   -2.90 KCAL/MOL
REMARK 923 INTER-LIGAND FREE ENERGY PREDICTED BY IDOCK:   -2.67 KCAL/MOL
REMARK 924 INTRA-LIGAND FREE ENERGY PREDICTED BY IDOCK:   -0.23 KCAL/MOL
REMARK 927      BINDING AFFINITY PREDICTED BY RF-SCORE:    0.00 PKD
ROOT
HETATM    1  C   UNL     1      -7.156  19.940  72.180  1.00  0.00     1.388 C  
HETATM    2  C   UNL     1      -6.065  19.494  71.228  1.00  0.00     0.078 C  
ENDROOT
BRANCH   2   3
HETATM    3  S   UNL     1      -6.431  19.952  69.543  1.00  0.00    -0.342 S  
HETATM    4  O   UNL     1      -7.715  20.612  69.506  1.00  0.00     0.782 OA 
HETATM    5  O   UNL     1      -5.247  20.536  68.953  1.00  0.00    -0.221 OA 
BRANCH   3   6
HETATM    6  N   UNL     1      -6.631  18.414  68.878  1.00  0.00    -0.243 N  
HETATM    7  C   UNL     1      -5.701  17.746  67.922  1.00  0.00    -0.147 C  
HETATM    8  C   UNL     1      -6.256  16.352  68.368  1.00  0.00    -0.127 C  
HETATM    9  C   UNL     1      -6.754  17.131  69.628  1.00  0.00    -0.044 C  
BRANCH   8  10
HETATM   10  C   UNL     1      -5.251  15.220  68.530  1.00  0.00    -0.099 C  
BRANCH  10  11
HETATM   11  C   UNL     1      -5.807  14.089  69.381  1.00  0.00    -0.092 C  
HETATM   12  H1  UNL     1      -6.641  12.392  70.656  1.00  0.00     0.000 HD 
HETATM   13  N   UNL     1      -6.268  13.151  70.085  1.00  0.00    -0.332 NA 
HETATM   14  H2  UNL     1      -7.083  12.667  69.707  1.00  0.00     0.000 HD 
ENDBRANCH  10  11
ENDBRANCH   8  10
BRANCH   8  15
HETATM   15  N   UNL     1      -7.323  15.956  67.458  1.00  0.00    -0.153 NA 
HETATM   16  N   UNL     1      -7.480  16.587  66.273  1.00  0.00    -0.171 NA 
HETATM   17  C   UNL     1      -8.279  14.999  67.670  1.00  0.00    -0.168 A  
HETATM   18  C   UNL     1      -8.559  16.012  65.740  1.00  0.00     0.322 A  
HETATM   19  C   UNL     1      -9.108  15.018  66.569  1.00  0.00    -0.319 A  
BRANCH  19  20
HETATM   20  C   UNL     1     -10.235  14.142  66.386  1.00  0.00    -0.290 A  
HETATM   21  C   UNL     1     -10.188  12.801  66.769  1.00  0.00    -0.245 A  
HETATM   22  C   UNL     1      -9.233  11.883  67.293  1.00  0.00    -0.179 A  
HETATM   23  C   UNL     1      -9.869  10.673  67.471  1.00  0.00    -0.168 A  
HETATM   24  N   UNL     1     -11.167  10.816  67.054  1.00  0.00    -0.310 NA 
HETATM   25  H   UNL     1     -11.874  10.082  67.072  1.00  0.00     0.000 HD 
HETATM   26  C   UNL     1     -11.368  12.095  66.609  1.00  0.00    -0.350 A  
HETATM   27  N   UNL     1     -12.527  12.556  66.114  1.00  0.00    -0.412 NA 
HETATM   28  C   UNL     1     -12.435  13.848  65.754  1.00  0.00    -0.495 A  
HETATM   29  N   UNL     1     -11.367  14.660  65.854  1.00  0.00    -0.337 NA 
ENDBRANCH  19  20
ENDBRANCH   8  15
ENDBRANCH   3   6
ENDBRANCH   2   3
TORSDOF 6
ENDMDL
MODEL      278
REMARK 921   NORMALIZED FREE ENERGY PREDICTED BY IDOCK:   -1.65 KCAL/MOL
REMARK 922        TOTAL FREE ENERGY PREDICTED BY IDOCK:   -2.75 KCAL/MOL
REMARK 923 INTER-LIGAND FREE ENERGY PREDICTED BY IDOCK:   -2.18 KCAL/MOL
REMARK 924 INTRA-LIGAND FREE ENERGY PREDICTED BY IDOCK:   -0.56 KCAL/MOL
REMARK 927      BINDING AFFINITY PREDICTED BY RF-SCORE:    0.00 PKD
ROOT
HETATM    1  C   UNL     1      -5.805   6.618  65.214  1.00  0.00    -0.030 C  
HETATM    2  C   UNL     1      -5.128   5.419  64.582  1.00  0.00    -0.009 C  
ENDROOT
BRANCH   2   3
HETATM    3  S   UNL     1      -6.283   4.417  63.663  1.00  0.00    -0.018 S  
HETATM    4  O   UNL     1      -6.488   5.013  62.364  1.00  0.00    -0.024 OA 
HETATM    5  O   UNL     1      -5.922   3.025  63.825  1.00  0.00    -0.013 OA 
BRANCH   3   6
HETATM    6  N   UNL     1      -7.675   4.696  64.574  1.00  0.00    -0.079 N  
HETATM    7  C   UNL     1      -8.992   5.153  64.043  1.00  0.00     0.084 C  
HETATM    8  C   UNL     1      -9.703   4.537  65.295  1.00  0.00    -0.172 C  
HETATM    9  C   UNL     1      -8.386   3.707  65.435  1.00  0.00    -0.105 C  
BRANCH   8  10
HETATM   10  C   UNL     1     -11.026   3.820  65.063  1.00  0.00     0.425 C  
BRANCH  10  11
HETATM   11  C   UNL     1     -11.142   3.295  63.641  1.00  0.00     0.086 C  
HETATM   12  H1  UNL     1     -11.316   2.508  61.507  1.00  0.00     0.000 HD 
HETATM   13  N   UNL     1     -11.238   2.861  62.461  1.00  0.00    -0.074 NA 
HETATM   14  H2  UNL     1     -12.027   3.214  61.917  1.00  0.00     0.000 HD 
ENDBRANCH  10  11
ENDBRANCH   8  10
BRANCH   8  15
HETATM   15  N   UNL     1      -9.858   5.574  66.306  1.00  0.00    -0.159 NA 
HETATM   16  N   UNL     1     -10.990   5.648  67.041  1.00  0.00    -0.163 NA 
HETATM   17  C   UNL     1      -8.975   6.577  66.606  1.00  0.00    -0.138 A  
HETATM   18  C   UNL     1     -10.807   6.722  67.811  1.00  0.00    -0.264 A  
HETATM   19  C   UNL     1      -9.570   7.350  67.579  1.00  0.00    -0.171 A  
BRANCH  19  20
HETATM   20  C   UNL     1      -8.959   8.501  68.189  1.00  0.00    -0.142 A  
HETATM   21  C   UNL     1      -8.983   9.753  67.573  1.00  0.00    -0.138 A  
HETATM   22  C   UNL     1      -9.419  10.317  66.340  1.00  0.00    -0.218 A  
HETATM   23  C   UNL     1      -9.155  11.670  66.382  1.00  0.00    -0.206 A  
HETATM   24  N   UNL     1      -8.554  11.943  67.584  1.00  0.00    -0.149 NA 
HETATM   25  H   UNL     1      -8.249  12.866  67.893  1.00  0.00     0.000 HD 
HETATM   26  C   UNL     1      -8.427  10.788  68.307  1.00  0.00    -0.130 A  
HETATM   27  N   UNL     1      -7.862  10.706  69.521  1.00  0.00    -0.124 NA 
HETATM   28  C   UNL     1      -7.873   9.448  69.992  1.00  0.00    -0.132 A  
HETATM   29  N   UNL     1      -8.378   8.348  69.402  1.00  0.00    -0.119 NA 
ENDBRANCH  19  20
ENDBRANCH   8  15
ENDBRANCH   3   6
ENDBRANCH   2   3
TORSDOF 6
ENDMDL
MODEL      279
REMARK 921   NORMALIZED FREE ENERGY PREDICTED BY IDOCK:   -1.63 KCAL/MOL
REMARK 922        TOTAL FREE ENERGY PREDICTED BY IDOCK:   -2.71 KCAL/MOL
REMARK 923 INTER-LIGAND FREE ENERGY PREDICTED BY IDOCK:   -2.55 KCAL/MOL
REMARK 924 INTRA-LIGAND FREE ENERGY PREDICTED BY IDOCK:   -0.17 KCAL/MOL
REMARK 927      BINDING AFFINITY PREDICTED BY RF-SCORE:    0.00 PKD
ROOT
HETATM    1  C   UNL     1      -5.196   6.829  65.235  1.00  0.00    -0.026 C  
HETATM    2  C   UNL     1      -5.176   5.483  64.541  1.00  0.00    -0.010 C  
ENDROOT
BRANCH   2   3
HETATM    3  S   UNL     1      -6.810   4.775  64.428  1.00  0.00    -0.049 S  
HETATM    4  O   UNL     1      -7.530   5.428  63.360  1.00  0.00    -0.049 OA 
HETATM    5  O   UNL     1      -6.700   3.335  64.515  1.00  0.00    -0.035 OA 
BRANCH   3   6
HETATM    6  N   UNL     1      -7.452   5.330  65.886  1.00  0.00    -0.081 N  
HETATM    7  C   UNL     1      -8.521   6.360  66.036  1.00  0.00    -0.144 C  
HETATM    8  C   UNL     1      -8.875   5.777  67.445  1.00  0.00    -0.106 C  
HETATM    9  C   UNL     1      -8.125   4.505  66.931  1.00  0.00    -0.102 C  
BRANCH   8  10
HETATM   10  C   UNL     1     -10.351   5.685  67.811  1.00  0.00    -0.260 C  
BRANCH  10  11
HETATM   11  C   UNL     1     -10.773   6.812  68.740  1.00  0.00    -0.239 C  
HETATM   12  H1  UNL     1     -11.406   8.502  70.134  1.00  0.00     0.000 HD 
HETATM   13  N   UNL     1     -11.123   7.746  69.511  1.00  0.00    -0.445 NA 
HETATM   14  H2  UNL     1     -11.773   7.491  70.256  1.00  0.00     0.000 HD 
ENDBRANCH  10  11
ENDBRANCH   8  10
BRANCH   8  15
HETATM   15  N   UNL     1      -8.146   6.523  68.461  1.00  0.00    -0.113 NA 
HETATM   16  N   UNL     1      -7.393   7.592  68.117  1.00  0.00    -0.093 NA 
HETATM   17  C   UNL     1      -8.077   6.247  69.801  1.00  0.00    -0.120 A  
HETATM   18  C   UNL     1      -6.844   7.985  69.266  1.00  0.00    -0.048 A  
HETATM   19  C   UNL     1      -7.226   7.179  70.353  1.00  0.00    -0.070 A  
BRANCH  19  20
HETATM   20  C   UNL     1      -6.899   7.252  71.752  1.00  0.00    -0.058 A  
HETATM   21  C   UNL     1      -6.246   6.206  72.406  1.00  0.00    -0.049 A  
HETATM   22  C   UNL     1      -5.798   4.887  72.106  1.00  0.00    -0.016 A  
HETATM   23  C   UNL     1      -5.185   4.387  73.235  1.00  0.00    -0.007 A  
HETATM   24  N   UNL     1      -5.266   5.343  74.215  1.00  0.00    -0.025 NA 
HETATM   25  H   UNL     1      -4.893   5.249  75.160  1.00  0.00     0.000 HD 
HETATM   26  C   UNL     1      -5.922   6.442  73.731  1.00  0.00    -0.063 A  
HETATM   27  N   UNL     1      -6.185   7.548  74.444  1.00  0.00    -0.081 NA 
HETATM   28  C   UNL     1      -6.843   8.466  73.715  1.00  0.00    -0.103 A  
HETATM   29  N   UNL     1      -7.217   8.384  72.425  1.00  0.00    -0.156 NA 
ENDBRANCH  19  20
ENDBRANCH   8  15
ENDBRANCH   3   6
ENDBRANCH   2   3
TORSDOF 6
ENDMDL
MODEL      280
REMARK 921   NORMALIZED FREE ENERGY PREDICTED BY IDOCK:   -1.52 KCAL/MOL
REMARK 922        TOTAL FREE ENERGY PREDICTED BY IDOCK:   -2.57 KCAL/MOL
REMARK 923 INTER-LIGAND FREE ENERGY PREDICTED BY IDOCK:   -2.34 KCAL/MOL
REMARK 924 INTRA-LIGAND FREE ENERGY PREDICTED BY IDOCK:   -0.22 KCAL/MOL
REMARK 927      BINDING AFFINITY PREDICTED BY RF-SCORE:    0.00 PKD
ROOT
HETATM    1  C   UNL     1      -9.641  20.999  70.880  1.00  0.00     2.613 C  
HETATM    2  C   UNL     1     -10.187  19.921  69.967  1.00  0.00     0.541 C  
ENDROOT
BRANCH   2   3
HETATM    3  S   UNL     1      -9.102  19.616  68.584  1.00  0.00    -0.228 S  
HETATM    4  O   UNL     1      -9.478  20.486  67.494  1.00  0.00    -0.402 OA 
HETATM    5  O   UNL     1      -7.742  19.532  69.069  1.00  0.00    -0.362 OA 
BRANCH   3   6
HETATM    6  N   UNL     1      -9.602  18.055  68.182  1.00  0.00    -0.289 N  
HETATM    7  C   UNL     1      -8.933  16.788  68.597  1.00  0.00    -0.251 C  
HETATM    8  C   UNL     1     -10.279  16.018  68.391  1.00  0.00    -0.236 C  
HETATM    9  C   UNL     1     -10.923  17.438  68.493  1.00  0.00    -0.072 C  
BRANCH   8  10
HETATM   10  C   UNL     1     -10.638  14.952  69.417  1.00  0.00    -0.255 C  
BRANCH  10  11
HETATM   11  C   UNL     1     -12.070  15.099  69.907  1.00  0.00    -0.336 C  
HETATM   12  H1  UNL     1     -14.218  15.320  70.642  1.00  0.00     0.000 HD 
HETATM   13  N   UNL     1     -13.258  15.221  70.313  1.00  0.00    -0.678 NA 
HETATM   14  H2  UNL     1     -13.941  14.590  69.893  1.00  0.00     0.000 HD 
ENDBRANCH  10  11
ENDBRANCH   8  10
BRANCH   8  15
HETATM   15  N   UNL     1     -10.299  15.455  67.047  1.00  0.00    -0.274 NA 
HETATM   16  N   UNL     1     -10.395  16.264  65.968  1.00  0.00    -0.335 NA 
HETATM   17  C   UNL     1     -10.275  14.129  66.704  1.00  0.00    -0.270 A  
HETATM   18  C   UNL     1     -10.436  15.423  64.934  1.00  0.00    -0.292 A  
HETATM   19  C   UNL     1     -10.373  14.075  65.331  1.00  0.00    -0.377 A  
BRANCH  19  20
HETATM   20  C   UNL     1     -10.362  12.858  64.564  1.00  0.00    -0.357 A  
HETATM   21  C   UNL     1      -9.523  11.793  64.895  1.00  0.00    -0.054 A  
HETATM   22  C   UNL     1      -8.491  11.512  65.836  1.00  0.00     0.062 A  
HETATM   23  C   UNL     1      -8.081  10.212  65.632  1.00  0.00    -0.149 A  
HETATM   24  N   UNL     1      -8.809   9.702  64.588  1.00  0.00    -0.205 NA 
HETATM   25  H   UNL     1      -8.720   8.756  64.217  1.00  0.00     0.000 HD 
HETATM   26  C   UNL     1      -9.673  10.654  64.121  1.00  0.00    -0.320 A  
HETATM   27  N   UNL     1     -10.515  10.480  63.091  1.00  0.00     0.230 NA 
HETATM   28  C   UNL     1     -11.243  11.584  62.852  1.00  0.00     0.385 A  
HETATM   29  N   UNL     1     -11.215  12.754  63.516  1.00  0.00    -0.431 NA 
ENDBRANCH  19  20
ENDBRANCH   8  15
ENDBRANCH   3   6
ENDBRANCH   2   3
TORSDOF 6
ENDMDL
MODEL      281
REMARK 921   NORMALIZED FREE ENERGY PREDICTED BY IDOCK:   -1.42 KCAL/MOL
REMARK 922        TOTAL FREE ENERGY PREDICTED BY IDOCK:   -2.43 KCAL/MOL
REMARK 923 INTER-LIGAND FREE ENERGY PREDICTED BY IDOCK:   -2.36 KCAL/MOL
REMARK 924 INTRA-LIGAND FREE ENERGY PREDICTED BY IDOCK:   -0.06 KCAL/MOL
REMARK 927      BINDING AFFINITY PREDICTED BY RF-SCORE:    0.00 PKD
ROOT
HETATM    1  C   UNL     1      -5.348   6.747  65.164  1.00  0.00    -0.026 C  
HETATM    2  C   UNL     1      -5.131   5.499  64.333  1.00  0.00    -0.009 C  
ENDROOT
BRANCH   2   3
HETATM    3  S   UNL     1      -6.672   4.689  63.943  1.00  0.00    -0.044 S  
HETATM    4  O   UNL     1      -7.294   5.378  62.836  1.00  0.00    -0.044 OA 
HETATM    5  O   UNL     1      -6.458   3.259  63.938  1.00  0.00    -0.029 OA 
BRANCH   3   6
HETATM    6  N   UNL     1      -7.545   5.074  65.334  1.00  0.00    -0.084 N  
HETATM    7  C   UNL     1      -8.726   5.983  65.404  1.00  0.00    -0.083 C  
HETATM    8  C   UNL     1      -9.190   5.268  66.717  1.00  0.00    -0.126 C  
HETATM    9  C   UNL     1      -8.252   4.116  66.232  1.00  0.00    -0.105 C  
BRANCH   8  10
HETATM   10  C   UNL     1     -10.681   5.009  66.881  1.00  0.00    -0.072 C  
BRANCH  10  11
HETATM   11  C   UNL     1     -11.344   4.671  65.555  1.00  0.00     0.657 C  
HETATM   12  H1  UNL     1     -12.339   4.163  63.566  1.00  0.00     0.000 HD 
HETATM   13  N   UNL     1     -11.894   4.390  64.455  1.00  0.00    -0.390 NA 
HETATM   14  H2  UNL     1     -11.264   4.134  63.694  1.00  0.00     0.000 HD 
ENDBRANCH  10  11
ENDBRANCH   8  10
BRANCH   8  15
HETATM   15  N   UNL     1      -8.674   6.007  67.862  1.00  0.00    -0.113 NA 
HETATM   16  N   UNL     1      -7.552   6.751  67.747  1.00  0.00    -0.104 NA 
HETATM   17  C   UNL     1      -9.179   6.018  69.135  1.00  0.00    -0.126 A  
HETATM   18  C   UNL     1      -7.354   7.231  68.975  1.00  0.00    -0.091 A  
HETATM   19  C   UNL     1      -8.332   6.801  69.889  1.00  0.00    -0.135 A  
BRANCH  19  20
HETATM   20  C   UNL     1      -8.521   7.089  71.286  1.00  0.00    -0.118 A  
HETATM   21  C   UNL     1      -7.560   7.782  72.025  1.00  0.00    -0.089 A  
HETATM   22  C   UNL     1      -6.251   8.308  71.829  1.00  0.00    -0.050 A  
HETATM   23  C   UNL     1      -5.866   8.919  73.003  1.00  0.00    -0.062 A  
HETATM   24  N   UNL     1      -6.881   8.762  73.911  1.00  0.00    -0.351 NA 
HETATM   25  H   UNL     1      -6.875   9.116  74.867  1.00  0.00     0.000 HD 
HETATM   26  C   UNL     1      -7.906   8.059  73.337  1.00  0.00    -0.175 A  
HETATM   27  N   UNL     1      -9.043   7.720  73.964  1.00  0.00    -0.241 NA 
HETATM   28  C   UNL     1      -9.869   7.031  73.158  1.00  0.00    -0.197 A  
HETATM   29  N   UNL     1      -9.677   6.693  71.870  1.00  0.00    -0.154 NA 
ENDBRANCH  19  20
ENDBRANCH   8  15
ENDBRANCH   3   6
ENDBRANCH   2   3
TORSDOF 6
ENDMDL
MODEL      282
REMARK 921   NORMALIZED FREE ENERGY PREDICTED BY IDOCK:   -0.97 KCAL/MOL
REMARK 922        TOTAL FREE ENERGY PREDICTED BY IDOCK:   -1.82 KCAL/MOL
REMARK 923 INTER-LIGAND FREE ENERGY PREDICTED BY IDOCK:   -0.94 KCAL/MOL
REMARK 924 INTRA-LIGAND FREE ENERGY PREDICTED BY IDOCK:   -0.88 KCAL/MOL
REMARK 927      BINDING AFFINITY PREDICTED BY RF-SCORE:    0.00 PKD
ROOT
HETATM    1  C   UNL     1      -5.805   6.618  65.214  1.00  0.00    -0.030 C  
HETATM    2  C   UNL     1      -5.129   5.424  64.572  1.00  0.00    -0.009 C  
ENDROOT
BRANCH   2   3
HETATM    3  S   UNL     1      -6.288   4.420  63.660  1.00  0.00    -0.026 S  
HETATM    4  O   UNL     1      -6.507   5.020  62.364  1.00  0.00    -0.024 OA 
HETATM    5  O   UNL     1      -5.920   3.030  63.813  1.00  0.00    -0.013 OA 
BRANCH   3   6
HETATM    6  N   UNL     1      -7.673   4.690  64.585  1.00  0.00    -0.076 N  
HETATM    7  C   UNL     1      -8.997   5.144  64.067  1.00  0.00     0.084 C  
HETATM    8  C   UNL     1      -9.693   4.521  65.323  1.00  0.00    -0.172 C  
HETATM    9  C   UNL     1      -8.372   3.695  65.448  1.00  0.00    -0.105 C  
BRANCH   8  10
HETATM   10  C   UNL     1     -11.015   3.799  65.100  1.00  0.00     0.563 C  
BRANCH  10  11
HETATM   11  C   UNL     1     -11.204   3.402  63.645  1.00  0.00     0.289 C  
HETATM   12  H1  UNL     1     -11.487   2.807  61.461  1.00  0.00     0.000 HD 
HETATM   13  N   UNL     1     -11.361   3.072  62.438  1.00  0.00     0.032 NA 
HETATM   14  H2  UNL     1     -12.052   2.343  62.260  1.00  0.00     0.000 HD 
ENDBRANCH  10  11
ENDBRANCH   8  10
BRANCH   8  15
HETATM   15  N   UNL     1      -9.844   5.553  66.339  1.00  0.00    -0.163 NA 
HETATM   16  N   UNL     1     -10.281   6.787  66.002  1.00  0.00     0.402 NA 
HETATM   17  C   UNL     1      -9.542   5.453  67.672  1.00  0.00    -0.127 A  
HETATM   18  C   UNL     1     -10.247   7.468  67.148  1.00  0.00    -0.280 A  
HETATM   19  C   UNL     1      -9.785   6.691  68.226  1.00  0.00    -0.132 A  
BRANCH  19  20
HETATM   20  C   UNL     1      -9.614   7.005  69.619  1.00  0.00    -0.150 A  
HETATM   21  C   UNL     1      -8.369   6.908  70.243  1.00  0.00    -0.134 A  
HETATM   22  C   UNL     1      -7.052   6.477  69.913  1.00  0.00    -0.068 A  
HETATM   23  C   UNL     1      -6.257   6.676  71.022  1.00  0.00    -0.040 A  
HETATM   24  N   UNL     1      -7.047   7.188  72.018  1.00  0.00    -0.071 NA 
HETATM   25  H   UNL     1      -6.726   7.436  72.954  1.00  0.00     0.000 HD 
HETATM   26  C   UNL     1      -8.333   7.316  71.565  1.00  0.00    -0.109 A  
HETATM   27  N   UNL     1      -9.359   7.770  72.301  1.00  0.00    -0.147 NA 
HETATM   28  C   UNL     1     -10.505   7.787  71.600  1.00  0.00    -0.202 A  
HETATM   29  N   UNL     1     -10.695   7.430  70.316  1.00  0.00    -0.232 NA 
ENDBRANCH  19  20
ENDBRANCH   8  15
ENDBRANCH   3   6
ENDBRANCH   2   3
TORSDOF 6
ENDMDL
MODEL      283
REMARK 921   NORMALIZED FREE ENERGY PREDICTED BY IDOCK:   -0.77 KCAL/MOL
REMARK 922        TOTAL FREE ENERGY PREDICTED BY IDOCK:   -1.55 KCAL/MOL
REMARK 923 INTER-LIGAND FREE ENERGY PREDICTED BY IDOCK:   -0.91 KCAL/MOL
REMARK 924 INTRA-LIGAND FREE ENERGY PREDICTED BY IDOCK:   -0.64 KCAL/MOL
REMARK 927      BINDING AFFINITY PREDICTED BY RF-SCORE:    0.00 PKD
ROOT
HETATM    1  C   UNL     1     -11.862   5.797  65.984  1.00  0.00     2.298 C  
HETATM    2  C   UNL     1     -10.615   5.599  66.820  1.00  0.00    -0.304 C  
ENDROOT
BRANCH   2   3
HETATM    3  S   UNL     1      -9.316   4.803  65.890  1.00  0.00    -0.168 S  
HETATM    4  O   UNL     1      -9.882   3.702  65.146  1.00  0.00    -0.171 OA 
HETATM    5  O   UNL     1      -8.504   5.821  65.260  1.00  0.00    -0.146 OA 
BRANCH   3   6
HETATM    6  N   UNL     1      -8.426   4.150  67.165  1.00  0.00    -0.100 N  
HETATM    7  C   UNL     1      -8.485   2.737  67.640  1.00  0.00    -0.088 C  
HETATM    8  C   UNL     1      -7.054   2.892  68.255  1.00  0.00    -0.049 C  
HETATM    9  C   UNL     1      -6.940   4.107  67.280  1.00  0.00    -0.059 C  
BRANCH   8  10
HETATM   10  C   UNL     1      -6.100   1.714  68.107  1.00  0.00    -0.024 C  
BRANCH  10  11
HETATM   11  C   UNL     1      -5.571   1.592  66.687  1.00  0.00    -0.017 C  
HETATM   12  H1  UNL     1      -4.776   1.408  64.557  1.00  0.00     0.000 HD 
HETATM   13  N   UNL     1      -5.132   1.490  65.510  1.00  0.00    -0.004 NA 
HETATM   14  H2  UNL     1      -5.510   0.720  64.956  1.00  0.00     0.000 HD 
ENDBRANCH  10  11
ENDBRANCH   8  10
BRANCH   8  15
HETATM   15  N   UNL     1      -7.181   3.269  69.656  1.00  0.00    -0.041 NA 
HETATM   16  N   UNL     1      -6.125   3.157  70.494  1.00  0.00    -0.018 NA 
HETATM   17  C   UNL     1      -8.309   3.711  70.296  1.00  0.00    -0.056 A  
HETATM   18  C   UNL     1      -6.609   3.533  71.678  1.00  0.00    -0.019 A  
HETATM   19  C   UNL     1      -7.970   3.882  71.620  1.00  0.00    -0.066 A  
BRANCH  19  20
HETATM   20  C   UNL     1      -8.873   4.360  72.634  1.00  0.00    -0.109 A  
HETATM   21  C   UNL     1      -8.945   5.713  72.969  1.00  0.00    -0.122 A  
HETATM   22  C   UNL     1      -8.277   6.924  72.629  1.00  0.00    -0.115 A  
HETATM   23  C   UNL     1      -8.881   7.947  73.329  1.00  0.00    -0.250 A  
HETATM   24  N   UNL     1      -9.875   7.398  74.098  1.00  0.00    -0.418 NA 
HETATM   25  H   UNL     1     -10.492   7.920  74.720  1.00  0.00     0.000 HD 
HETATM   26  C   UNL     1      -9.913   6.044  73.903  1.00  0.00    -0.220 A  
HETATM   27  N   UNL     1     -10.759   5.208  74.522  1.00  0.00    -0.315 NA 
HETATM   28  C   UNL     1     -10.570   3.934  74.139  1.00  0.00    -0.215 A  
HETATM   29  N   UNL     1      -9.682   3.462  73.244  1.00  0.00    -0.108 NA 
ENDBRANCH  19  20
ENDBRANCH   8  15
ENDBRANCH   3   6
ENDBRANCH   2   3
TORSDOF 6
ENDMDL
MODEL      284
REMARK 921   NORMALIZED FREE ENERGY PREDICTED BY IDOCK:   -0.57 KCAL/MOL
REMARK 922        TOTAL FREE ENERGY PREDICTED BY IDOCK:   -1.27 KCAL/MOL
REMARK 923 INTER-LIGAND FREE ENERGY PREDICTED BY IDOCK:   -2.11 KCAL/MOL
REMARK 924 INTRA-LIGAND FREE ENERGY PREDICTED BY IDOCK:    0.84 KCAL/MOL
REMARK 927      BINDING AFFINITY PREDICTED BY RF-SCORE:    0.00 PKD
ROOT
HETATM    1  C   UNL     1     -10.696  16.339  67.819  1.00  0.00    -0.325 C  
HETATM    2  C   UNL     1     -11.283  16.960  66.568  1.00  0.00     0.538 C  
ENDROOT
BRANCH   2   3
HETATM    3  S   UNL     1     -10.936  15.978  65.119  1.00  0.00    -0.284 S  
HETATM    4  O   UNL     1     -12.166  15.769  64.391  1.00  0.00    -0.301 OA 
HETATM    5  O   UNL     1      -9.743  16.493  64.483  1.00  0.00     1.320 OA 
BRANCH   3   6
HETATM    6  N   UNL     1     -10.533  14.520  65.864  1.00  0.00    -0.299 N  
HETATM    7  C   UNL     1     -11.045  14.038  67.180  1.00  0.00    -0.303 C  
HETATM    8  C   UNL     1     -10.733  12.565  66.754  1.00  0.00    -0.236 C  
HETATM    9  C   UNL     1     -10.734  13.152  65.306  1.00  0.00    -0.303 C  
BRANCH   8  10
HETATM   10  C   UNL     1     -11.751  11.498  67.136  1.00  0.00    -0.140 C  
BRANCH  10  11
HETATM   11  C   UNL     1     -11.119  10.118  67.214  1.00  0.00    -0.092 C  
HETATM   12  H1  UNL     1     -10.172   8.046  67.330  1.00  0.00     0.000 HD 
HETATM   13  N   UNL     1     -10.595   8.972  67.278  1.00  0.00    -0.322 NA 
HETATM   14  H2  UNL     1     -10.339   8.547  66.386  1.00  0.00     0.000 HD 
ENDBRANCH  10  11
ENDBRANCH   8  10
BRANCH   8  15
HETATM   15  N   UNL     1      -9.410  12.202  67.244  1.00  0.00    -0.178 NA 
HETATM   16  N   UNL     1      -8.447  11.806  66.382  1.00  0.00    -0.132 NA 
HETATM   17  C   UNL     1      -8.992  12.163  68.547  1.00  0.00    -0.082 A  
HETATM   18  C   UNL     1      -7.410  11.512  67.167  1.00  0.00    -0.139 A  
HETATM   19  C   UNL     1      -7.692  11.706  68.531  1.00  0.00    -0.134 A  
BRANCH  19  20
HETATM   20  C   UNL     1      -6.875  11.541  69.704  1.00  0.00    -0.038 A  
HETATM   21  C   UNL     1      -6.844  10.336  70.408  1.00  0.00    -0.109 A  
HETATM   22  C   UNL     1      -7.499   9.072  70.372  1.00  0.00    -0.089 A  
HETATM   23  C   UNL     1      -6.961   8.293  71.374  1.00  0.00    -0.065 A  
HETATM   24  N   UNL     1      -6.023   9.045  72.032  1.00  0.00    -0.096 NA 
HETATM   25  H   UNL     1      -5.461   8.724  72.820  1.00  0.00     0.000 HD 
HETATM   26  C   UNL     1      -5.955  10.290  71.469  1.00  0.00     0.266 A  
HETATM   27  N   UNL     1      -5.148  11.275  71.893  1.00  0.00    -0.320 NA 
HETATM   28  C   UNL     1      -5.293  12.389  71.155  1.00  0.00    -0.115 A  
HETATM   29  N   UNL     1      -6.104  12.582  70.099  1.00  0.00    -0.136 NA 
ENDBRANCH  19  20
ENDBRANCH   8  15
ENDBRANCH   3   6
ENDBRANCH   2   3
TORSDOF 6
ENDMDL
MODEL      285
REMARK 921   NORMALIZED FREE ENERGY PREDICTED BY IDOCK:   -0.56 KCAL/MOL
REMARK 922        TOTAL FREE ENERGY PREDICTED BY IDOCK:   -1.26 KCAL/MOL
REMARK 923 INTER-LIGAND FREE ENERGY PREDICTED BY IDOCK:   -0.74 KCAL/MOL
REMARK 924 INTRA-LIGAND FREE ENERGY PREDICTED BY IDOCK:   -0.52 KCAL/MOL
REMARK 927      BINDING AFFINITY PREDICTED BY RF-SCORE:    0.00 PKD
ROOT
HETATM    1  C   UNL     1     -11.221   9.657  68.899  1.00  0.00    -0.020 C  
HETATM    2  C   UNL     1     -11.008   9.144  70.308  1.00  0.00    -0.245 C  
ENDROOT
BRANCH   2   3
HETATM    3  S   UNL     1     -12.282   9.716  71.419  1.00  0.00    -0.410 S  
HETATM    4  O   UNL     1     -13.553   9.187  70.983  1.00  0.00    -0.189 OA 
HETATM    5  O   UNL     1     -11.812   9.569  72.779  1.00  0.00     0.643 OA 
BRANCH   3   6
HETATM    6  N   UNL     1     -12.259  11.359  71.041  1.00  0.00    -0.326 N  
HETATM    7  C   UNL     1     -13.146  12.044  70.057  1.00  0.00     0.966 C  
HETATM    8  C   UNL     1     -12.910  13.402  70.798  1.00  0.00    -0.150 C  
HETATM    9  C   UNL     1     -12.468  12.491  71.989  1.00  0.00     0.397 C  
BRANCH   8  10
HETATM   10  C   UNL     1     -14.109  14.326  70.960  1.00  0.00     0.070 C  
BRANCH  10  11
HETATM   11  C   UNL     1     -13.914  15.308  72.105  1.00  0.00    -0.549 C  
HETATM   12  H1  UNL     1     -13.623  16.781  73.822  1.00  0.00     0.000 HD 
HETATM   13  N   UNL     1     -13.754  16.122  73.054  1.00  0.00    -0.474 NA 
HETATM   14  H2  UNL     1     -14.491  16.137  73.760  1.00  0.00     0.000 HD 
ENDBRANCH  10  11
ENDBRANCH   8  10
BRANCH   8  15
HETATM   15  N   UNL     1     -11.810  14.106  70.153  1.00  0.00    -0.301 NA 
HETATM   16  N   UNL     1     -10.563  14.051  70.673  1.00  0.00     1.221 NA 
HETATM   17  C   UNL     1     -11.877  14.905  69.042  1.00  0.00    -0.301 A  
HETATM   18  C   UNL     1      -9.842  14.834  69.871  1.00  0.00     0.263 A  
HETATM   19  C   UNL     1     -10.609  15.404  68.838  1.00  0.00    -0.244 A  
BRANCH  19  20
HETATM   20  C   UNL     1     -10.244  16.274  67.752  1.00  0.00    -0.270 A  
HETATM   21  C   UNL     1     -10.387  17.660  67.847  1.00  0.00    -0.371 A  
HETATM   22  C   UNL     1     -10.909  18.608  68.772  1.00  0.00     0.626 A  
HETATM   23  C   UNL     1     -10.709  19.865  68.241  1.00  0.00     0.029 A  
HETATM   24  N   UNL     1     -10.107  19.712  67.019  1.00  0.00    -0.381 NA 
HETATM   25  H   UNL     1      -9.837  20.475  66.397  1.00  0.00     0.000 HD 
HETATM   26  C   UNL     1      -9.923  18.381  66.759  1.00  0.00    -0.360 A  
HETATM   27  N   UNL     1      -9.376  17.891  65.636  1.00  0.00    -0.219 NA 
HETATM   28  C   UNL     1      -9.322  16.548  65.654  1.00  0.00     0.092 A  
HETATM   29  N   UNL     1      -9.724  15.717  66.633  1.00  0.00    -0.238 NA 
ENDBRANCH  19  20
ENDBRANCH   8  15
ENDBRANCH   3   6
ENDBRANCH   2   3
TORSDOF 6
ENDMDL
MODEL      286
REMARK 921   NORMALIZED FREE ENERGY PREDICTED BY IDOCK:   -0.43 KCAL/MOL
REMARK 922        TOTAL FREE ENERGY PREDICTED BY IDOCK:   -1.09 KCAL/MOL
REMARK 923 INTER-LIGAND FREE ENERGY PREDICTED BY IDOCK:   -1.11 KCAL/MOL
REMARK 924 INTRA-LIGAND FREE ENERGY PREDICTED BY IDOCK:    0.02 KCAL/MOL
REMARK 927      BINDING AFFINITY PREDICTED BY RF-SCORE:    0.00 PKD
ROOT
HETATM    1  C   UNL     1      -6.924   3.803  72.877  1.00  0.00    -0.048 C  
HETATM    2  C   UNL     1      -6.327   4.155  71.531  1.00  0.00    -0.018 C  
ENDROOT
BRANCH   2   3
HETATM    3  S   UNL     1      -6.811   2.990  70.269  1.00  0.00    -0.034 S  
HETATM    4  O   UNL     1      -5.622   2.461  69.641  1.00  0.00    -0.016 OA 
HETATM    5  O   UNL     1      -7.848   2.133  70.800  1.00  0.00    -0.039 OA 
BRANCH   3   6
HETATM    6  N   UNL     1      -7.532   4.053  69.176  1.00  0.00    -0.054 N  
HETATM    7  C   UNL     1      -6.819   4.877  68.156  1.00  0.00    -0.056 C  
HETATM    8  C   UNL     1      -8.135   4.958  67.312  1.00  0.00    -0.106 C  
HETATM    9  C   UNL     1      -8.562   3.711  68.153  1.00  0.00    -0.097 C  
BRANCH   8  10
HETATM   10  C   UNL     1      -8.002   4.838  65.800  1.00  0.00    -0.102 C  
BRANCH  10  11
HETATM   11  C   UNL     1      -9.107   5.589  65.075  1.00  0.00     0.086 C  
HETATM   12  H1  UNL     1     -10.767   6.714  63.987  1.00  0.00     0.000 HD 
HETATM   13  N   UNL     1     -10.025   6.211  64.474  1.00  0.00     1.723 NA 
HETATM   14  H2  UNL     1     -10.980   5.952  64.725  1.00  0.00     0.000 HD 
ENDBRANCH  10  11
ENDBRANCH   8  10
BRANCH   8  15
HETATM   15  N   UNL     1      -8.847   6.179  67.664  1.00  0.00    -0.105 NA 
HETATM   16  N   UNL     1      -9.967   6.125  68.419  1.00  0.00    -0.132 NA 
HETATM   17  C   UNL     1      -8.542   7.456  67.274  1.00  0.00    -0.118 A  
HETATM   18  C   UNL     1     -10.368   7.395  68.496  1.00  0.00    -0.198 A  
HETATM   19  C   UNL     1      -9.523   8.272  67.794  1.00  0.00    -0.171 A  
BRANCH  19  20
HETATM   20  C   UNL     1      -9.560   9.702  67.632  1.00  0.00    -0.142 A  
HETATM   21  C   UNL     1      -8.391  10.454  67.508  1.00  0.00    -0.114 A  
HETATM   22  C   UNL     1      -6.984  10.239  67.563  1.00  0.00    -0.085 A  
HETATM   23  C   UNL     1      -6.366  11.448  67.325  1.00  0.00    -0.097 A  
HETATM   24  N   UNL     1      -7.345  12.392  67.152  1.00  0.00    -0.300 NA 
HETATM   25  H   UNL     1      -7.181  13.380  66.957  1.00  0.00     0.000 HD 
HETATM   26  C   UNL     1      -8.576  11.807  67.278  1.00  0.00    -0.162 A  
HETATM   27  N   UNL     1      -9.744  12.460  67.183  1.00  0.00    -0.204 NA 
HETATM   28  C   UNL     1     -10.791  11.634  67.350  1.00  0.00    -0.250 A  
HETATM   29  N   UNL     1     -10.770  10.307  67.573  1.00  0.00    -0.276 NA 
ENDBRANCH  19  20
ENDBRANCH   8  15
ENDBRANCH   3   6
ENDBRANCH   2   3
TORSDOF 6
ENDMDL
MODEL      287
REMARK 921   NORMALIZED FREE ENERGY PREDICTED BY IDOCK:    1.04 KCAL/MOL
REMARK 922        TOTAL FREE ENERGY PREDICTED BY IDOCK:    0.90 KCAL/MOL
REMARK 923 INTER-LIGAND FREE ENERGY PREDICTED BY IDOCK:   -1.24 KCAL/MOL
REMARK 924 INTRA-LIGAND FREE ENERGY PREDICTED BY IDOCK:    2.14 KCAL/MOL
REMARK 927      BINDING AFFINITY PREDICTED BY RF-SCORE:    0.00 PKD
ROOT
HETATM    1  C   UNL     1      -9.854  15.567  68.747  1.00  0.00    -0.217 C  
HETATM    2  C   UNL     1     -10.803  16.350  67.865  1.00  0.00    -0.328 C  
ENDROOT
BRANCH   2   3
HETATM    3  S   UNL     1     -11.562  15.312  66.627  1.00  0.00     0.072 S  
HETATM    4  O   UNL     1     -12.979  15.587  66.591  1.00  0.00     1.951 OA 
HETATM    5  O   UNL     1     -10.742  15.335  65.435  1.00  0.00    -0.337 OA 
BRANCH   3   6
HETATM    6  N   UNL     1     -11.355  13.809  67.363  1.00  0.00    -0.309 N  
HETATM    7  C   UNL     1     -11.221  13.563  68.829  1.00  0.00    -0.274 C  
HETATM    8  C   UNL     1     -11.711  12.091  68.620  1.00  0.00    -0.326 C  
HETATM    9  C   UNL     1     -12.277  12.640  67.271  1.00  0.00     0.096 C  
BRANCH   8  10
HETATM   10  C   UNL     1     -12.664  11.519  69.660  1.00  0.00     0.225 C  
BRANCH  10  11
HETATM   11  C   UNL     1     -12.352  10.064  69.972  1.00  0.00     0.083 C  
HETATM   12  H1  UNL     1     -11.884   7.881  70.438  1.00  0.00     0.000 HD 
HETATM   13  N   UNL     1     -12.093   8.857  70.230  1.00  0.00    -0.391 NA 
HETATM   14  H2  UNL     1     -11.149   8.544  70.001  1.00  0.00     0.000 HD 
ENDBRANCH  10  11
ENDBRANCH   8  10
BRANCH   8  15
HETATM   15  N   UNL     1     -10.550  11.225  68.464  1.00  0.00    -0.190 NA 
HETATM   16  N   UNL     1     -10.109  10.887  67.232  1.00  0.00    -0.185 NA 
HETATM   17  C   UNL     1      -9.820  10.633  69.460  1.00  0.00    -0.084 A  
HETATM   18  C   UNL     1      -9.086  10.064  67.468  1.00  0.00    -0.134 A  
HETATM   19  C   UNL     1      -8.863   9.859  68.841  1.00  0.00    -0.145 A  
BRANCH  19  20
HETATM   20  C   UNL     1      -7.871   9.083  69.537  1.00  0.00    -0.094 A  
HETATM   21  C   UNL     1      -7.865   7.688  69.485  1.00  0.00    -0.115 A  
HETATM   22  C   UNL     1      -8.672   6.647  68.944  1.00  0.00    -0.128 A  
HETATM   23  C   UNL     1      -8.063   5.447  69.244  1.00  0.00    -0.093 A  
HETATM   24  N   UNL     1      -6.930   5.721  69.966  1.00  0.00    -0.063 NA 
HETATM   25  H   UNL     1      -6.277   5.022  70.322  1.00  0.00     0.000 HD 
HETATM   26  C   UNL     1      -6.808   7.073  70.135  1.00  0.00    -0.060 A  
HETATM   27  N   UNL     1      -5.817   7.670  70.814  1.00  0.00    -0.030 NA 
HETATM   28  C   UNL     1      -5.952   9.008  70.818  1.00  0.00    -0.041 A  
HETATM   29  N   UNL     1      -6.913   9.744  70.231  1.00  0.00    -0.119 NA 
ENDBRANCH  19  20
ENDBRANCH   8  15
ENDBRANCH   3   6
ENDBRANCH   2   3
TORSDOF 6
ENDMDL
MODEL      288
REMARK 921   NORMALIZED FREE ENERGY PREDICTED BY IDOCK:    1.28 KCAL/MOL
REMARK 922        TOTAL FREE ENERGY PREDICTED BY IDOCK:    1.21 KCAL/MOL
REMARK 923 INTER-LIGAND FREE ENERGY PREDICTED BY IDOCK:    1.55 KCAL/MOL
REMARK 924 INTRA-LIGAND FREE ENERGY PREDICTED BY IDOCK:   -0.33 KCAL/MOL
REMARK 927      BINDING AFFINITY PREDICTED BY RF-SCORE:    0.00 PKD
ROOT
HETATM    1  C   UNL     1      -7.610  14.833  71.447  1.00  0.00     2.774 C  
HETATM    2  C   UNL     1      -8.150  14.191  70.186  1.00  0.00     1.457 C  
ENDROOT
BRANCH   2   3
HETATM    3  S   UNL     1      -6.898  14.066  68.920  1.00  0.00    -0.111 S  
HETATM    4  O   UNL     1      -7.095  15.129  67.962  1.00  0.00    -0.106 OA 
HETATM    5  O   UNL     1      -5.620  13.826  69.552  1.00  0.00    -0.085 OA 
BRANCH   3   6
HETATM    6  N   UNL     1      -7.389  12.627  68.189  1.00  0.00    -0.101 N  
HETATM    7  C   UNL     1      -8.759  12.039  68.246  1.00  0.00    -0.178 C  
HETATM    8  C   UNL     1      -8.467  11.250  66.926  1.00  0.00    -0.152 C  
HETATM    9  C   UNL     1      -7.331  12.306  66.734  1.00  0.00     0.141 C  
BRANCH   8  10
HETATM   10  C   UNL     1      -9.593  11.159  65.904  1.00  0.00    -0.250 C  
BRANCH  10  11
HETATM   11  C   UNL     1      -9.961  12.524  65.347  1.00  0.00    -0.219 C  
HETATM   12  H1  UNL     1     -10.513  14.574  64.511  1.00  0.00     0.000 HD 
HETATM   13  N   UNL     1     -10.266  13.658  64.886  1.00  0.00    -0.549 NA 
HETATM   14  H2  UNL     1     -10.169  14.444  65.529  1.00  0.00     0.000 HD 
ENDBRANCH  10  11
ENDBRANCH   8  10
BRANCH   8  15
HETATM   15  N   UNL     1      -7.985   9.919  67.269  1.00  0.00    -0.109 NA 
HETATM   16  N   UNL     1      -6.754   9.754  67.803  1.00  0.00    -0.068 NA 
HETATM   17  C   UNL     1      -8.631   8.728  67.073  1.00  0.00    -0.116 A  
HETATM   18  C   UNL     1      -6.633   8.433  67.938  1.00  0.00    -0.061 A  
HETATM   19  C   UNL     1      -7.770   7.737  67.491  1.00  0.00    -0.117 A  
BRANCH  19  20
HETATM   20  C   UNL     1      -8.078   6.332  67.473  1.00  0.00    -0.113 A  
HETATM   21  C   UNL     1      -8.510   5.694  66.309  1.00  0.00    -0.124 A  
HETATM   22  C   UNL     1      -8.851   6.048  64.972  1.00  0.00     0.100 A  
HETATM   23  C   UNL     1      -9.186   4.890  64.305  1.00  0.00     0.046 A  
HETATM   24  N   UNL     1      -9.085   3.850  65.192  1.00  0.00    -0.134 NA 
HETATM   25  H   UNL     1      -9.272   2.871  64.974  1.00  0.00     0.000 HD 
HETATM   26  C   UNL     1      -8.694   4.325  66.415  1.00  0.00    -0.113 A  
HETATM   27  N   UNL     1      -8.520   3.566  67.507  1.00  0.00    -0.094 NA 
HETATM   28  C   UNL     1      -8.135   4.300  68.566  1.00  0.00    -0.077 A  
HETATM   29  N   UNL     1      -7.911   5.626  68.616  1.00  0.00    -0.095 NA 
ENDBRANCH  19  20
ENDBRANCH   8  15
ENDBRANCH   3   6
ENDBRANCH   2   3
TORSDOF 6
ENDMDL
MODEL      289
REMARK 921   NORMALIZED FREE ENERGY PREDICTED BY IDOCK:    5.17 KCAL/MOL
REMARK 922        TOTAL FREE ENERGY PREDICTED BY IDOCK:    6.48 KCAL/MOL
REMARK 923 INTER-LIGAND FREE ENERGY PREDICTED BY IDOCK:    5.73 KCAL/MOL
REMARK 924 INTRA-LIGAND FREE ENERGY PREDICTED BY IDOCK:    0.75 KCAL/MOL
REMARK 927      BINDING AFFINITY PREDICTED BY RF-SCORE:    0.00 PKD
ROOT
HETATM    1  C   UNL     1     -11.284  14.344  63.505  1.00  0.00     1.410 C  
HETATM    2  C   UNL     1     -12.452  13.380  63.548  1.00  0.00    -0.210 C  
ENDROOT
BRANCH   2   3
HETATM    3  S   UNL     1     -12.210  12.103  64.771  1.00  0.00    -0.170 S  
HETATM    4  O   UNL     1     -13.493  11.535  65.113  1.00  0.00     2.641 OA 
HETATM    5  O   UNL     1     -11.086  11.284  64.372  1.00  0.00    -0.310 OA 
BRANCH   3   6
HETATM    6  N   UNL     1     -11.714  13.057  66.071  1.00  0.00    -0.372 N  
HETATM    7  C   UNL     1     -11.722  14.549  66.115  1.00  0.00    -0.350 C  
HETATM    8  C   UNL     1     -11.769  14.495  67.679  1.00  0.00    -0.382 C  
HETATM    9  C   UNL     1     -12.269  13.031  67.454  1.00  0.00    -0.097 C  
BRANCH   8  10
HETATM   10  C   UNL     1     -12.669  15.500  68.384  1.00  0.00     1.225 C  
BRANCH  10  11
HETATM   11  C   UNL     1     -12.870  15.146  69.849  1.00  0.00    -0.003 C  
HETATM   12  H1  UNL     1     -13.172  14.615  72.047  1.00  0.00     0.000 HD 
HETATM   13  N   UNL     1     -13.037  14.852  71.064  1.00  0.00    -0.378 NA 
HETATM   14  H2  UNL     1     -13.692  14.093  71.254  1.00  0.00     0.000 HD 
ENDBRANCH  10  11
ENDBRANCH   8  10
BRANCH   8  15
HETATM   15  N   UNL     1     -10.409  14.581  68.194  1.00  0.00    -0.229 NA 
HETATM   16  N   UNL     1      -9.630  13.478  68.258  1.00  0.00    -0.218 NA 
HETATM   17  C   UNL     1      -9.784  15.691  68.697  1.00  0.00    -0.204 A  
HETATM   18  C   UNL     1      -8.499  13.912  68.815  1.00  0.00    -0.008 A  
HETATM   19  C   UNL     1      -8.537  15.284  69.121  1.00  0.00    -0.235 A  
BRANCH  19  20
HETATM   20  C   UNL     1      -7.550  16.158  69.696  1.00  0.00     0.090 A  
HETATM   21  C   UNL     1      -6.817  15.790  70.826  1.00  0.00     1.181 A  
HETATM   22  C   UNL     1      -6.775  14.709  71.753  1.00  0.00     1.396 A  
HETATM   23  C   UNL     1      -5.761  14.967  72.650  1.00  0.00     0.526 A  
HETATM   24  N   UNL     1      -5.203  16.174  72.317  1.00  0.00     0.151 NA 
HETATM   25  H   UNL     1      -4.427  16.619  72.807  1.00  0.00     0.000 HD 
HETATM   26  C   UNL     1      -5.845  16.692  71.225  1.00  0.00     0.856 A  
HETATM   27  N   UNL     1      -5.554  17.872  70.657  1.00  0.00    -0.204 NA 
HETATM   28  C   UNL     1      -6.347  18.126  69.602  1.00  0.00    -0.179 A  
HETATM   29  N   UNL     1      -7.322  17.350  69.094  1.00  0.00    -0.197 NA 
ENDBRANCH  19  20
ENDBRANCH   8  15
ENDBRANCH   3   6
ENDBRANCH   2   3
TORSDOF 6
ENDMDL
MODEL      290
REMARK 921   NORMALIZED FREE ENERGY PREDICTED BY IDOCK:    5.68 KCAL/MOL
REMARK 922        TOTAL FREE ENERGY PREDICTED BY IDOCK:    7.16 KCAL/MOL
REMARK 923 INTER-LIGAND FREE ENERGY PREDICTED BY IDOCK:    7.79 KCAL/MOL
REMARK 924 INTRA-LIGAND FREE ENERGY PREDICTED BY IDOCK:   -0.63 KCAL/MOL
REMARK 927      BINDING AFFINITY PREDICTED BY RF-SCORE:    0.00 PKD
ROOT
HETATM    1  C   UNL     1      -6.684  13.371  67.822  1.00  0.00    -0.163 C  
HETATM    2  C   UNL     1      -7.971  13.554  67.045  1.00  0.00     0.051 C  
ENDROOT
BRANCH   2   3
HETATM    3  S   UNL     1      -9.362  12.823  67.892  1.00  0.00    -0.214 S  
HETATM    4  O   UNL     1      -8.986  12.550  69.259  1.00  0.00     0.579 OA 
HETATM    5  O   UNL     1     -10.555  13.570  67.556  1.00  0.00    -0.242 OA 
BRANCH   3   6
HETATM    6  N   UNL     1      -9.434  11.347  67.079  1.00  0.00    -0.172 N  
HETATM    7  C   UNL     1     -10.509  10.322  67.220  1.00  0.00    -0.253 C  
HETATM    8  C   UNL     1     -10.144   9.755  65.807  1.00  0.00    -0.238 C  
HETATM    9  C   UNL     1      -9.461  11.146  65.602  1.00  0.00    -0.224 C  
BRANCH   8  10
HETATM   10  C   UNL     1     -11.296   9.340  64.903  1.00  0.00     6.857 C  
BRANCH  10  11
HETATM   11  C   UNL     1     -12.019  10.545  64.321  1.00  0.00     3.544 C  
HETATM   12  H1  UNL     1     -13.103  12.351  63.448  1.00  0.00     0.000 HD 
HETATM   13  N   UNL     1     -12.619  11.543  63.838  1.00  0.00    -0.256 NA 
HETATM   14  H2  UNL     1     -13.041  11.409  62.919  1.00  0.00     0.000 HD 
ENDBRANCH  10  11
ENDBRANCH   8  10
BRANCH   8  15
HETATM   15  N   UNL     1      -9.204   8.654  65.969  1.00  0.00    -0.210 NA 
HETATM   16  N   UNL     1      -8.202   8.474  65.080  1.00  0.00    -0.151 NA 
HETATM   17  C   UNL     1      -9.221   7.687  66.939  1.00  0.00    -0.145 A  
HETATM   18  C   UNL     1      -7.587   7.369  65.504  1.00  0.00    -0.094 A  
HETATM   19  C   UNL     1      -8.183   6.826  66.656  1.00  0.00    -0.115 A  
BRANCH  19  20
HETATM   20  C   UNL     1      -7.841   5.678  67.453  1.00  0.00    -0.101 A  
HETATM   21  C   UNL     1      -7.970   5.687  68.842  1.00  0.00    -0.097 A  
HETATM   22  C   UNL     1      -8.316   6.615  69.866  1.00  0.00    -0.132 A  
HETATM   23  C   UNL     1      -8.269   5.947  71.071  1.00  0.00    -0.122 A  
HETATM   24  N   UNL     1      -7.884   4.655  70.818  1.00  0.00    -0.071 NA 
HETATM   25  H   UNL     1      -7.766   3.928  71.524  1.00  0.00     0.000 HD 
HETATM   26  C   UNL     1      -7.682   4.489  69.475  1.00  0.00    -0.055 A  
HETATM   27  N   UNL     1      -7.280   3.346  68.899  1.00  0.00    -0.049 NA 
HETATM   28  C   UNL     1      -7.164   3.474  67.567  1.00  0.00    -0.059 A  
HETATM   29  N   UNL     1      -7.413   4.562  66.815  1.00  0.00    -0.081 NA 
ENDBRANCH  19  20
ENDBRANCH   8  15
ENDBRANCH   3   6
ENDBRANCH   2   3
TORSDOF 6
ENDMDL
MODEL      291
REMARK 921   NORMALIZED FREE ENERGY PREDICTED BY IDOCK:    6.15 KCAL/MOL
REMARK 922        TOTAL FREE ENERGY PREDICTED BY IDOCK:    7.79 KCAL/MOL
REMARK 923 INTER-LIGAND FREE ENERGY PREDICTED BY IDOCK:    4.14 KCAL/MOL
REMARK 924 INTRA-LIGAND FREE ENERGY PREDICTED BY IDOCK:    3.65 KCAL/MOL
REMARK 927      BINDING AFFINITY PREDICTED BY RF-SCORE:    0.00 PKD
ROOT
HETATM    1  C   UNL     1      -9.013  15.878  68.102  1.00  0.00    -0.181 C  
HETATM    2  C   UNL     1      -9.921  17.042  67.763  1.00  0.00    -0.280 C  
ENDROOT
BRANCH   2   3
HETATM    3  S   UNL     1     -11.257  16.546  66.689  1.00  0.00     0.516 S  
HETATM    4  O   UNL     1     -12.497  17.070  67.213  1.00  0.00     2.636 OA 
HETATM    5  O   UNL     1     -10.852  16.755  65.316  1.00  0.00    -0.497 OA 
BRANCH   3   6
HETATM    6  N   UNL     1     -11.244  14.885  66.982  1.00  0.00    -0.339 N  
HETATM    7  C   UNL     1     -10.667  14.212  68.182  1.00  0.00    -0.245 C  
HETATM    8  C   UNL     1     -11.603  12.983  67.934  1.00  0.00    -0.342 C  
HETATM    9  C   UNL     1     -12.433  13.990  67.074  1.00  0.00    -0.091 C  
BRANCH   8  10
HETATM   10  C   UNL     1     -12.238  12.332  69.155  1.00  0.00    -0.075 C  
BRANCH  10  11
HETATM   11  C   UNL     1     -11.999  10.831  69.183  1.00  0.00    -0.230 C  
HETATM   12  H1  UNL     1     -11.642   8.579  69.225  1.00  0.00     0.000 HD 
HETATM   13  N   UNL     1     -11.801   9.586  69.206  1.00  0.00    -0.122 NA 
HETATM   14  H2  UNL     1     -11.014   9.248  68.651  1.00  0.00     0.000 HD 
ENDBRANCH  10  11
ENDBRANCH   8  10
BRANCH   8  15
HETATM   15  N   UNL     1     -10.881  11.991  67.149  1.00  0.00    -0.242 NA 
HETATM   16  N   UNL     1     -10.865  12.067  65.799  1.00  0.00    -0.277 NA 
HETATM   17  C   UNL     1     -10.206  10.895  67.617  1.00  0.00    -0.183 A  
HETATM   18  C   UNL     1     -10.169  10.993  65.422  1.00  0.00    -0.274 A  
HETATM   19  C   UNL     1      -9.738  10.217  66.513  1.00  0.00    -0.243 A  
BRANCH  19  20
HETATM   20  C   UNL     1      -8.953   9.013  66.572  1.00  0.00    -0.146 A  
HETATM   21  C   UNL     1      -9.429   7.805  66.059  1.00  0.00    -0.058 A  
HETATM   22  C   UNL     1     -10.628   7.302  65.478  1.00  0.00     3.268 A  
HETATM   23  C   UNL     1     -10.415   5.977  65.160  1.00  0.00     2.244 A  
HETATM   24  N   UNL     1      -9.141   5.653  65.547  1.00  0.00    -0.305 NA 
HETATM   25  H   UNL     1      -8.707   4.736  65.433  1.00  0.00     0.000 HD 
HETATM   26  C   UNL     1      -8.539   6.745  66.110  1.00  0.00    -0.143 A  
HETATM   27  N   UNL     1      -7.294   6.757  66.610  1.00  0.00    -0.073 NA 
HETATM   28  C   UNL     1      -6.966   7.965  67.100  1.00  0.00    -0.074 A  
HETATM   29  N   UNL     1      -7.715   9.082  67.116  1.00  0.00    -0.098 NA 
ENDBRANCH  19  20
ENDBRANCH   8  15
ENDBRANCH   3   6
ENDBRANCH   2   3
TORSDOF 6
ENDMDL
MODEL      292
REMARK 921   NORMALIZED FREE ENERGY PREDICTED BY IDOCK:    6.76 KCAL/MOL
REMARK 922        TOTAL FREE ENERGY PREDICTED BY IDOCK:    8.62 KCAL/MOL
REMARK 923 INTER-LIGAND FREE ENERGY PREDICTED BY IDOCK:    8.81 KCAL/MOL
REMARK 924 INTRA-LIGAND FREE ENERGY PREDICTED BY IDOCK:   -0.19 KCAL/MOL
REMARK 927      BINDING AFFINITY PREDICTED BY RF-SCORE:    0.00 PKD
ROOT
HETATM    1  C   UNL     1      -7.899  14.673  71.954  1.00  0.00     4.608 C  
HETATM    2  C   UNL     1      -8.139  13.678  70.838  1.00  0.00     5.250 C  
ENDROOT
BRANCH   2   3
HETATM    3  S   UNL     1      -6.706  13.504  69.789  1.00  0.00     0.172 S  
HETATM    4  O   UNL     1      -6.873  14.346  68.627  1.00  0.00    -0.085 OA 
HETATM    5  O   UNL     1      -5.518  13.554  70.612  1.00  0.00    -0.125 OA 
BRANCH   3   6
HETATM    6  N   UNL     1      -6.921  11.906  69.292  1.00  0.00    -0.083 N  
HETATM    7  C   UNL     1      -8.231  11.222  69.088  1.00  0.00     0.054 C  
HETATM    8  C   UNL     1      -7.540  10.205  68.119  1.00  0.00    -0.087 C  
HETATM    9  C   UNL     1      -6.425  11.296  68.025  1.00  0.00    -0.057 C  
BRANCH   8  10
HETATM   10  C   UNL     1      -8.309   9.802  66.868  1.00  0.00    -0.120 C  
BRANCH  10  11
HETATM   11  C   UNL     1      -8.400  10.945  65.869  1.00  0.00    -0.149 C  
HETATM   12  H1  UNL     1      -8.536  12.659  64.371  1.00  0.00     0.000 HD 
HETATM   13  N   UNL     1      -8.475  11.892  65.040  1.00  0.00     0.274 NA 
HETATM   14  H2  UNL     1      -8.864  11.657  64.127  1.00  0.00     0.000 HD 
ENDBRANCH  10  11
ENDBRANCH   8  10
BRANCH   8  15
HETATM   15  N   UNL     1      -7.149   9.024  68.876  1.00  0.00    -0.068 NA 
HETATM   16  N   UNL     1      -6.166   9.099  69.802  1.00  0.00    -0.038 NA 
HETATM   17  C   UNL     1      -7.642   7.753  68.742  1.00  0.00    -0.101 A  
HETATM   18  C   UNL     1      -6.044   7.848  70.248  1.00  0.00    -0.032 A  
HETATM   19  C   UNL     1      -6.933   6.960  69.617  1.00  0.00    -0.063 A  
BRANCH  19  20
HETATM   20  C   UNL     1      -7.159   5.551  69.802  1.00  0.00    -0.063 A  
HETATM   21  C   UNL     1      -7.448   4.710  68.725  1.00  0.00    -0.064 A  
HETATM   22  C   UNL     1      -7.686   4.827  67.326  1.00  0.00    -0.091 A  
HETATM   23  C   UNL     1      -7.894   3.558  66.830  1.00  0.00    -0.080 A  
HETATM   24  N   UNL     1      -7.815   2.679  67.879  1.00  0.00    -0.059 NA 
HETATM   25  H   UNL     1      -7.926   1.668  67.808  1.00  0.00     0.000 HD 
HETATM   26  C   UNL     1      -7.563   3.365  69.036  1.00  0.00    -0.052 A  
HETATM   27  N   UNL     1      -7.447   2.801  70.247  1.00  0.00    -0.043 NA 
HETATM   28  C   UNL     1      -7.200   3.715  71.201  1.00  0.00    -0.033 A  
HETATM   29  N   UNL     1      -7.056   5.045  71.054  1.00  0.00    -0.054 NA 
ENDBRANCH  19  20
ENDBRANCH   8  15
ENDBRANCH   3   6
ENDBRANCH   2   3
TORSDOF 6
ENDMDL
MODEL      293
REMARK 921   NORMALIZED FREE ENERGY PREDICTED BY IDOCK:   14.64 KCAL/MOL
REMARK 922        TOTAL FREE ENERGY PREDICTED BY IDOCK:   19.26 KCAL/MOL
REMARK 923 INTER-LIGAND FREE ENERGY PREDICTED BY IDOCK:   19.54 KCAL/MOL
REMARK 924 INTRA-LIGAND FREE ENERGY PREDICTED BY IDOCK:   -0.28 KCAL/MOL
REMARK 927      BINDING AFFINITY PREDICTED BY RF-SCORE:    0.00 PKD
ROOT
HETATM    1  C   UNL     1      -8.263  14.292  72.384  1.00  0.00     7.838 C  
HETATM    2  C   UNL     1      -8.112  13.050  71.532  1.00  0.00    11.366 C  
ENDROOT
BRANCH   2   3
HETATM    3  S   UNL     1      -6.402  12.720  71.142  1.00  0.00     1.824 S  
HETATM    4  O   UNL     1      -6.007  13.554  70.030  1.00  0.00    -0.127 OA 
HETATM    5  O   UNL     1      -5.646  12.671  72.375  1.00  0.00    -0.142 OA 
BRANCH   3   6
HETATM    6  N   UNL     1      -6.550  11.142  70.566  1.00  0.00     0.158 N  
HETATM    7  C   UNL     1      -7.635  10.632  69.678  1.00  0.00    -0.092 C  
HETATM    8  C   UNL     1      -6.692   9.478  69.200  1.00  0.00    -0.049 C  
HETATM    9  C   UNL     1      -5.552  10.400  69.743  1.00  0.00    -0.040 C  
BRANCH   8  10
HETATM   10  C   UNL     1      -6.728   9.115  67.722  1.00  0.00    -0.065 C  
BRANCH  10  11
HETATM   11  C   UNL     1      -8.127   9.247  67.142  1.00  0.00    -0.109 C  
HETATM   12  H1  UNL     1     -10.227   9.445  66.273  1.00  0.00     0.000 HD 
HETATM   13  N   UNL     1      -9.288   9.357  66.662  1.00  0.00    -0.154 NA 
HETATM   14  H2  UNL     1     -10.055   9.315  67.333  1.00  0.00     0.000 HD 
ENDBRANCH  10  11
ENDBRANCH   8  10
BRANCH   8  15
HETATM   15  N   UNL     1      -6.938   8.299  70.018  1.00  0.00    -0.043 NA 
HETATM   16  N   UNL     1      -6.672   8.318  71.344  1.00  0.00    -0.051 NA 
HETATM   17  C   UNL     1      -7.391   7.078  69.595  1.00  0.00    -0.086 A  
HETATM   18  C   UNL     1      -6.963   7.082  71.751  1.00  0.00    -0.068 A  
HETATM   19  C   UNL     1      -7.409   6.258  70.702  1.00  0.00    -0.082 A  
BRANCH  19  20
HETATM   20  C   UNL     1      -7.847   4.887  70.691  1.00  0.00    -0.070 A  
HETATM   21  C   UNL     1      -6.958   3.839  70.444  1.00  0.00    -0.034 A  
HETATM   22  C   UNL     1      -5.589   3.674  70.087  1.00  0.00    -0.016 A  
HETATM   23  C   UNL     1      -5.334   2.321  70.023  1.00  0.00    -0.012 A  
HETATM   24  N   UNL     1      -6.501   1.660  70.303  1.00  0.00    -0.024 NA 
HETATM   25  H   UNL     1      -6.611   0.646  70.330  1.00  0.00     0.000 HD 
HETATM   26  C   UNL     1      -7.498   2.567  70.542  1.00  0.00    -0.036 A  
HETATM   27  N   UNL     1      -8.769   2.246  70.826  1.00  0.00    -0.056 NA 
HETATM   28  C   UNL     1      -9.528   3.339  71.012  1.00  0.00    -0.158 A  
HETATM   29  N   UNL     1      -9.149   4.629  70.957  1.00  0.00    -0.127 NA 
ENDBRANCH  19  20
ENDBRANCH   8  15
ENDBRANCH   3   6
ENDBRANCH   2   3
TORSDOF 6
ENDMDL
MODEL      294
REMARK 921   NORMALIZED FREE ENERGY PREDICTED BY IDOCK:   26.53 KCAL/MOL
REMARK 922        TOTAL FREE ENERGY PREDICTED BY IDOCK:   35.33 KCAL/MOL
REMARK 923 INTER-LIGAND FREE ENERGY PREDICTED BY IDOCK:   35.65 KCAL/MOL
REMARK 924 INTRA-LIGAND FREE ENERGY PREDICTED BY IDOCK:   -0.32 KCAL/MOL
REMARK 927      BINDING AFFINITY PREDICTED BY RF-SCORE:    0.00 PKD
ROOT
HETATM    1  C   UNL     1      -8.486  14.207  72.528  1.00  0.00     9.319 C  
HETATM    2  C   UNL     1      -8.506  13.038  71.566  1.00  0.00    13.732 C  
ENDROOT
BRANCH   2   3
HETATM    3  S   UNL     1      -6.894  12.292  71.399  1.00  0.00     5.041 S  
HETATM    4  O   UNL     1      -5.970  13.283  70.898  1.00  0.00    -0.173 OA 
HETATM    5  O   UNL     1      -6.618  11.511  72.585  1.00  0.00     3.843 OA 
BRANCH   3   6
HETATM    6  N   UNL     1      -7.217  11.217  70.139  1.00  0.00     0.439 N  
HETATM    7  C   UNL     1      -7.912  11.549  68.861  1.00  0.00    -0.057 C  
HETATM    8  C   UNL     1      -7.220  10.325  68.175  1.00  0.00    -0.084 C  
HETATM    9  C   UNL     1      -6.215  10.427  69.368  1.00  0.00    -0.049 C  
BRANCH   8  10
HETATM   10  C   UNL     1      -6.720  10.515  66.750  1.00  0.00    -0.091 C  
BRANCH  10  11
HETATM   11  C   UNL     1      -7.579  11.503  65.977  1.00  0.00     0.288 C  
HETATM   12  H1  UNL     1      -8.868  12.985  64.818  1.00  0.00     0.000 HD 
HETATM   13  N   UNL     1      -8.292  12.322  65.337  1.00  0.00     0.600 NA 
HETATM   14  H2  UNL     1      -9.240  12.461  65.689  1.00  0.00     0.000 HD 
ENDBRANCH  10  11
ENDBRANCH   8  10
BRANCH   8  15
HETATM   15  N   UNL     1      -8.112   9.176  68.251  1.00  0.00    -0.104 NA 
HETATM   16  N   UNL     1      -8.455   8.654  69.450  1.00  0.00    -0.124 NA 
HETATM   17  C   UNL     1      -8.654   8.478  67.205  1.00  0.00    -0.122 A  
HETATM   18  C   UNL     1      -9.223   7.608  69.141  1.00  0.00    -0.141 A  
HETATM   19  C   UNL     1      -9.377   7.441  67.754  1.00  0.00    -0.144 A  
BRANCH  19  20
HETATM   20  C   UNL     1     -10.125   6.479  66.989  1.00  0.00    -0.179 A  
HETATM   21  C   UNL     1      -9.548   5.286  66.551  1.00  0.00    -0.166 A  
HETATM   22  C   UNL     1      -8.268   4.663  66.564  1.00  0.00    -0.107 A  
HETATM   23  C   UNL     1      -8.395   3.431  65.959  1.00  0.00    -0.103 A  
HETATM   24  N   UNL     1      -9.699   3.293  65.559  1.00  0.00    -0.375 NA 
HETATM   25  H   UNL     1     -10.086   2.477  65.085  1.00  0.00     0.000 HD 
HETATM   26  C   UNL     1     -10.405   4.417  65.895  1.00  0.00    -0.204 A  
HETATM   27  N   UNL     1     -11.705   4.610  65.626  1.00  0.00     1.089 NA 
HETATM   28  C   UNL     1     -12.132   5.805  66.070  1.00  0.00     3.275 A  
HETATM   29  N   UNL     1     -11.427   6.745  66.725  1.00  0.00     0.243 NA 
ENDBRANCH  19  20
ENDBRANCH   8  15
ENDBRANCH   3   6
ENDBRANCH   2   3
TORSDOF 6
ENDMDL
MODEL      295
REMARK 921   NORMALIZED FREE ENERGY PREDICTED BY IDOCK:   41.48 KCAL/MOL
REMARK 922        TOTAL FREE ENERGY PREDICTED BY IDOCK:   55.52 KCAL/MOL
REMARK 923 INTER-LIGAND FREE ENERGY PREDICTED BY IDOCK:   55.93 KCAL/MOL
REMARK 924 INTRA-LIGAND FREE ENERGY PREDICTED BY IDOCK:   -0.41 KCAL/MOL
REMARK 927      BINDING AFFINITY PREDICTED BY RF-SCORE:    0.00 PKD
ROOT
HETATM    1  C   UNL     1      -9.367   4.948  70.898  1.00  0.00    -0.210 C  
HETATM    2  C   UNL     1      -8.928   5.627  69.618  1.00  0.00    -0.123 C  
ENDROOT
BRANCH   2   3
HETATM    3  S   UNL     1      -9.582   4.803  68.176  1.00  0.00    -0.142 S  
HETATM    4  O   UNL     1      -8.483   4.418  67.320  1.00  0.00    -0.104 OA 
HETATM    5  O   UNL     1     -10.596   3.863  68.598  1.00  0.00     1.020 OA 
BRANCH   3   6
HETATM    6  N   UNL     1     -10.362   6.108  67.444  1.00  0.00    -0.181 N  
HETATM    7  C   UNL     1     -10.869   6.149  66.041  1.00  0.00     0.751 C  
HETATM    8  C   UNL     1     -11.879   7.274  66.448  1.00  0.00     4.183 C  
HETATM    9  C   UNL     1     -11.624   6.757  67.900  1.00  0.00     0.627 C  
BRANCH   8  10
HETATM   10  C   UNL     1     -13.280   7.200  65.856  1.00  0.00    14.614 C  
BRANCH  10  11
HETATM   11  C   UNL     1     -13.280   6.542  64.485  1.00  0.00    12.158 C  
HETATM   12  H1  UNL     1     -13.280   5.554  62.429  1.00  0.00     0.000 HD 
HETATM   13  N   UNL     1     -13.279   5.996  63.348  1.00  0.00     6.910 NA 
HETATM   14  H2  UNL     1     -12.667   6.419  62.650  1.00  0.00     0.000 HD 
ENDBRANCH  10  11
ENDBRANCH   8  10
BRANCH   8  15
HETATM   15  N   UNL     1     -11.278   8.571  66.168  1.00  0.00     2.286 NA 
HETATM   16  N   UNL     1     -11.770   9.691  66.744  1.00  0.00     1.822 NA 
HETATM   17  C   UNL     1     -10.242   8.836  65.313  1.00  0.00     1.647 A  
HETATM   18  C   UNL     1     -11.026  10.672  66.232  1.00  0.00     0.053 A  
HETATM   19  C   UNL     1     -10.059  10.202  65.325  1.00  0.00    -0.344 A  
BRANCH  19  20
HETATM   20  C   UNL     1      -9.046  10.892  64.572  1.00  0.00    -0.163 A  
HETATM   21  C   UNL     1      -8.116  10.202  63.794  1.00  0.00    -0.160 A  
HETATM   22  C   UNL     1      -7.761   8.850  63.521  1.00  0.00    -0.128 A  
HETATM   23  C   UNL     1      -6.729   8.864  62.608  1.00  0.00    -0.094 A  
HETATM   24  N   UNL     1      -6.429  10.173  62.334  1.00  0.00    -0.114 NA 
HETATM   25  H   UNL     1      -5.705  10.488  61.688  1.00  0.00     0.000 HD 
HETATM   26  C   UNL     1      -7.250  10.994  63.060  1.00  0.00     0.449 A  
HETATM   27  N   UNL     1      -7.202  12.335  63.036  1.00  0.00     3.320 NA 
HETATM   28  C   UNL     1      -8.123  12.880  63.848  1.00  0.00     7.075 A  
HETATM   29  N   UNL     1      -9.031  12.246  64.613  1.00  0.00     0.779 NA 
ENDBRANCH  19  20
ENDBRANCH   8  15
ENDBRANCH   3   6
ENDBRANCH   2   3
TORSDOF 6
ENDMDL
MODEL      296
REMARK 921   NORMALIZED FREE ENERGY PREDICTED BY IDOCK:   50.66 KCAL/MOL
REMARK 922        TOTAL FREE ENERGY PREDICTED BY IDOCK:   67.92 KCAL/MOL
REMARK 923 INTER-LIGAND FREE ENERGY PREDICTED BY IDOCK:   65.65 KCAL/MOL
REMARK 924 INTRA-LIGAND FREE ENERGY PREDICTED BY IDOCK:    2.28 KCAL/MOL
REMARK 927      BINDING AFFINITY PREDICTED BY RF-SCORE:    0.00 PKD
ROOT
HETATM    1  C   UNL     1      -8.725  14.118  72.640  1.00  0.00     9.944 C  
HETATM    2  C   UNL     1      -8.712  12.725  72.047  1.00  0.00    19.701 C  
ENDROOT
BRANCH   2   3
HETATM    3  S   UNL     1      -7.172  11.883  72.373  1.00  0.00    11.526 S  
HETATM    4  O   UNL     1      -6.083  12.691  71.876  1.00  0.00     0.566 OA 
HETATM    5  O   UNL     1      -7.199  11.374  73.727  1.00  0.00     7.189 OA 
BRANCH   3   6
HETATM    6  N   UNL     1      -7.350  10.571  71.328  1.00  0.00     1.922 N  
HETATM    7  C   UNL     1      -7.841  10.634  69.920  1.00  0.00     0.163 C  
HETATM    8  C   UNL     1      -7.103   9.289  69.610  1.00  0.00    -0.061 C  
HETATM    9  C   UNL     1      -6.277   9.631  70.892  1.00  0.00    -0.087 C  
BRANCH   8  10
HETATM   10  C   UNL     1      -6.396   9.174  68.267  1.00  0.00    -0.054 C  
BRANCH  10  11
HETATM   11  C   UNL     1      -7.254   8.456  67.237  1.00  0.00    -0.084 C  
HETATM   12  H1  UNL     1      -8.541   7.379  65.693  1.00  0.00     0.000 HD 
HETATM   13  N   UNL     1      -7.966   7.860  66.384  1.00  0.00    -0.100 NA 
HETATM   14  H2  UNL     1      -8.699   7.256  66.756  1.00  0.00     0.000 HD 
ENDBRANCH  10  11
ENDBRANCH   8  10
BRANCH   8  15
HETATM   15  N   UNL     1      -8.038   8.186  69.787  1.00  0.00    -0.114 NA 
HETATM   16  N   UNL     1      -8.626   7.973  70.986  1.00  0.00    -0.129 NA 
HETATM   17  C   UNL     1      -8.396   7.246  68.857  1.00  0.00    -0.126 A  
HETATM   18  C   UNL     1      -9.361   6.877  70.797  1.00  0.00    -0.161 A  
HETATM   19  C   UNL     1      -9.251   6.371  69.489  1.00  0.00    -0.144 A  
BRANCH  19  20
HETATM   20  C   UNL     1      -9.876   5.243  68.851  1.00  0.00    -0.164 A  
HETATM   21  C   UNL     1      -9.269   3.986  68.831  1.00  0.00    -0.210 A  
HETATM   22  C   UNL     1      -8.036   3.400  69.236  1.00  0.00    -0.057 A  
HETATM   23  C   UNL     1      -8.091   2.057  68.933  1.00  0.00    -0.048 A  
HETATM   24  N   UNL     1      -9.301   1.811  68.338  1.00  0.00    -0.179 NA 
HETATM   25  H   UNL     1      -9.619   0.899  68.009  1.00  0.00     0.000 HD 
HETATM   26  C   UNL     1     -10.017   2.974  68.253  1.00  0.00     0.629 A  
HETATM   27  N   UNL     1     -11.236   3.080  67.704  1.00  0.00     6.952 NA 
HETATM   28  C   UNL     1     -11.698   4.341  67.757  1.00  0.00     8.445 A  
HETATM   29  N   UNL     1     -11.095   5.421  68.288  1.00  0.00     0.328 NA 
ENDBRANCH  19  20
ENDBRANCH   8  15
ENDBRANCH   3   6
ENDBRANCH   2   3
TORSDOF 6
ENDMDL
