MODEL        1
REMARK 921   NORMALIZED FREE ENERGY PREDICTED BY IDOCK:   -7.65 KCAL/MOL
REMARK 922        TOTAL FREE ENERGY PREDICTED BY IDOCK:  -13.85 KCAL/MOL
REMARK 923 INTER-LIGAND FREE ENERGY PREDICTED BY IDOCK:  -10.78 KCAL/MOL
REMARK 924 INTRA-LIGAND FREE ENERGY PREDICTED BY IDOCK:   -3.07 KCAL/MOL
REMARK 927      BINDING AFFINITY PREDICTED BY RF-SCORE:    0.00 PKD
ROOT
HETATM    1  C   UNL     1     -11.514  15.713  68.306  1.00  0.00    -0.353 C  
HETATM    2  C   UNL     1     -11.909  14.451  69.007  1.00  0.00    -0.358 A  
HETATM    3  C   UNL     1     -11.700  13.110  68.655  1.00  0.00    -0.326 A  
HETATM    4  C   UNL     1     -13.301  14.020  72.937  1.00  0.00    -0.487 A  
HETATM    5  N   UNL     1     -12.214  12.342  69.726  1.00  0.00    -0.188 NA 
HETATM    6  O   UNL     1     -13.899  16.269  73.215  1.00  0.00    -0.704 OA 
HETATM    7  C   UNL     1     -12.522  13.186  70.791  1.00  0.00    -0.308 A  
HETATM    8  C   UNL     1     -13.410  15.286  72.409  1.00  0.00    -0.435 A  
HETATM    9  C   UNL     1     -12.523  14.486  70.295  1.00  0.00    -0.405 A  
HETATM   10  H   UNL     1     -14.186  16.090  74.103  1.00  0.00     0.000 HD 
HETATM   11  C   UNL     1     -12.819  12.973  72.150  1.00  0.00    -0.253 A  
HETATM   12  C   UNL     1     -12.990  15.548  71.110  1.00  0.00    -0.560 A  
ENDROOT
BRANCH   3  13
HETATM   13  C   UNL     1     -11.064  12.564  67.421  1.00  0.00    -0.317 A  
HETATM   14  C   UNL     1      -9.862  11.372  65.154  1.00  0.00    -0.260 A  
HETATM   15  H   UNL     1      -8.383  10.397  64.161  1.00  0.00     0.000 HD 
HETATM   16  C   UNL     1      -9.751  12.063  67.458  1.00  0.00    -0.188 A  
HETATM   17  C   UNL     1      -9.166  11.440  66.349  1.00  0.00    -0.209 A  
HETATM   18  O   UNL     1      -9.257  10.765  64.095  1.00  0.00    -0.205 OA 
HETATM   19  C   UNL     1     -11.743  12.471  66.194  1.00  0.00    -0.466 A  
HETATM   20  C   UNL     1     -11.138  11.910  65.058  1.00  0.00    -0.360 A  
ENDBRANCH   3  13
BRANCH   5  21
HETATM   21  C   UNL     1     -12.392  10.867  69.683  1.00  0.00    -0.221 C  
BRANCH  21  22
HETATM   22  C   UNL     1     -11.444  10.027  70.503  1.00  0.00    -0.407 A  
HETATM   23  C   UNL     1      -9.248   9.062  70.796  1.00  0.00    -0.299 A  
HETATM   24  C   UNL     1     -11.042   8.313  72.195  1.00  0.00    -0.397 A  
HETATM   25  C   UNL     1     -10.095   9.963  70.157  1.00  0.00    -0.309 A  
HETATM   26  C   UNL     1      -9.741   8.155  71.740  1.00  0.00    -0.191 A  
HETATM   27  C   UNL     1     -11.849   9.302  71.636  1.00  0.00    -0.453 A  
BRANCH  26  28
HETATM   28  O   UNL     1      -9.031   7.084  72.246  1.00  0.00    -0.133 OA 
BRANCH  28  29
HETATM   29  C   UNL     1      -8.317   6.379  71.226  1.00  0.00    -0.123 C  
BRANCH  29  30
HETATM   30  C   UNL     1      -9.123   5.303  70.485  1.00  0.00    -0.141 C  
BRANCH  30  31
HETATM   31  N   UNL     1      -9.340   5.693  69.058  1.00  0.00    -0.121 NA 
HETATM   32  C   UNL     1     -10.719   6.165  68.842  1.00  0.00    -0.312 C  
HETATM   33  C   UNL     1     -11.118   6.592  67.431  1.00  0.00    -0.411 C  
HETATM   34  C   UNL     1     -10.496   7.911  67.018  1.00  0.00    -0.419 C  
HETATM   35  C   UNL     1      -9.093   7.778  66.447  1.00  0.00    -0.216 C  
HETATM   36  C   UNL     1      -8.200   6.727  67.097  1.00  0.00    -0.121 C  
HETATM   37  C   UNL     1      -8.300   6.634  68.624  1.00  0.00    -0.123 C  
ENDBRANCH  30  31
ENDBRANCH  29  30
ENDBRANCH  28  29
ENDBRANCH  26  28
ENDBRANCH  21  22
ENDBRANCH   5  21
TORSDOF 7
ENDMDL
MODEL        2
REMARK 921   NORMALIZED FREE ENERGY PREDICTED BY IDOCK:   -7.58 KCAL/MOL
REMARK 922        TOTAL FREE ENERGY PREDICTED BY IDOCK:  -13.75 KCAL/MOL
REMARK 923 INTER-LIGAND FREE ENERGY PREDICTED BY IDOCK:  -11.28 KCAL/MOL
REMARK 924 INTRA-LIGAND FREE ENERGY PREDICTED BY IDOCK:   -2.46 KCAL/MOL
REMARK 927      BINDING AFFINITY PREDICTED BY RF-SCORE:    0.00 PKD
ROOT
HETATM    1  C   UNL     1     -12.201  10.821  69.352  1.00  0.00    -0.242 C  
HETATM    2  C   UNL     1     -11.896  12.250  69.031  1.00  0.00    -0.358 A  
HETATM    3  C   UNL     1     -11.438  12.840  67.844  1.00  0.00    -0.317 A  
HETATM    4  C   UNL     1     -12.898  15.657  71.259  1.00  0.00    -0.550 A  
HETATM    5  N   UNL     1     -11.404  14.232  68.089  1.00  0.00    -0.273 NA 
HETATM    6  O   UNL     1     -13.300  14.508  73.263  1.00  0.00    -0.611 OA 
HETATM    7  C   UNL     1     -12.030  14.502  69.304  1.00  0.00    -0.319 A  
HETATM    8  C   UNL     1     -12.915  14.470  71.956  1.00  0.00    -0.341 A  
HETATM    9  C   UNL     1     -12.158  13.289  69.975  1.00  0.00    -0.385 A  
HETATM   10  H   UNL     1     -13.522  15.325  73.694  1.00  0.00     0.000 HD 
HETATM   11  C   UNL     1     -12.498  15.676  69.923  1.00  0.00    -0.192 A  
HETATM   12  C   UNL     1     -12.590  13.276  71.325  1.00  0.00    -0.398 A  
ENDROOT
BRANCH   3  13
HETATM   13  C   UNL     1     -11.063  12.174  66.563  1.00  0.00    -0.352 A  
HETATM   14  C   UNL     1     -10.305  11.064  64.073  1.00  0.00    -0.371 A  
HETATM   15  H   UNL     1     -10.451  10.790  62.066  1.00  0.00     0.000 HD 
HETATM   16  C   UNL     1     -11.799  12.416  65.391  1.00  0.00    -0.460 A  
HETATM   17  C   UNL     1     -11.407  11.898  64.151  1.00  0.00    -0.455 A  
HETATM   18  O   UNL     1      -9.958  10.575  62.850  1.00  0.00    -0.272 OA 
HETATM   19  C   UNL     1      -9.945  11.329  66.446  1.00  0.00    -0.252 A  
HETATM   20  C   UNL     1      -9.585  10.750  65.218  1.00  0.00    -0.278 A  
ENDBRANCH   3  13
BRANCH   5  21
HETATM   21  C   UNL     1     -10.782  15.225  67.174  1.00  0.00    -0.316 C  
BRANCH  21  22
HETATM   22  C   UNL     1      -9.342  15.599  67.426  1.00  0.00    -0.214 A  
HETATM   23  C   UNL     1      -7.556  16.044  68.992  1.00  0.00    -0.209 A  
HETATM   24  C   UNL     1      -7.247  16.610  66.685  1.00  0.00    -0.276 A  
HETATM   25  C   UNL     1      -8.825  15.541  68.720  1.00  0.00    -0.203 A  
HETATM   26  C   UNL     1      -6.806  16.682  67.999  1.00  0.00    -0.143 A  
HETATM   27  C   UNL     1      -8.464  15.993  66.403  1.00  0.00    -0.363 A  
BRANCH  26  28
HETATM   28  O   UNL     1      -5.654  17.410  68.229  1.00  0.00    -0.140 OA 
BRANCH  28  29
HETATM   29  C   UNL     1      -5.749  18.745  67.726  1.00  0.00    -0.185 C  
BRANCH  29  30
HETATM   30  C   UNL     1      -6.464  19.744  68.647  1.00  0.00    -0.285 C  
BRANCH  30  31
HETATM   31  N   UNL     1      -7.829  20.061  68.127  1.00  0.00    -0.269 NA 
HETATM   32  C   UNL     1      -7.876  19.941  66.659  1.00  0.00    -0.309 C  
HETATM   33  C   UNL     1      -9.198  20.246  65.957  1.00  0.00    -0.193 C  
HETATM   34  C   UNL     1     -10.243  19.170  66.178  1.00  0.00    -0.535 C  
HETATM   35  C   UNL     1     -11.032  19.334  67.467  1.00  0.00    -0.426 C  
HETATM   36  C   UNL     1     -10.252  19.844  68.673  1.00  0.00    -0.494 C  
HETATM   37  C   UNL     1      -8.841  19.267  68.834  1.00  0.00    -0.296 C  
ENDBRANCH  30  31
ENDBRANCH  29  30
ENDBRANCH  28  29
ENDBRANCH  26  28
ENDBRANCH  21  22
ENDBRANCH   5  21
TORSDOF 7
ENDMDL
MODEL        3
REMARK 921   NORMALIZED FREE ENERGY PREDICTED BY IDOCK:   -7.28 KCAL/MOL
REMARK 922        TOTAL FREE ENERGY PREDICTED BY IDOCK:  -13.33 KCAL/MOL
REMARK 923 INTER-LIGAND FREE ENERGY PREDICTED BY IDOCK:  -11.14 KCAL/MOL
REMARK 924 INTRA-LIGAND FREE ENERGY PREDICTED BY IDOCK:   -2.19 KCAL/MOL
REMARK 927      BINDING AFFINITY PREDICTED BY RF-SCORE:    0.00 PKD
ROOT
HETATM    1  C   UNL     1     -11.455  15.890  68.452  1.00  0.00    -0.348 C  
HETATM    2  C   UNL     1     -11.914  14.624  69.104  1.00  0.00    -0.329 A  
HETATM    3  C   UNL     1     -11.815  13.292  68.677  1.00  0.00    -0.345 A  
HETATM    4  C   UNL     1     -13.193  14.083  73.058  1.00  0.00    -0.354 A  
HETATM    5  N   UNL     1     -12.345  12.506  69.726  1.00  0.00    -0.097 NA 
HETATM    6  O   UNL     1     -13.618  16.351  73.472  1.00  0.00    -0.786 OA 
HETATM    7  C   UNL     1     -12.553  13.311  70.844  1.00  0.00    -0.306 A  
HETATM    8  C   UNL     1     -13.229  15.379  72.599  1.00  0.00    -0.468 A  
HETATM    9  C   UNL     1     -12.478  14.633  70.414  1.00  0.00    -0.410 A  
HETATM   10  H   UNL     1     -13.885  16.145  74.361  1.00  0.00     0.000 HD 
HETATM   11  C   UNL     1     -12.816  13.048  72.201  1.00  0.00    -0.253 A  
HETATM   12  C   UNL     1     -12.838  15.680  71.300  1.00  0.00    -0.550 A  
ENDROOT
BRANCH   3  13
HETATM   13  C   UNL     1     -11.264  12.768  67.393  1.00  0.00    -0.337 A  
HETATM   14  C   UNL     1     -10.214  11.938  64.899  1.00  0.00    -0.271 A  
HETATM   15  H   UNL     1     -10.258  11.676  62.886  1.00  0.00     0.000 HD 
HETATM   16  C   UNL     1     -12.022  12.837  66.211  1.00  0.00    -0.460 A  
HETATM   17  C   UNL     1     -11.494  12.462  64.970  1.00  0.00    -0.378 A  
HETATM   18  O   UNL     1      -9.737  11.578  63.675  1.00  0.00    -0.288 OA 
HETATM   19  C   UNL     1      -9.967  12.239  67.282  1.00  0.00    -0.210 A  
HETATM   20  C   UNL     1      -9.454  11.795  66.052  1.00  0.00    -0.245 A  
ENDBRANCH   3  13
BRANCH   5  21
HETATM   21  C   UNL     1     -12.630  11.051  69.617  1.00  0.00    -0.017 C  
BRANCH  21  22
HETATM   22  C   UNL     1     -12.041  10.144  70.670  1.00  0.00    -0.411 A  
HETATM   23  C   UNL     1     -10.124   8.985  71.576  1.00  0.00    -0.409 A  
HETATM   24  C   UNL     1     -12.308   8.439  72.396  1.00  0.00    -0.412 A  
HETATM   25  C   UNL     1     -10.662   9.947  70.725  1.00  0.00    -0.350 A  
HETATM   26  C   UNL     1     -10.952   8.150  72.334  1.00  0.00    -0.345 A  
HETATM   27  C   UNL     1     -12.822   9.487  71.634  1.00  0.00    -0.483 A  
BRANCH  26  28
HETATM   28  O   UNL     1     -10.523   7.028  73.016  1.00  0.00    -0.226 OA 
BRANCH  28  29
HETATM   29  C   UNL     1     -10.894   5.817  72.352  1.00  0.00    -0.247 C  
BRANCH  29  30
HETATM   30  C   UNL     1      -9.760   5.112  71.593  1.00  0.00    -0.163 C  
BRANCH  30  31
HETATM   31  N   UNL     1      -9.677   5.608  70.186  1.00  0.00    -0.165 NA 
HETATM   32  C   UNL     1      -8.873   4.698  69.351  1.00  0.00    -0.088 C  
HETATM   33  C   UNL     1      -8.672   5.062  67.881  1.00  0.00    -0.104 C  
HETATM   34  C   UNL     1      -9.928   4.875  67.052  1.00  0.00    -0.238 C  
HETATM   35  C   UNL     1     -10.873   6.065  67.090  1.00  0.00    -0.414 C  
HETATM   36  C   UNL     1     -10.988   6.790  68.426  1.00  0.00    -0.257 C  
HETATM   37  C   UNL     1     -11.020   5.886  69.663  1.00  0.00    -0.377 C  
ENDBRANCH  30  31
ENDBRANCH  29  30
ENDBRANCH  28  29
ENDBRANCH  26  28
ENDBRANCH  21  22
ENDBRANCH   5  21
TORSDOF 7
ENDMDL
MODEL        4
REMARK 921   NORMALIZED FREE ENERGY PREDICTED BY IDOCK:   -7.28 KCAL/MOL
REMARK 922        TOTAL FREE ENERGY PREDICTED BY IDOCK:  -13.33 KCAL/MOL
REMARK 923 INTER-LIGAND FREE ENERGY PREDICTED BY IDOCK:  -10.89 KCAL/MOL
REMARK 924 INTRA-LIGAND FREE ENERGY PREDICTED BY IDOCK:   -2.44 KCAL/MOL
REMARK 927      BINDING AFFINITY PREDICTED BY RF-SCORE:    0.00 PKD
ROOT
HETATM    1  C   UNL     1     -10.679  16.248  68.159  1.00  0.00    -0.322 C  
HETATM    2  C   UNL     1     -11.117  14.820  68.240  1.00  0.00    -0.284 A  
HETATM    3  C   UNL     1     -11.805  14.134  69.252  1.00  0.00    -0.338 A  
HETATM    4  C   UNL     1     -11.238  11.986  65.154  1.00  0.00    -0.368 A  
HETATM    5  N   UNL     1     -12.020  12.827  68.758  1.00  0.00    -0.289 NA 
HETATM    6  O   UNL     1      -9.786  13.145  63.724  1.00  0.00    -0.704 OA 
HETATM    7  C   UNL     1     -11.675  12.781  67.409  1.00  0.00    -0.366 A  
HETATM    8  C   UNL     1     -10.422  13.070  64.927  1.00  0.00    -0.339 A  
HETATM    9  C   UNL     1     -10.943  13.932  67.137  1.00  0.00    -0.298 A  
HETATM   10  H   UNL     1      -9.875  12.461  63.070  1.00  0.00     0.000 HD 
HETATM   11  C   UNL     1     -11.902  11.854  66.375  1.00  0.00    -0.115 A  
HETATM   12  C   UNL     1     -10.293  14.070  65.884  1.00  0.00    -0.327 A  
ENDROOT
BRANCH   3  13
HETATM   13  C   UNL     1     -12.245  14.644  70.583  1.00  0.00    -0.394 A  
HETATM   14  C   UNL     1     -13.011  15.763  73.067  1.00  0.00    -0.525 A  
HETATM   15  H   UNL     1     -12.670  16.586  74.891  1.00  0.00     0.000 HD 
HETATM   16  C   UNL     1     -11.299  14.978  71.567  1.00  0.00    -0.330 A  
HETATM   17  C   UNL     1     -11.671  15.565  72.782  1.00  0.00    -0.545 A  
HETATM   18  O   UNL     1     -13.334  16.331  74.262  1.00  0.00    -0.385 OA 
HETATM   19  C   UNL     1     -13.596  14.866  70.902  1.00  0.00    -0.313 A  
HETATM   20  C   UNL     1     -13.982  15.390  72.147  1.00  0.00    -0.649 A  
ENDBRANCH   3  13
BRANCH   5  21
HETATM   21  C   UNL     1     -12.530  11.698  69.582  1.00  0.00     0.015 C  
BRANCH  21  22
HETATM   22  C   UNL     1     -11.512  10.779  70.211  1.00  0.00    -0.406 A  
HETATM   23  C   UNL     1      -9.388   9.636  70.083  1.00  0.00    -0.294 A  
HETATM   24  C   UNL     1     -10.930   9.031  71.813  1.00  0.00    -0.443 A  
HETATM   25  C   UNL     1     -10.267  10.606  69.610  1.00  0.00    -0.156 A  
HETATM   26  C   UNL     1      -9.760   8.769  71.116  1.00  0.00    -0.247 A  
HETATM   27  C   UNL     1     -11.747  10.086  71.410  1.00  0.00    -0.414 A  
BRANCH  26  28
HETATM   28  O   UNL     1      -9.055   7.640  71.487  1.00  0.00    -0.130 OA 
BRANCH  28  29
HETATM   29  C   UNL     1      -9.764   6.436  71.181  1.00  0.00    -0.175 C  
BRANCH  29  30
HETATM   30  C   UNL     1      -9.026   5.456  70.259  1.00  0.00    -0.135 C  
BRANCH  30  31
HETATM   31  N   UNL     1      -9.241   5.815  68.824  1.00  0.00    -0.118 NA 
HETATM   32  C   UNL     1     -10.597   6.347  68.610  1.00  0.00    -0.253 C  
HETATM   33  C   UNL     1     -10.993   6.753  67.191  1.00  0.00    -0.458 C  
HETATM   34  C   UNL     1     -10.312   8.028  66.733  1.00  0.00    -0.360 C  
HETATM   35  C   UNL     1      -8.925   7.809  66.151  1.00  0.00    -0.201 C  
HETATM   36  C   UNL     1      -8.076   6.736  66.822  1.00  0.00    -0.109 C  
HETATM   37  C   UNL     1      -8.162   6.691  68.351  1.00  0.00    -0.115 C  
ENDBRANCH  30  31
ENDBRANCH  29  30
ENDBRANCH  28  29
ENDBRANCH  26  28
ENDBRANCH  21  22
ENDBRANCH   5  21
TORSDOF 7
ENDMDL
MODEL        5
REMARK 921   NORMALIZED FREE ENERGY PREDICTED BY IDOCK:   -7.26 KCAL/MOL
REMARK 922        TOTAL FREE ENERGY PREDICTED BY IDOCK:  -13.30 KCAL/MOL
REMARK 923 INTER-LIGAND FREE ENERGY PREDICTED BY IDOCK:  -10.51 KCAL/MOL
REMARK 924 INTRA-LIGAND FREE ENERGY PREDICTED BY IDOCK:   -2.79 KCAL/MOL
REMARK 927      BINDING AFFINITY PREDICTED BY RF-SCORE:    0.00 PKD
ROOT
HETATM    1  C   UNL     1     -13.225   7.539  71.823  1.00  0.00    -0.364 C  
HETATM    2  C   UNL     1     -12.230   8.453  71.179  1.00  0.00    -0.248 A  
HETATM    3  C   UNL     1     -11.149   8.170  70.331  1.00  0.00    -0.239 A  
HETATM    4  C   UNL     1     -12.400  12.629  70.861  1.00  0.00    -0.352 A  
HETATM    5  N   UNL     1     -10.605   9.423  69.963  1.00  0.00    -0.220 NA 
HETATM    6  O   UNL     1     -13.989  12.922  72.560  1.00  0.00    -0.635 OA 
HETATM    7  C   UNL     1     -11.458  10.438  70.390  1.00  0.00    -0.337 A  
HETATM    8  C   UNL     1     -13.197  12.079  71.839  1.00  0.00    -0.364 A  
HETATM    9  C   UNL     1     -12.346   9.870  71.298  1.00  0.00    -0.478 A  
HETATM   10  H   UNL     1     -13.976  13.861  72.419  1.00  0.00     0.000 HD 
HETATM   11  C   UNL     1     -11.560  11.812  70.104  1.00  0.00    -0.281 A  
HETATM   12  C   UNL     1     -13.216  10.705  72.045  1.00  0.00    -0.473 A  
ENDROOT
BRANCH   3  13
HETATM   13  C   UNL     1     -10.649   6.839  69.879  1.00  0.00    -0.257 A  
HETATM   14  C   UNL     1      -9.598   4.397  68.910  1.00  0.00    -0.163 A  
HETATM   15  H   UNL     1      -9.263   2.975  67.500  1.00  0.00     0.000 HD 
HETATM   16  C   UNL     1     -10.933   6.374  68.583  1.00  0.00    -0.404 A  
HETATM   17  C   UNL     1     -10.385   5.184  68.088  1.00  0.00    -0.140 A  
HETATM   18  O   UNL     1      -9.088   3.244  68.395  1.00  0.00    -0.125 OA 
HETATM   19  C   UNL     1      -9.840   6.019  70.683  1.00  0.00    -0.222 A  
HETATM   20  C   UNL     1      -9.343   4.790  70.217  1.00  0.00    -0.217 A  
ENDBRANCH   3  13
BRANCH   5  21
HETATM   21  C   UNL     1      -9.316   9.592  69.241  1.00  0.00    -0.180 C  
BRANCH  21  22
HETATM   22  C   UNL     1      -9.378  10.045  67.803  1.00  0.00    -0.154 A  
HETATM   23  C   UNL     1      -9.207  11.825  66.177  1.00  0.00    -0.218 A  
HETATM   24  C   UNL     1     -10.126   9.718  65.502  1.00  0.00    -0.242 A  
HETATM   25  C   UNL     1      -8.993  11.342  67.465  1.00  0.00    -0.140 A  
HETATM   26  C   UNL     1      -9.875  11.054  65.220  1.00  0.00    -0.259 A  
HETATM   27  C   UNL     1      -9.794   9.207  66.755  1.00  0.00    -0.291 A  
BRANCH  26  28
HETATM   28  O   UNL     1     -10.335  11.530  64.008  1.00  0.00    -0.288 OA 
BRANCH  28  29
HETATM   29  C   UNL     1     -11.715  11.903  64.062  1.00  0.00    -0.378 C  
BRANCH  29  30
HETATM   30  C   UNL     1     -12.024  13.340  63.618  1.00  0.00    -0.486 C  
BRANCH  30  31
HETATM   31  N   UNL     1     -11.921  14.284  64.772  1.00  0.00    -0.417 NA 
HETATM   32  C   UNL     1     -12.309  13.624  66.031  1.00  0.00    -0.445 C  
HETATM   33  C   UNL     1     -12.276  14.452  67.314  1.00  0.00    -0.248 C  
HETATM   34  C   UNL     1     -10.866  14.748  67.787  1.00  0.00    -0.278 C  
HETATM   35  C   UNL     1     -10.241  15.968  67.131  1.00  0.00    -0.278 C  
HETATM   36  C   UNL     1     -10.571  16.183  65.658  1.00  0.00    -0.377 C  
HETATM   37  C   UNL     1     -10.596  14.914  64.799  1.00  0.00    -0.308 C  
ENDBRANCH  30  31
ENDBRANCH  29  30
ENDBRANCH  28  29
ENDBRANCH  26  28
ENDBRANCH  21  22
ENDBRANCH   5  21
TORSDOF 7
ENDMDL
MODEL        6
REMARK 921   NORMALIZED FREE ENERGY PREDICTED BY IDOCK:   -7.20 KCAL/MOL
REMARK 922        TOTAL FREE ENERGY PREDICTED BY IDOCK:  -13.21 KCAL/MOL
REMARK 923 INTER-LIGAND FREE ENERGY PREDICTED BY IDOCK:  -10.54 KCAL/MOL
REMARK 924 INTRA-LIGAND FREE ENERGY PREDICTED BY IDOCK:   -2.68 KCAL/MOL
REMARK 927      BINDING AFFINITY PREDICTED BY RF-SCORE:    0.00 PKD
ROOT
HETATM    1  C   UNL     1     -10.709  11.097  63.339  1.00  0.00    -0.286 C  
HETATM    2  C   UNL     1     -10.391  11.729  64.658  1.00  0.00    -0.336 A  
HETATM    3  C   UNL     1      -9.805  11.186  65.811  1.00  0.00    -0.235 A  
HETATM    4  C   UNL     1     -10.364  15.809  65.617  1.00  0.00    -0.411 A  
HETATM    5  N   UNL     1      -9.674  12.258  66.723  1.00  0.00    -0.208 NA 
HETATM    6  O   UNL     1     -11.655  16.483  63.780  1.00  0.00    -1.617 OA 
HETATM    7  C   UNL     1      -9.963  13.455  66.072  1.00  0.00    -0.293 A  
HETATM    8  C   UNL     1     -11.080  15.473  64.492  1.00  0.00    -0.274 A  
HETATM    9  C   UNL     1     -10.588  13.126  64.872  1.00  0.00    -0.366 A  
HETATM   10  H   UNL     1     -11.594  17.389  64.062  1.00  0.00     0.000 HD 
HETATM   11  C   UNL     1      -9.767  14.812  66.389  1.00  0.00    -0.311 A  
HETATM   12  C   UNL     1     -11.169  14.148  64.081  1.00  0.00    -0.056 A  
ENDROOT
BRANCH   3  13
HETATM   13  C   UNL     1      -9.383   9.776  66.060  1.00  0.00    -0.249 A  
HETATM   14  C   UNL     1      -8.502   7.158  66.674  1.00  0.00    -0.121 A  
HETATM   15  H   UNL     1      -7.106   5.711  66.955  1.00  0.00     0.000 HD 
HETATM   16  C   UNL     1      -8.030   9.409  65.963  1.00  0.00    -0.110 A  
HETATM   17  C   UNL     1      -7.585   8.126  66.301  1.00  0.00    -0.090 A  
HETATM   18  O   UNL     1      -8.033   5.919  66.989  1.00  0.00    -0.101 OA 
HETATM   19  C   UNL     1     -10.285   8.772  66.449  1.00  0.00    -0.256 A  
HETATM   20  C   UNL     1      -9.856   7.462  66.723  1.00  0.00    -0.290 A  
ENDBRANCH   3  13
BRANCH   5  21
HETATM   21  C   UNL     1      -9.292  12.096  68.151  1.00  0.00    -0.204 C  
BRANCH  21  22
HETATM   22  C   UNL     1     -10.227  11.308  69.037  1.00  0.00    -0.169 A  
HETATM   23  C   UNL     1     -12.408  11.049  70.043  1.00  0.00    -0.377 A  
HETATM   24  C   UNL     1     -10.599   9.686  70.823  1.00  0.00    -0.392 A  
HETATM   25  C   UNL     1     -11.576  11.653  69.105  1.00  0.00    -0.378 A  
HETATM   26  C   UNL     1     -11.900  10.144  70.980  1.00  0.00    -0.383 A  
HETATM   27  C   UNL     1      -9.808  10.207  69.801  1.00  0.00    -0.245 A  
BRANCH  26  28
HETATM   28  O   UNL     1     -12.593   9.680  72.081  1.00  0.00    -0.362 OA 
BRANCH  28  29
HETATM   29  C   UNL     1     -12.145   8.386  72.496  1.00  0.00    -0.337 C  
BRANCH  29  30
HETATM   30  C   UNL     1     -12.853   7.201  71.826  1.00  0.00    -0.330 C  
BRANCH  30  31
HETATM   31  N   UNL     1     -11.880   6.108  71.518  1.00  0.00    -0.224 NA 
HETATM   32  C   UNL     1     -11.299   6.280  70.176  1.00  0.00    -0.406 C  
HETATM   33  C   UNL     1     -10.291   5.239  69.691  1.00  0.00    -0.348 C  
HETATM   34  C   UNL     1      -8.952   5.347  70.394  1.00  0.00    -0.155 C  
HETATM   35  C   UNL     1      -8.892   4.607  71.721  1.00  0.00    -0.141 C  
HETATM   36  C   UNL     1     -10.159   4.642  72.568  1.00  0.00    -0.229 C  
HETATM   37  C   UNL     1     -10.892   5.988  72.597  1.00  0.00    -0.244 C  
ENDBRANCH  30  31
ENDBRANCH  29  30
ENDBRANCH  28  29
ENDBRANCH  26  28
ENDBRANCH  21  22
ENDBRANCH   5  21
TORSDOF 7
ENDMDL
MODEL        7
REMARK 921   NORMALIZED FREE ENERGY PREDICTED BY IDOCK:   -7.20 KCAL/MOL
REMARK 922        TOTAL FREE ENERGY PREDICTED BY IDOCK:  -13.21 KCAL/MOL
REMARK 923 INTER-LIGAND FREE ENERGY PREDICTED BY IDOCK:  -11.37 KCAL/MOL
REMARK 924 INTRA-LIGAND FREE ENERGY PREDICTED BY IDOCK:   -1.84 KCAL/MOL
REMARK 927      BINDING AFFINITY PREDICTED BY RF-SCORE:    0.00 PKD
ROOT
HETATM    1  C   UNL     1     -10.908   6.056  70.044  1.00  0.00    -0.429 C  
HETATM    2  C   UNL     1     -10.853   7.551  69.999  1.00  0.00    -0.260 A  
HETATM    3  C   UNL     1     -10.129   8.411  69.161  1.00  0.00    -0.203 A  
HETATM    4  C   UNL     1     -13.408  10.278  71.897  1.00  0.00    -0.487 A  
HETATM    5  N   UNL     1     -10.523   9.722  69.515  1.00  0.00    -0.217 NA 
HETATM    6  O   UNL     1     -14.262   8.745  73.452  1.00  0.00    -1.173 OA 
HETATM    7  C   UNL     1     -11.610   9.657  70.383  1.00  0.00    -0.236 A  
HETATM    8  C   UNL     1     -13.408   9.006  72.422  1.00  0.00    -0.460 A  
HETATM    9  C   UNL     1     -11.694   8.344  70.835  1.00  0.00    -0.269 A  
HETATM   10  H   UNL     1     -14.819   9.421  73.821  1.00  0.00     0.000 HD 
HETATM   11  C   UNL     1     -12.543  10.601  70.851  1.00  0.00    -0.503 A  
HETATM   12  C   UNL     1     -12.594   8.018  71.881  1.00  0.00    -0.359 A  
ENDROOT
BRANCH   3  13
HETATM   13  C   UNL     1      -9.145   8.057  68.096  1.00  0.00    -0.134 A  
HETATM   14  C   UNL     1      -7.291   7.546  66.020  1.00  0.00    -0.081 A  
HETATM   15  H   UNL     1      -6.713   7.353  64.084  1.00  0.00     0.000 HD 
HETATM   16  C   UNL     1      -9.538   8.012  66.748  1.00  0.00    -0.281 A  
HETATM   17  C   UNL     1      -8.618   7.797  65.715  1.00  0.00    -0.162 A  
HETATM   18  O   UNL     1      -6.426   7.335  64.989  1.00  0.00    -0.037 OA 
HETATM   19  C   UNL     1      -7.789   7.806  68.369  1.00  0.00    -0.121 A  
HETATM   20  C   UNL     1      -6.872   7.520  67.344  1.00  0.00    -0.071 A  
ENDBRANCH   3  13
BRANCH   5  21
HETATM   21  C   UNL     1      -9.852  10.955  69.025  1.00  0.00    -0.180 C  
BRANCH  21  22
HETATM   22  C   UNL     1     -10.599  11.806  68.028  1.00  0.00    -0.235 A  
HETATM   23  C   UNL     1     -11.149  12.313  65.730  1.00  0.00    -0.362 A  
HETATM   24  C   UNL     1     -11.747  13.879  67.441  1.00  0.00    -0.422 A  
HETATM   25  C   UNL     1     -10.611  11.450  66.680  1.00  0.00    -0.302 A  
HETATM   26  C   UNL     1     -11.619  13.580  66.092  1.00  0.00    -0.343 A  
HETATM   27  C   UNL     1     -11.320  12.955  68.393  1.00  0.00    -0.329 A  
BRANCH  26  28
HETATM   28  O   UNL     1     -11.947  14.582  65.200  1.00  0.00    -0.369 OA 
BRANCH  28  29
HETATM   29  C   UNL     1     -10.837  15.436  64.914  1.00  0.00    -0.425 C  
BRANCH  29  30
HETATM   30  C   UNL     1     -11.156  16.937  64.879  1.00  0.00     0.036 C  
BRANCH  30  31
HETATM   31  N   UNL     1     -10.296  17.684  65.847  1.00  0.00    -0.562 NA 
HETATM   32  C   UNL     1     -10.594  19.126  65.816  1.00  0.00    -0.341 C  
HETATM   33  C   UNL     1      -9.792  20.045  66.737  1.00  0.00    -0.574 C  
HETATM   34  C   UNL     1     -10.176  19.894  68.196  1.00  0.00    -0.564 C  
HETATM   35  C   UNL     1      -9.458  18.759  68.908  1.00  0.00    -0.331 C  
HETATM   36  C   UNL     1      -9.220  17.496  68.088  1.00  0.00    -0.277 C  
HETATM   37  C   UNL     1     -10.380  17.074  67.179  1.00  0.00    -0.305 C  
ENDBRANCH  30  31
ENDBRANCH  29  30
ENDBRANCH  28  29
ENDBRANCH  26  28
ENDBRANCH  21  22
ENDBRANCH   5  21
TORSDOF 7
ENDMDL
MODEL        8
REMARK 921   NORMALIZED FREE ENERGY PREDICTED BY IDOCK:   -7.13 KCAL/MOL
REMARK 922        TOTAL FREE ENERGY PREDICTED BY IDOCK:  -13.12 KCAL/MOL
REMARK 923 INTER-LIGAND FREE ENERGY PREDICTED BY IDOCK:  -11.31 KCAL/MOL
REMARK 924 INTRA-LIGAND FREE ENERGY PREDICTED BY IDOCK:   -1.82 KCAL/MOL
REMARK 927      BINDING AFFINITY PREDICTED BY RF-SCORE:    0.00 PKD
ROOT
HETATM    1  C   UNL     1     -13.556   8.975  72.341  1.00  0.00    -0.533 C  
HETATM    2  C   UNL     1     -12.594   9.781  71.526  1.00  0.00    -0.493 A  
HETATM    3  C   UNL     1     -11.559   9.374  70.672  1.00  0.00    -0.269 A  
HETATM    4  C   UNL     1     -12.774  13.873  70.639  1.00  0.00    -0.351 A  
HETATM    5  N   UNL     1     -11.033  10.558  70.106  1.00  0.00    -0.290 NA 
HETATM    6  O   UNL     1     -14.272  14.414  72.359  1.00  0.00    -0.480 OA 
HETATM    7  C   UNL     1     -11.861  11.630  70.430  1.00  0.00    -0.293 A  
HETATM    8  C   UNL     1     -13.520  13.472  71.723  1.00  0.00    -0.380 A  
HETATM    9  C   UNL     1     -12.702  11.202  71.453  1.00  0.00    -0.524 A  
HETATM   10  H   UNL     1     -14.265  15.325  72.088  1.00  0.00     0.000 HD 
HETATM   11  C   UNL     1     -11.975  12.952  69.961  1.00  0.00    -0.380 A  
HETATM   12  C   UNL     1     -13.530  12.140  72.119  1.00  0.00    -0.383 A  
ENDROOT
BRANCH   3  13
HETATM   13  C   UNL     1     -11.085   7.988  70.385  1.00  0.00    -0.238 A  
HETATM   14  C   UNL     1     -10.308   5.303  69.948  1.00  0.00    -0.304 A  
HETATM   15  H   UNL     1      -9.564   3.495  70.498  1.00  0.00     0.000 HD 
HETATM   16  C   UNL     1     -10.460   7.227  71.387  1.00  0.00    -0.219 A  
HETATM   17  C   UNL     1     -10.108   5.887  71.187  1.00  0.00    -0.249 A  
HETATM   18  O   UNL     1      -9.947   3.999  69.789  1.00  0.00    -0.180 OA 
HETATM   19  C   UNL     1     -11.281   7.361  69.143  1.00  0.00     0.133 A  
HETATM   20  C   UNL     1     -10.867   6.039  68.912  1.00  0.00    -0.400 A  
ENDBRANCH   3  13
BRANCH   5  21
HETATM   21  C   UNL     1      -9.783  10.614  69.302  1.00  0.00    -0.160 C  
BRANCH  21  22
HETATM   22  C   UNL     1      -9.814  11.411  68.021  1.00  0.00    -0.191 A  
HETATM   23  C   UNL     1      -9.040  13.304  66.735  1.00  0.00    -0.216 A  
HETATM   24  C   UNL     1     -10.924  12.053  65.944  1.00  0.00    -0.342 A  
HETATM   25  C   UNL     1      -8.912  12.456  67.831  1.00  0.00    -0.184 A  
HETATM   26  C   UNL     1     -10.113  13.175  65.846  1.00  0.00    -0.290 A  
HETATM   27  C   UNL     1     -10.710  11.139  66.975  1.00  0.00    -0.316 A  
BRANCH  26  28
HETATM   28  O   UNL     1     -10.450  14.103  64.880  1.00  0.00    -0.404 OA 
BRANCH  28  29
HETATM   29  C   UNL     1     -11.268  15.154  65.401  1.00  0.00    -0.338 C  
BRANCH  29  30
HETATM   30  C   UNL     1     -11.032  16.538  64.780  1.00  0.00    -0.177 C  
BRANCH  30  31
HETATM   31  N   UNL     1     -10.226  17.399  65.698  1.00  0.00    -0.616 NA 
HETATM   32  C   UNL     1     -10.652  18.806  65.614  1.00  0.00    -0.154 C  
HETATM   33  C   UNL     1      -9.920  19.831  66.479  1.00  0.00    -0.570 C  
HETATM   34  C   UNL     1     -10.264  19.711  67.950  1.00  0.00    -0.574 C  
HETATM   35  C   UNL     1      -9.435  18.675  68.693  1.00  0.00    -0.396 C  
HETATM   36  C   UNL     1      -9.099  17.404  67.922  1.00  0.00    -0.255 C  
HETATM   37  C   UNL     1     -10.232  16.842  67.056  1.00  0.00    -0.292 C  
ENDBRANCH  30  31
ENDBRANCH  29  30
ENDBRANCH  28  29
ENDBRANCH  26  28
ENDBRANCH  21  22
ENDBRANCH   5  21
TORSDOF 7
ENDMDL
MODEL        9
REMARK 921   NORMALIZED FREE ENERGY PREDICTED BY IDOCK:   -6.98 KCAL/MOL
REMARK 922        TOTAL FREE ENERGY PREDICTED BY IDOCK:  -12.91 KCAL/MOL
REMARK 923 INTER-LIGAND FREE ENERGY PREDICTED BY IDOCK:  -11.22 KCAL/MOL
REMARK 924 INTRA-LIGAND FREE ENERGY PREDICTED BY IDOCK:   -1.68 KCAL/MOL
REMARK 927      BINDING AFFINITY PREDICTED BY RF-SCORE:    0.00 PKD
ROOT
HETATM    1  C   UNL     1     -12.038  10.236  71.048  1.00  0.00    -0.487 C  
HETATM    2  C   UNL     1     -11.766  11.153  69.897  1.00  0.00    -0.433 A  
HETATM    3  C   UNL     1     -11.842  12.551  69.809  1.00  0.00    -0.310 A  
HETATM    4  C   UNL     1      -9.854  10.246  66.279  1.00  0.00    -0.276 A  
HETATM    5  N   UNL     1     -11.397  12.883  68.509  1.00  0.00    -0.267 NA 
HETATM    6  O   UNL     1     -10.123   7.924  66.456  1.00  0.00    -0.388 OA 
HETATM    7  C   UNL     1     -10.856  11.751  67.903  1.00  0.00    -0.211 A  
HETATM    8  C   UNL     1     -10.347   9.165  66.973  1.00  0.00    -0.263 A  
HETATM    9  C   UNL     1     -11.253  10.654  68.663  1.00  0.00    -0.337 A  
HETATM   10  H   UNL     1      -9.670   7.802  65.629  1.00  0.00     0.000 HD 
HETATM   11  C   UNL     1     -10.067  11.539  66.758  1.00  0.00    -0.245 A  
HETATM   12  C   UNL     1     -11.009   9.343  68.181  1.00  0.00    -0.102 A  
ENDROOT
BRANCH   3  13
HETATM   13  C   UNL     1     -12.288  13.522  70.850  1.00  0.00    -0.437 A  
HETATM   14  C   UNL     1     -13.148  15.483  72.700  1.00  0.00    -0.459 A  
HETATM   15  H   UNL     1     -12.986  17.219  73.742  1.00  0.00     0.000 HD 
HETATM   16  C   UNL     1     -11.481  14.621  71.192  1.00  0.00    -0.195 A  
HETATM   17  C   UNL     1     -11.917  15.612  72.079  1.00  0.00    -0.544 A  
HETATM   18  O   UNL     1     -13.535  16.464  73.562  1.00  0.00    -0.608 OA 
HETATM   19  C   UNL     1     -13.533  13.427  71.494  1.00  0.00    -0.288 A  
HETATM   20  C   UNL     1     -13.950  14.381  72.438  1.00  0.00    -0.585 A  
ENDBRANCH   3  13
BRANCH   5  21
HETATM   21  C   UNL     1     -11.510  14.240  67.910  1.00  0.00    -0.315 C  
BRANCH  21  22
HETATM   22  C   UNL     1     -10.230  14.995  67.647  1.00  0.00    -0.236 A  
HETATM   23  C   UNL     1      -8.783  16.150  66.095  1.00  0.00    -0.358 A  
HETATM   24  C   UNL     1      -7.940  15.576  68.263  1.00  0.00    -0.132 A  
HETATM   25  C   UNL     1     -10.022  15.601  66.409  1.00  0.00    -0.298 A  
HETATM   26  C   UNL     1      -7.703  16.041  66.977  1.00  0.00    -0.229 A  
HETATM   27  C   UNL     1      -9.219  15.142  68.610  1.00  0.00    -0.196 A  
BRANCH  26  28
HETATM   28  O   UNL     1      -6.393  16.343  66.658  1.00  0.00    -0.291 OA 
BRANCH  28  29
HETATM   29  C   UNL     1      -6.277  17.601  65.987  1.00  0.00    -0.212 C  
BRANCH  29  30
HETATM   30  C   UNL     1      -6.066  18.815  66.902  1.00  0.00    -0.162 C  
BRANCH  30  31
HETATM   31  N   UNL     1      -7.374  19.449  67.251  1.00  0.00    -0.219 NA 
HETATM   32  C   UNL     1      -8.305  19.404  66.110  1.00  0.00    -0.300 C  
HETATM   33  C   UNL     1      -9.689  20.024  66.289  1.00  0.00    -0.546 C  
HETATM   34  C   UNL     1     -10.591  19.198  67.186  1.00  0.00    -0.564 C  
HETATM   35  C   UNL     1     -10.409  19.481  68.669  1.00  0.00    -0.377 C  
HETATM   36  C   UNL     1      -8.983  19.755  69.131  1.00  0.00    -0.018 C  
HETATM   37  C   UNL     1      -7.904  18.872  68.492  1.00  0.00    -0.337 C  
ENDBRANCH  30  31
ENDBRANCH  29  30
ENDBRANCH  28  29
ENDBRANCH  26  28
ENDBRANCH  21  22
ENDBRANCH   5  21
TORSDOF 7
ENDMDL
MODEL       10
REMARK 921   NORMALIZED FREE ENERGY PREDICTED BY IDOCK:   -6.96 KCAL/MOL
REMARK 922        TOTAL FREE ENERGY PREDICTED BY IDOCK:  -12.88 KCAL/MOL
REMARK 923 INTER-LIGAND FREE ENERGY PREDICTED BY IDOCK:  -10.55 KCAL/MOL
REMARK 924 INTRA-LIGAND FREE ENERGY PREDICTED BY IDOCK:   -2.33 KCAL/MOL
REMARK 927      BINDING AFFINITY PREDICTED BY RF-SCORE:    0.00 PKD
ROOT
HETATM    1  C   UNL     1     -10.688   6.043  67.432  1.00  0.00    -0.393 C  
HETATM    2  C   UNL     1     -10.488   7.289  68.236  1.00  0.00    -0.239 A  
HETATM    3  C   UNL     1      -9.956   8.534  67.869  1.00  0.00    -0.181 A  
HETATM    4  C   UNL     1     -12.061   8.195  72.013  1.00  0.00    -0.388 A  
HETATM    5  N   UNL     1     -10.085   9.363  69.007  1.00  0.00    -0.187 NA 
HETATM    6  O   UNL     1     -12.577   5.980  72.582  1.00  0.00    -0.536 OA 
HETATM    7  C   UNL     1     -10.868   8.717  69.961  1.00  0.00    -0.223 A  
HETATM    8  C   UNL     1     -12.043   6.859  71.687  1.00  0.00    -0.353 A  
HETATM    9  C   UNL     1     -10.954   7.381  69.581  1.00  0.00    -0.186 A  
HETATM   10  H   UNL     1     -12.925   6.269  73.418  1.00  0.00     0.000 HD 
HETATM   11  C   UNL     1     -11.515   9.135  71.139  1.00  0.00    -0.388 A  
HETATM   12  C   UNL     1     -11.535   6.437  70.465  1.00  0.00    -0.444 A  
ENDROOT
BRANCH   3  13
HETATM   13  C   UNL     1      -9.374   8.943  66.558  1.00  0.00    -0.252 A  
HETATM   14  C   UNL     1      -8.275   9.882  64.125  1.00  0.00    -0.159 A  
HETATM   15  H   UNL     1      -8.303  10.915  62.377  1.00  0.00     0.000 HD 
HETATM   16  C   UNL     1     -10.135   9.688  65.640  1.00  0.00    -0.231 A  
HETATM   17  C   UNL     1      -9.585  10.185  64.453  1.00  0.00    -0.366 A  
HETATM   18  O   UNL     1      -7.777  10.378  62.958  1.00  0.00    -0.151 OA 
HETATM   19  C   UNL     1      -8.046   8.661  66.195  1.00  0.00    -0.108 A  
HETATM   20  C   UNL     1      -7.506   9.097  64.974  1.00  0.00    -0.105 A  
ENDBRANCH   3  13
BRANCH   5  21
HETATM   21  C   UNL     1      -9.460  10.706  69.135  1.00  0.00    -0.170 C  
BRANCH  21  22
HETATM   22  C   UNL     1     -10.030  11.823  68.296  1.00  0.00    -0.200 A  
HETATM   23  C   UNL     1     -11.950  12.891  67.289  1.00  0.00    -0.371 A  
HETATM   24  C   UNL     1      -9.754  13.576  66.620  1.00  0.00    -0.281 A  
HETATM   25  C   UNL     1     -11.412  11.978  68.191  1.00  0.00    -0.383 A  
HETATM   26  C   UNL     1     -11.127  13.615  66.419  1.00  0.00    -0.303 A  
HETATM   27  C   UNL     1      -9.228  12.751  67.612  1.00  0.00    -0.192 A  
BRANCH  26  28
HETATM   28  O   UNL     1     -11.578  14.357  65.346  1.00  0.00    -0.332 OA 
BRANCH  28  29
HETATM   29  C   UNL     1     -10.636  15.356  64.946  1.00  0.00    -0.352 C  
BRANCH  29  30
HETATM   30  C   UNL     1     -11.159  16.800  64.977  1.00  0.00    -0.057 C  
BRANCH  30  31
HETATM   31  N   UNL     1     -10.324  17.646  65.883  1.00  0.00    -0.562 NA 
HETATM   32  C   UNL     1     -10.650  19.074  65.722  1.00  0.00    -0.318 C  
HETATM   33  C   UNL     1      -9.876  20.086  66.566  1.00  0.00    -0.581 C  
HETATM   34  C   UNL     1     -10.273  20.057  68.028  1.00  0.00    -0.538 C  
HETATM   35  C   UNL     1      -9.541  19.003  68.844  1.00  0.00    -0.417 C  
HETATM   36  C   UNL     1      -9.269  17.678  68.141  1.00  0.00    -0.282 C  
HETATM   37  C   UNL     1     -10.411  17.154  67.263  1.00  0.00    -0.320 C  
ENDBRANCH  30  31
ENDBRANCH  29  30
ENDBRANCH  28  29
ENDBRANCH  26  28
ENDBRANCH  21  22
ENDBRANCH   5  21
TORSDOF 7
ENDMDL
MODEL       11
REMARK 921   NORMALIZED FREE ENERGY PREDICTED BY IDOCK:   -6.95 KCAL/MOL
REMARK 922        TOTAL FREE ENERGY PREDICTED BY IDOCK:  -12.86 KCAL/MOL
REMARK 923 INTER-LIGAND FREE ENERGY PREDICTED BY IDOCK:  -11.57 KCAL/MOL
REMARK 924 INTRA-LIGAND FREE ENERGY PREDICTED BY IDOCK:   -1.28 KCAL/MOL
REMARK 927      BINDING AFFINITY PREDICTED BY RF-SCORE:    0.00 PKD
ROOT
HETATM    1  C   UNL     1     -10.079   8.717  69.370  1.00  0.00    -0.203 C  
HETATM    2  C   UNL     1     -10.533   9.663  68.303  1.00  0.00    -0.259 A  
HETATM    3  C   UNL     1     -11.283  10.844  68.391  1.00  0.00    -0.285 A  
HETATM    4  C   UNL     1      -9.252   9.850  64.316  1.00  0.00    -0.317 A  
HETATM    5  N   UNL     1     -11.343  11.367  67.079  1.00  0.00    -0.435 NA 
HETATM    6  O   UNL     1      -8.336   7.692  64.270  1.00  0.00    -0.346 OA 
HETATM    7  C   UNL     1     -10.473  10.652  66.259  1.00  0.00    -0.203 A  
HETATM    8  C   UNL     1      -9.007   8.658  64.959  1.00  0.00    -0.007 A  
HETATM    9  C   UNL     1     -10.124   9.493  66.946  1.00  0.00    -0.295 A  
HETATM   10  H   UNL     1      -8.070   7.817  63.366  1.00  0.00     0.000 HD 
HETATM   11  C   UNL     1      -9.947  10.867  64.971  1.00  0.00    -0.356 A  
HETATM   12  C   UNL     1      -9.395   8.476  66.280  1.00  0.00    -0.287 A  
ENDROOT
BRANCH   3  13
HETATM   13  C   UNL     1     -11.902  11.461  69.601  1.00  0.00    -0.431 A  
HETATM   14  C   UNL     1     -13.187  12.709  71.792  1.00  0.00    -0.359 A  
HETATM   15  H   UNL     1     -13.772  14.297  72.914  1.00  0.00     0.000 HD 
HETATM   16  C   UNL     1     -11.813  12.847  69.819  1.00  0.00    -0.380 A  
HETATM   17  C   UNL     1     -12.477  13.472  70.881  1.00  0.00    -0.448 A  
HETATM   18  O   UNL     1     -13.814  13.352  72.815  1.00  0.00    -0.720 OA 
HETATM   19  C   UNL     1     -12.636  10.718  70.541  1.00  0.00    -0.421 A  
HETATM   20  C   UNL     1     -13.248  11.329  71.648  1.00  0.00    -0.431 A  
ENDBRANCH   3  13
BRANCH   5  21
HETATM   21  C   UNL     1     -12.216  12.500  66.672  1.00  0.00     0.058 C  
BRANCH  21  22
HETATM   22  C   UNL     1     -11.541  13.767  66.205  1.00  0.00    -0.369 A  
HETATM   23  C   UNL     1     -10.098  15.646  66.678  1.00  0.00    -0.280 A  
HETATM   24  C   UNL     1     -11.402  15.659  64.669  1.00  0.00    -0.355 A  
HETATM   25  C   UNL     1     -10.598  14.393  67.019  1.00  0.00    -0.274 A  
HETATM   26  C   UNL     1     -10.580  16.334  65.560  1.00  0.00    -0.353 A  
HETATM   27  C   UNL     1     -11.800  14.355  64.956  1.00  0.00    -0.400 A  
BRANCH  26  28
HETATM   28  O   UNL     1     -10.318  17.662  65.280  1.00  0.00    -0.554 OA 
BRANCH  28  29
HETATM   29  C   UNL     1     -10.460  18.495  66.434  1.00  0.00    -0.406 C  
BRANCH  29  30
HETATM   30  C   UNL     1     -10.068  19.965  66.234  1.00  0.00    -0.502 C  
BRANCH  30  31
HETATM   31  N   UNL     1      -8.775  20.267  66.920  1.00  0.00    -0.317 NA 
HETATM   32  C   UNL     1      -8.689  19.572  68.216  1.00  0.00    -0.336 C  
HETATM   33  C   UNL     1      -7.434  19.781  69.061  1.00  0.00    -0.286 C  
HETATM   34  C   UNL     1      -6.217  19.079  68.491  1.00  0.00    -0.244 C  
HETATM   35  C   UNL     1      -5.486  19.882  67.428  1.00  0.00    -0.177 C  
HETATM   36  C   UNL     1      -6.359  20.700  66.483  1.00  0.00    -0.288 C  
HETATM   37  C   UNL     1      -7.647  20.011  66.017  1.00  0.00    -0.308 C  
ENDBRANCH  30  31
ENDBRANCH  29  30
ENDBRANCH  28  29
ENDBRANCH  26  28
ENDBRANCH  21  22
ENDBRANCH   5  21
TORSDOF 7
ENDMDL
MODEL       12
REMARK 921   NORMALIZED FREE ENERGY PREDICTED BY IDOCK:   -6.95 KCAL/MOL
REMARK 922        TOTAL FREE ENERGY PREDICTED BY IDOCK:  -12.85 KCAL/MOL
REMARK 923 INTER-LIGAND FREE ENERGY PREDICTED BY IDOCK:  -10.63 KCAL/MOL
REMARK 924 INTRA-LIGAND FREE ENERGY PREDICTED BY IDOCK:   -2.22 KCAL/MOL
REMARK 927      BINDING AFFINITY PREDICTED BY RF-SCORE:    0.00 PKD
ROOT
HETATM    1  C   UNL     1     -13.159  10.575  70.882  1.00  0.00    -0.390 C  
HETATM    2  C   UNL     1     -11.765  10.200  70.487  1.00  0.00    -0.407 A  
HETATM    3  C   UNL     1     -10.941  10.699  69.467  1.00  0.00    -0.272 A  
HETATM    4  C   UNL     1      -9.023   7.866  72.632  1.00  0.00    -0.251 A  
HETATM    5  N   UNL     1      -9.701  10.034  69.608  1.00  0.00    -0.224 NA 
HETATM    6  O   UNL     1     -10.617   6.879  74.040  1.00  0.00    -0.458 OA 
HETATM    7  C   UNL     1      -9.694   9.321  70.805  1.00  0.00    -0.282 A  
HETATM    8  C   UNL     1     -10.341   7.715  72.999  1.00  0.00    -0.335 A  
HETATM    9  C   UNL     1     -11.012   9.258  71.250  1.00  0.00    -0.421 A  
HETATM   10  H   UNL     1      -9.932   6.390  74.483  1.00  0.00     0.000 HD 
HETATM   11  C   UNL     1      -8.687   8.699  71.564  1.00  0.00    -0.266 A  
HETATM   12  C   UNL     1     -11.341   8.429  72.352  1.00  0.00    -0.448 A  
ENDROOT
BRANCH   3  13
HETATM   13  C   UNL     1     -11.265  11.725  68.433  1.00  0.00    -0.307 A  
HETATM   14  C   UNL     1     -12.031  13.593  66.451  1.00  0.00    -0.426 A  
HETATM   15  H   UNL     1     -12.543  14.168  64.572  1.00  0.00     0.000 HD 
HETATM   16  C   UNL     1     -11.388  11.360  67.081  1.00  0.00    -0.327 A  
HETATM   17  C   UNL     1     -11.802  12.272  66.104  1.00  0.00    -0.398 A  
HETATM   18  O   UNL     1     -12.426  14.452  65.471  1.00  0.00    -0.408 OA 
HETATM   19  C   UNL     1     -11.513  13.071  68.751  1.00  0.00    -0.340 A  
HETATM   20  C   UNL     1     -11.861  14.009  67.764  1.00  0.00    -0.419 A  
ENDBRANCH   3  13
BRANCH   5  21
HETATM   21  C   UNL     1      -8.601  10.102  68.610  1.00  0.00    -0.123 C  
BRANCH  21  22
HETATM   22  C   UNL     1      -7.761  11.355  68.582  1.00  0.00    -0.137 A  
HETATM   23  C   UNL     1      -6.125  12.782  69.644  1.00  0.00    -0.126 A  
HETATM   24  C   UNL     1      -7.335  13.610  67.749  1.00  0.00    -0.170 A  
HETATM   25  C   UNL     1      -6.785  11.560  69.557  1.00  0.00    -0.106 A  
HETATM   26  C   UNL     1      -6.475  13.850  68.812  1.00  0.00    -0.094 A  
HETATM   27  C   UNL     1      -7.897  12.344  67.595  1.00  0.00    -0.163 A  
BRANCH  26  28
HETATM   28  O   UNL     1      -6.046  15.152  68.981  1.00  0.00    -0.095 OA 
BRANCH  28  29
HETATM   29  C   UNL     1      -7.105  16.022  69.388  1.00  0.00    -0.217 C  
BRANCH  29  30
HETATM   30  C   UNL     1      -7.077  17.426  68.766  1.00  0.00    -0.246 C  
BRANCH  30  31
HETATM   31  N   UNL     1      -8.436  17.818  68.284  1.00  0.00    -0.269 NA 
HETATM   32  C   UNL     1      -8.756  19.203  68.672  1.00  0.00    -0.359 C  
HETATM   33  C   UNL     1     -10.119  19.764  68.271  1.00  0.00    -0.575 C  
HETATM   34  C   UNL     1     -10.222  20.051  66.785  1.00  0.00    -0.592 C  
HETATM   35  C   UNL     1     -10.612  18.841  65.951  1.00  0.00    -0.405 C  
HETATM   36  C   UNL     1     -10.028  17.504  66.391  1.00  0.00    -0.330 C  
HETATM   37  C   UNL     1      -8.566  17.544  66.848  1.00  0.00    -0.247 C  
ENDBRANCH  30  31
ENDBRANCH  29  30
ENDBRANCH  28  29
ENDBRANCH  26  28
ENDBRANCH  21  22
ENDBRANCH   5  21
TORSDOF 7
ENDMDL
MODEL       13
REMARK 921   NORMALIZED FREE ENERGY PREDICTED BY IDOCK:   -6.86 KCAL/MOL
REMARK 922        TOTAL FREE ENERGY PREDICTED BY IDOCK:  -12.73 KCAL/MOL
REMARK 923 INTER-LIGAND FREE ENERGY PREDICTED BY IDOCK:  -10.33 KCAL/MOL
REMARK 924 INTRA-LIGAND FREE ENERGY PREDICTED BY IDOCK:   -2.40 KCAL/MOL
REMARK 927      BINDING AFFINITY PREDICTED BY RF-SCORE:    0.00 PKD
ROOT
HETATM    1  C   UNL     1     -10.984   5.921  70.089  1.00  0.00    -0.412 C  
HETATM    2  C   UNL     1     -10.876   7.410  69.981  1.00  0.00    -0.266 A  
HETATM    3  C   UNL     1     -10.143   8.208  69.091  1.00  0.00    -0.202 A  
HETATM    4  C   UNL     1     -13.281  10.304  71.825  1.00  0.00    -0.534 A  
HETATM    5  N   UNL     1     -10.480   9.546  69.400  1.00  0.00    -0.209 NA 
HETATM    6  O   UNL     1     -14.151   8.869  73.462  1.00  0.00    -1.189 OA 
HETATM    7  C   UNL     1     -11.547   9.557  70.295  1.00  0.00    -0.169 A  
HETATM    8  C   UNL     1     -13.315   9.055  72.402  1.00  0.00    -0.460 A  
HETATM    9  C   UNL     1     -11.666   8.267  70.804  1.00  0.00    -0.213 A  
HETATM   10  H   UNL     1     -14.674   9.579  73.816  1.00  0.00     0.000 HD 
HETATM   11  C   UNL     1     -12.433  10.553  70.746  1.00  0.00    -0.472 A  
HETATM   12  C   UNL     1     -12.551   8.017  71.883  1.00  0.00    -0.359 A  
ENDROOT
BRANCH   3  13
HETATM   13  C   UNL     1      -9.200   7.775  68.019  1.00  0.00    -0.140 A  
HETATM   14  C   UNL     1      -7.410   6.797  66.057  1.00  0.00    -0.075 A  
HETATM   15  H   UNL     1      -5.646   6.034  65.400  1.00  0.00     0.000 HD 
HETATM   16  C   UNL     1      -7.871   7.438  68.332  1.00  0.00    -0.122 A  
HETATM   17  C   UNL     1      -6.994   6.919  67.372  1.00  0.00    -0.079 A  
HETATM   18  O   UNL     1      -6.526   6.294  65.151  1.00  0.00    -0.037 OA 
HETATM   19  C   UNL     1      -9.590   7.631  66.677  1.00  0.00    -0.271 A  
HETATM   20  C   UNL     1      -8.695   7.177  65.694  1.00  0.00    -0.088 A  
ENDBRANCH   3  13
BRANCH   5  21
HETATM   21  C   UNL     1      -9.777  10.733  68.843  1.00  0.00    -0.198 C  
BRANCH  21  22
HETATM   22  C   UNL     1     -10.235  11.247  67.501  1.00  0.00    -0.217 A  
HETATM   23  C   UNL     1      -9.693  11.967  65.259  1.00  0.00    -0.214 A  
HETATM   24  C   UNL     1     -11.896  12.371  66.109  1.00  0.00    -0.442 A  
HETATM   25  C   UNL     1      -9.329  11.337  66.445  1.00  0.00    -0.210 A  
HETATM   26  C   UNL     1     -10.941  12.585  65.125  1.00  0.00    -0.297 A  
HETATM   27  C   UNL     1     -11.561  11.631  67.241  1.00  0.00    -0.316 A  
BRANCH  26  28
HETATM   28  O   UNL     1     -11.296  13.425  64.087  1.00  0.00    -0.378 OA 
BRANCH  28  29
HETATM   29  C   UNL     1     -11.936  14.617  64.551  1.00  0.00    -0.460 C  
BRANCH  29  30
HETATM   30  C   UNL     1     -10.994  15.791  64.853  1.00  0.00    -0.427 C  
BRANCH  30  31
HETATM   31  N   UNL     1     -10.172  15.510  66.069  1.00  0.00    -0.307 NA 
HETATM   32  C   UNL     1      -8.950  16.332  66.083  1.00  0.00    -0.339 C  
HETATM   33  C   UNL     1      -7.982  16.160  67.253  1.00  0.00    -0.203 C  
HETATM   34  C   UNL     1      -8.513  16.751  68.545  1.00  0.00    -0.244 C  
HETATM   35  C   UNL     1      -9.424  15.814  69.321  1.00  0.00    -0.270 C  
HETATM   36  C   UNL     1     -10.354  14.938  68.489  1.00  0.00    -0.237 C  
HETATM   37  C   UNL     1     -10.996  15.626  67.279  1.00  0.00    -0.275 C  
ENDBRANCH  30  31
ENDBRANCH  29  30
ENDBRANCH  28  29
ENDBRANCH  26  28
ENDBRANCH  21  22
ENDBRANCH   5  21
TORSDOF 7
ENDMDL
MODEL       14
REMARK 921   NORMALIZED FREE ENERGY PREDICTED BY IDOCK:   -6.82 KCAL/MOL
REMARK 922        TOTAL FREE ENERGY PREDICTED BY IDOCK:  -12.67 KCAL/MOL
REMARK 923 INTER-LIGAND FREE ENERGY PREDICTED BY IDOCK:   -9.90 KCAL/MOL
REMARK 924 INTRA-LIGAND FREE ENERGY PREDICTED BY IDOCK:   -2.78 KCAL/MOL
REMARK 927      BINDING AFFINITY PREDICTED BY RF-SCORE:    0.00 PKD
ROOT
HETATM    1  C   UNL     1      -9.759  13.924  68.062  1.00  0.00    -0.226 C  
HETATM    2  C   UNL     1      -9.701  12.778  67.102  1.00  0.00    -0.216 A  
HETATM    3  C   UNL     1      -9.110  11.512  67.228  1.00  0.00    -0.164 A  
HETATM    4  C   UNL     1     -11.919  12.255  63.584  1.00  0.00    -0.633 A  
HETATM    5  N   UNL     1      -9.437  10.811  66.045  1.00  0.00    -0.186 NA 
HETATM    6  O   UNL     1     -12.534  14.507  63.366  1.00  0.00    -1.080 OA 
HETATM    7  C   UNL     1     -10.379  11.539  65.323  1.00  0.00    -0.272 A  
HETATM    8  C   UNL     1     -11.847  13.548  64.049  1.00  0.00    -0.427 A  
HETATM    9  C   UNL     1     -10.400  12.823  65.858  1.00  0.00    -0.298 A  
HETATM   10  H   UNL     1     -13.024  14.304  62.577  1.00  0.00     0.000 HD 
HETATM   11  C   UNL     1     -11.224  11.238  64.238  1.00  0.00    -0.214 A  
HETATM   12  C   UNL     1     -11.131  13.845  65.202  1.00  0.00    -0.334 A  
ENDROOT
BRANCH   3  13
HETATM   13  C   UNL     1      -8.303  10.976  68.362  1.00  0.00    -0.139 A  
HETATM   14  C   UNL     1      -6.774  10.115  70.583  1.00  0.00    -0.039 A  
HETATM   15  H   UNL     1      -5.133  10.082  71.778  1.00  0.00     0.000 HD 
HETATM   16  C   UNL     1      -6.975  11.394  68.553  1.00  0.00    -0.080 A  
HETATM   17  C   UNL     1      -6.227  11.000  69.669  1.00  0.00    -0.095 A  
HETATM   18  O   UNL     1      -6.015   9.749  71.653  1.00  0.00    -0.246 OA 
HETATM   19  C   UNL     1      -8.828  10.084  69.313  1.00  0.00    -0.184 A  
HETATM   20  C   UNL     1      -8.062   9.629  70.399  1.00  0.00    -0.198 A  
ENDBRANCH   3  13
BRANCH   5  21
HETATM   21  C   UNL     1      -8.841   9.503  65.660  1.00  0.00    -0.161 C  
BRANCH  21  22
HETATM   22  C   UNL     1      -9.217   8.297  66.485  1.00  0.00    -0.236 A  
HETATM   23  C   UNL     1     -10.883   7.075  67.737  1.00  0.00    -0.276 A  
HETATM   24  C   UNL     1      -8.587   6.413  67.904  1.00  0.00    -0.116 A  
HETATM   25  C   UNL     1     -10.549   8.083  66.838  1.00  0.00    -0.324 A  
HETATM   26  C   UNL     1      -9.893   6.307  68.360  1.00  0.00    -0.130 A  
HETATM   27  C   UNL     1      -8.280   7.342  66.911  1.00  0.00    -0.117 A  
BRANCH  26  28
HETATM   28  O   UNL     1     -10.113   5.456  69.426  1.00  0.00    -0.191 OA 
BRANCH  28  29
HETATM   29  C   UNL     1      -9.537   5.950  70.638  1.00  0.00    -0.173 C  
BRANCH  29  30
HETATM   30  C   UNL     1     -10.527   6.174  71.790  1.00  0.00    -0.216 C  
BRANCH  30  31
HETATM   31  N   UNL     1     -11.551   7.197  71.417  1.00  0.00    -0.269 NA 
HETATM   32  C   UNL     1     -12.906   6.746  71.781  1.00  0.00    -0.259 C  
HETATM   33  C   UNL     1     -14.080   7.667  71.456  1.00  0.00    -0.535 C  
HETATM   34  C   UNL     1     -14.136   8.887  72.354  1.00  0.00    -0.493 C  
HETATM   35  C   UNL     1     -13.263  10.039  71.883  1.00  0.00    -0.557 C  
HETATM   36  C   UNL     1     -11.923   9.657  71.263  1.00  0.00    -0.462 C  
HETATM   37  C   UNL     1     -11.181   8.510  71.958  1.00  0.00    -0.348 C  
ENDBRANCH  30  31
ENDBRANCH  29  30
ENDBRANCH  28  29
ENDBRANCH  26  28
ENDBRANCH  21  22
ENDBRANCH   5  21
TORSDOF 7
ENDMDL
MODEL       15
REMARK 921   NORMALIZED FREE ENERGY PREDICTED BY IDOCK:   -6.75 KCAL/MOL
REMARK 922        TOTAL FREE ENERGY PREDICTED BY IDOCK:  -12.58 KCAL/MOL
REMARK 923 INTER-LIGAND FREE ENERGY PREDICTED BY IDOCK:   -9.72 KCAL/MOL
REMARK 924 INTRA-LIGAND FREE ENERGY PREDICTED BY IDOCK:   -2.86 KCAL/MOL
REMARK 927      BINDING AFFINITY PREDICTED BY RF-SCORE:    0.00 PKD
ROOT
HETATM    1  C   UNL     1     -12.652  13.883  71.099  1.00  0.00    -0.446 C  
HETATM    2  C   UNL     1     -12.238  12.671  70.325  1.00  0.00    -0.347 A  
HETATM    3  C   UNL     1     -11.488  12.555  69.146  1.00  0.00    -0.305 A  
HETATM    4  C   UNL     1     -12.408   8.663  71.539  1.00  0.00    -0.370 A  
HETATM    5  N   UNL     1     -11.337  11.168  68.916  1.00  0.00    -0.250 NA 
HETATM    6  O   UNL     1     -13.942   9.016  73.277  1.00  0.00    -1.205 OA 
HETATM    7  C   UNL     1     -11.785  10.464  70.031  1.00  0.00    -0.286 A  
HETATM    8  C   UNL     1     -13.218   9.526  72.241  1.00  0.00    -0.421 A  
HETATM    9  C   UNL     1     -12.514  11.358  70.811  1.00  0.00    -0.460 A  
HETATM   10  H   UNL     1     -13.917   8.092  73.495  1.00  0.00     0.000 HD 
HETATM   11  C   UNL     1     -11.657   9.131  70.461  1.00  0.00    -0.238 A  
HETATM   12  C   UNL     1     -13.253  10.878  71.922  1.00  0.00    -0.508 A  
ENDROOT
BRANCH   3  13
HETATM   13  C   UNL     1     -10.938  13.643  68.287  1.00  0.00    -0.275 A  
HETATM   14  C   UNL     1      -9.769  15.600  66.610  1.00  0.00    -0.249 A  
HETATM   15  H   UNL     1      -8.301  16.877  66.027  1.00  0.00     0.000 HD 
HETATM   16  C   UNL     1      -9.703  14.239  68.595  1.00  0.00    -0.213 A  
HETATM   17  C   UNL     1      -9.104  15.181  67.749  1.00  0.00    -0.179 A  
HETATM   18  O   UNL     1      -9.157  16.522  65.816  1.00  0.00    -0.487 OA 
HETATM   19  C   UNL     1     -11.581  14.087  67.118  1.00  0.00    -0.397 A  
HETATM   20  C   UNL     1     -11.019  15.082  66.301  1.00  0.00    -0.338 A  
ENDBRANCH   3  13
BRANCH   5  21
HETATM   21  C   UNL     1     -10.788  10.586  67.662  1.00  0.00    -0.300 C  
BRANCH  21  22
HETATM   22  C   UNL     1      -9.367  10.080  67.693  1.00  0.00    -0.159 A  
HETATM   23  C   UNL     1      -7.625   8.723  66.711  1.00  0.00    -0.090 A  
HETATM   24  C   UNL     1      -7.299   9.624  68.907  1.00  0.00    -0.073 A  
HETATM   25  C   UNL     1      -8.870   9.339  66.621  1.00  0.00    -0.146 A  
HETATM   26  C   UNL     1      -6.882   8.771  67.896  1.00  0.00    -0.070 A  
HETATM   27  C   UNL     1      -8.488  10.336  68.757  1.00  0.00    -0.130 A  
BRANCH  26  28
HETATM   28  O   UNL     1      -5.761   8.004  68.152  1.00  0.00    -0.032 OA 
BRANCH  28  29
HETATM   29  C   UNL     1      -6.041   6.603  68.091  1.00  0.00    -0.029 C  
BRANCH  29  30
HETATM   30  C   UNL     1      -6.906   6.056  69.236  1.00  0.00    -0.062 C  
BRANCH  30  31
HETATM   31  N   UNL     1      -8.215   5.555  68.716  1.00  0.00    -0.101 NA 
HETATM   32  C   UNL     1      -9.313   6.467  69.079  1.00  0.00    -0.128 C  
HETATM   33  C   UNL     1     -10.728   6.097  68.639  1.00  0.00    -0.370 C  
HETATM   34  C   UNL     1     -10.944   6.270  67.148  1.00  0.00    -0.453 C  
HETATM   35  C   UNL     1     -10.506   5.073  66.320  1.00  0.00    -0.352 C  
HETATM   36  C   UNL     1      -9.247   4.353  66.791  1.00  0.00    -0.147 C  
HETATM   37  C   UNL     1      -8.115   5.263  67.281  1.00  0.00    -0.101 C  
ENDBRANCH  30  31
ENDBRANCH  29  30
ENDBRANCH  28  29
ENDBRANCH  26  28
ENDBRANCH  21  22
ENDBRANCH   5  21
TORSDOF 7
ENDMDL
MODEL       16
REMARK 921   NORMALIZED FREE ENERGY PREDICTED BY IDOCK:   -6.73 KCAL/MOL
REMARK 922        TOTAL FREE ENERGY PREDICTED BY IDOCK:  -12.55 KCAL/MOL
REMARK 923 INTER-LIGAND FREE ENERGY PREDICTED BY IDOCK:  -10.16 KCAL/MOL
REMARK 924 INTRA-LIGAND FREE ENERGY PREDICTED BY IDOCK:   -2.39 KCAL/MOL
REMARK 927      BINDING AFFINITY PREDICTED BY RF-SCORE:    0.00 PKD
ROOT
HETATM    1  C   UNL     1     -11.839  15.523  71.769  1.00  0.00    -0.504 C  
HETATM    2  C   UNL     1     -11.719  14.569  70.623  1.00  0.00    -0.330 A  
HETATM    3  C   UNL     1     -11.079  14.711  69.382  1.00  0.00    -0.268 A  
HETATM    4  C   UNL     1     -12.599  10.472  70.581  1.00  0.00    -0.457 A  
HETATM    5  N   UNL     1     -11.218  13.466  68.728  1.00  0.00    -0.261 NA 
HETATM    6  O   UNL     1     -13.925  10.504  72.514  1.00  0.00    -0.356 OA 
HETATM    7  C   UNL     1     -11.727  12.529  69.624  1.00  0.00    -0.302 A  
HETATM    8  C   UNL     1     -13.179  11.189  71.602  1.00  0.00    -0.345 A  
HETATM    9  C   UNL     1     -12.217  13.236  70.719  1.00  0.00    -0.390 A  
HETATM   10  H   UNL     1     -14.069   9.568  72.439  1.00  0.00     0.000 HD 
HETATM   11  C   UNL     1     -11.837  11.126  69.613  1.00  0.00    -0.419 A  
HETATM   12  C   UNL     1     -12.968  12.558  71.712  1.00  0.00    -0.419 A  
ENDROOT
BRANCH   3  13
HETATM   13  C   UNL     1     -10.379  15.909  68.833  1.00  0.00    -0.228 A  
HETATM   14  C   UNL     1      -9.134  18.275  67.906  1.00  0.00    -0.279 A  
HETATM   15  H   UNL     1      -9.100  20.116  67.049  1.00  0.00     0.000 HD 
HETATM   16  C   UNL     1     -11.098  16.904  68.149  1.00  0.00    -0.205 A  
HETATM   17  C   UNL     1     -10.494  18.092  67.721  1.00  0.00    -0.421 A  
HETATM   18  O   UNL     1      -8.581  19.441  67.471  1.00  0.00    -0.289 OA 
HETATM   19  C   UNL     1      -9.003  16.131  69.010  1.00  0.00    -0.247 A  
HETATM   20  C   UNL     1      -8.375  17.290  68.522  1.00  0.00    -0.267 A  
ENDBRANCH   3  13
BRANCH   5  21
HETATM   21  C   UNL     1     -10.872  13.231  67.301  1.00  0.00    -0.264 C  
BRANCH  21  22
HETATM   22  C   UNL     1     -10.122  11.965  66.965  1.00  0.00    -0.226 A  
HETATM   23  C   UNL     1     -10.032   9.854  65.792  1.00  0.00    -0.347 A  
HETATM   24  C   UNL     1      -8.398  10.315  67.481  1.00  0.00    -0.114 A  
HETATM   25  C   UNL     1     -10.617  11.102  65.989  1.00  0.00    -0.298 A  
HETATM   26  C   UNL     1      -8.990   9.410  66.612  1.00  0.00    -0.146 A  
HETATM   27  C   UNL     1      -8.913  11.607  67.583  1.00  0.00    -0.166 A  
BRANCH  26  28
HETATM   28  O   UNL     1      -8.512   8.114  66.644  1.00  0.00    -0.121 OA 
BRANCH  28  29
HETATM   29  C   UNL     1      -8.700   7.500  67.922  1.00  0.00    -0.124 C  
BRANCH  29  30
HETATM   30  C   UNL     1     -10.131   7.032  68.220  1.00  0.00    -0.167 C  
BRANCH  30  31
HETATM   31  N   UNL     1     -10.574   7.509  69.566  1.00  0.00    -0.237 NA 
HETATM   32  C   UNL     1     -11.619   6.632  70.120  1.00  0.00    -0.386 C  
HETATM   33  C   UNL     1     -12.199   6.983  71.489  1.00  0.00    -0.407 C  
HETATM   34  C   UNL     1     -11.231   6.712  72.624  1.00  0.00    -0.285 C  
HETATM   35  C   UNL     1     -10.255   7.848  72.884  1.00  0.00    -0.397 C  
HETATM   36  C   UNL     1      -9.740   8.587  71.653  1.00  0.00    -0.322 C  
HETATM   37  C   UNL     1      -9.414   7.703  70.445  1.00  0.00    -0.164 C  
ENDBRANCH  30  31
ENDBRANCH  29  30
ENDBRANCH  28  29
ENDBRANCH  26  28
ENDBRANCH  21  22
ENDBRANCH   5  21
TORSDOF 7
ENDMDL
MODEL       17
REMARK 921   NORMALIZED FREE ENERGY PREDICTED BY IDOCK:   -6.63 KCAL/MOL
REMARK 922        TOTAL FREE ENERGY PREDICTED BY IDOCK:  -12.41 KCAL/MOL
REMARK 923 INTER-LIGAND FREE ENERGY PREDICTED BY IDOCK:   -9.52 KCAL/MOL
REMARK 924 INTRA-LIGAND FREE ENERGY PREDICTED BY IDOCK:   -2.89 KCAL/MOL
REMARK 927      BINDING AFFINITY PREDICTED BY RF-SCORE:    0.00 PKD
ROOT
HETATM    1  C   UNL     1     -11.998  14.386  69.108  1.00  0.00    -0.357 C  
HETATM    2  C   UNL     1     -11.751  13.352  68.055  1.00  0.00    -0.391 A  
HETATM    3  C   UNL     1     -11.669  11.955  68.152  1.00  0.00    -0.320 A  
HETATM    4  C   UNL     1     -11.848  13.840  63.894  1.00  0.00    -0.368 A  
HETATM    5  N   UNL     1     -11.500  11.482  66.831  1.00  0.00    -0.483 NA 
HETATM    6  O   UNL     1     -11.642  16.175  63.934  1.00  0.00    -1.369 OA 
HETATM    7  C   UNL     1     -11.696  12.533  65.937  1.00  0.00    -0.426 A  
HETATM    8  C   UNL     1     -11.693  14.998  64.620  1.00  0.00    -0.382 A  
HETATM    9  C   UNL     1     -11.656  13.711  66.678  1.00  0.00    -0.391 A  
HETATM   10  H   UNL     1     -11.681  16.201  62.985  1.00  0.00     0.000 HD 
HETATM   11  C   UNL     1     -11.893  12.607  64.546  1.00  0.00    -0.441 A  
HETATM   12  C   UNL     1     -11.637  14.960  66.008  1.00  0.00    -0.226 A  
ENDROOT
BRANCH   3  13
HETATM   13  C   UNL     1     -11.748  11.105  69.376  1.00  0.00    -0.402 A  
HETATM   14  C   UNL     1     -11.984   9.376  71.604  1.00  0.00    -0.393 A  
HETATM   15  H   UNL     1     -13.002   8.357  73.036  1.00  0.00     0.000 HD 
HETATM   16  C   UNL     1     -12.984  10.871  70.004  1.00  0.00     0.046 A  
HETATM   17  C   UNL     1     -13.111   9.989  71.083  1.00  0.00    -0.472 A  
HETATM   18  O   UNL     1     -12.147   8.529  72.658  1.00  0.00    -0.378 OA 
HETATM   19  C   UNL     1     -10.627  10.460  69.927  1.00  0.00    -0.299 A  
HETATM   20  C   UNL     1     -10.735   9.627  71.053  1.00  0.00    -0.393 A  
ENDBRANCH   3  13
BRANCH   5  21
HETATM   21  C   UNL     1     -11.159  10.076  66.485  1.00  0.00     0.343 C  
BRANCH  21  22
HETATM   22  C   UNL     1      -9.697   9.724  66.365  1.00  0.00    -0.275 A  
HETATM   23  C   UNL     1      -7.985   8.199  65.600  1.00  0.00    -0.108 A  
HETATM   24  C   UNL     1      -7.386   9.953  67.118  1.00  0.00    -0.091 A  
HETATM   25  C   UNL     1      -9.306   8.638  65.583  1.00  0.00    -0.173 A  
HETATM   26  C   UNL     1      -7.043   8.785  66.453  1.00  0.00    -0.083 A  
HETATM   27  C   UNL     1      -8.680  10.457  66.996  1.00  0.00    -0.132 A  
BRANCH  26  28
HETATM   28  O   UNL     1      -5.787   8.270  66.708  1.00  0.00    -0.046 OA 
BRANCH  28  29
HETATM   29  C   UNL     1      -5.841   6.922  67.182  1.00  0.00    -0.017 C  
BRANCH  29  30
HETATM   30  C   UNL     1      -6.374   6.751  68.611  1.00  0.00    -0.031 C  
BRANCH  30  31
HETATM   31  N   UNL     1      -7.766   6.207  68.596  1.00  0.00    -0.098 NA 
HETATM   32  C   UNL     1      -7.828   4.891  69.256  1.00  0.00    -0.075 C  
HETATM   33  C   UNL     1      -9.179   4.181  69.316  1.00  0.00    -0.213 C  
HETATM   34  C   UNL     1     -10.139   4.829  70.295  1.00  0.00    -0.304 C  
HETATM   35  C   UNL     1     -10.918   5.997  69.711  1.00  0.00    -0.471 C  
HETATM   36  C   UNL     1     -10.158   6.894  68.742  1.00  0.00    -0.168 C  
HETATM   37  C   UNL     1      -8.707   7.199  69.129  1.00  0.00    -0.133 C  
ENDBRANCH  30  31
ENDBRANCH  29  30
ENDBRANCH  28  29
ENDBRANCH  26  28
ENDBRANCH  21  22
ENDBRANCH   5  21
TORSDOF 7
ENDMDL
MODEL       18
REMARK 921   NORMALIZED FREE ENERGY PREDICTED BY IDOCK:   -6.63 KCAL/MOL
REMARK 922        TOTAL FREE ENERGY PREDICTED BY IDOCK:  -12.41 KCAL/MOL
REMARK 923 INTER-LIGAND FREE ENERGY PREDICTED BY IDOCK:  -10.37 KCAL/MOL
REMARK 924 INTRA-LIGAND FREE ENERGY PREDICTED BY IDOCK:   -2.05 KCAL/MOL
REMARK 927      BINDING AFFINITY PREDICTED BY RF-SCORE:    0.00 PKD
ROOT
HETATM    1  C   UNL     1     -12.326  14.261  65.757  1.00  0.00    -0.420 C  
HETATM    2  C   UNL     1     -11.321  13.321  66.343  1.00  0.00    -0.341 A  
HETATM    3  C   UNL     1     -10.880  13.167  67.666  1.00  0.00    -0.254 A  
HETATM    4  C   UNL     1      -9.611   9.940  64.551  1.00  0.00    -0.290 A  
HETATM    5  N   UNL     1      -9.982  12.074  67.652  1.00  0.00    -0.188 NA 
HETATM    6  O   UNL     1     -10.156  10.546  62.354  1.00  0.00    -0.746 OA 
HETATM    7  C   UNL     1     -10.044  11.443  66.411  1.00  0.00    -0.218 A  
HETATM    8  C   UNL     1     -10.167  10.850  63.682  1.00  0.00    -0.332 A  
HETATM    9  C   UNL     1     -10.708  12.309  65.546  1.00  0.00    -0.314 A  
HETATM   10  H   UNL     1      -9.755   9.749  62.027  1.00  0.00     0.000 HD 
HETATM   11  C   UNL     1      -9.583  10.208  65.920  1.00  0.00    -0.274 A  
HETATM   12  C   UNL     1     -10.754  12.015  64.160  1.00  0.00    -0.405 A  
ENDROOT
BRANCH   3  13
HETATM   13  C   UNL     1     -11.261  13.963  68.868  1.00  0.00    -0.304 A  
HETATM   14  C   UNL     1     -12.075  15.577  71.046  1.00  0.00    -0.387 A  
HETATM   15  H   UNL     1     -12.165  17.296  72.122  1.00  0.00     0.000 HD 
HETATM   16  C   UNL     1     -10.793  15.279  69.030  1.00  0.00    -0.244 A  
HETATM   17  C   UNL     1     -11.222  16.092  70.085  1.00  0.00    -0.374 A  
HETATM   18  O   UNL     1     -12.465  16.397  72.062  1.00  0.00    -0.311 OA 
HETATM   19  C   UNL     1     -12.131  13.475  69.858  1.00  0.00    -0.408 A  
HETATM   20  C   UNL     1     -12.511  14.262  70.958  1.00  0.00    -0.432 A  
ENDBRANCH   3  13
BRANCH   5  21
HETATM   21  C   UNL     1      -9.117  11.692  68.799  1.00  0.00    -0.021 C  
BRANCH  21  22
HETATM   22  C   UNL     1      -9.591  10.565  69.684  1.00  0.00    -0.062 A  
HETATM   23  C   UNL     1     -11.394   9.461  70.853  1.00  0.00    -0.386 A  
HETATM   24  C   UNL     1      -9.136   8.819  71.328  1.00  0.00    -0.300 A  
HETATM   25  C   UNL     1     -10.955  10.384  69.908  1.00  0.00    -0.364 A  
HETATM   26  C   UNL     1     -10.485   8.754  71.647  1.00  0.00    -0.317 A  
HETATM   27  C   UNL     1      -8.714   9.653  70.295  1.00  0.00    -0.248 A  
BRANCH  26  28
HETATM   28  O   UNL     1     -10.827   8.004  72.756  1.00  0.00    -0.343 OA 
BRANCH  28  29
HETATM   29  C   UNL     1     -11.581   6.840  72.408  1.00  0.00    -0.245 C  
BRANCH  29  30
HETATM   30  C   UNL     1     -10.749   5.590  72.089  1.00  0.00    -0.231 C  
BRANCH  30  31
HETATM   31  N   UNL     1     -10.191   5.665  70.705  1.00  0.00    -0.214 NA 
HETATM   32  C   UNL     1      -9.405   4.460  70.385  1.00  0.00    -0.149 C  
HETATM   33  C   UNL     1      -8.747   4.377  69.009  1.00  0.00    -0.116 C  
HETATM   34  C   UNL     1      -9.746   4.143  67.893  1.00  0.00    -0.161 C  
HETATM   35  C   UNL     1     -10.393   5.416  67.370  1.00  0.00    -0.258 C  
HETATM   36  C   UNL     1     -10.705   6.488  68.409  1.00  0.00    -0.339 C  
HETATM   37  C   UNL     1     -11.255   5.970  69.742  1.00  0.00    -0.369 C  
ENDBRANCH  30  31
ENDBRANCH  29  30
ENDBRANCH  28  29
ENDBRANCH  26  28
ENDBRANCH  21  22
ENDBRANCH   5  21
TORSDOF 7
ENDMDL
MODEL       19
REMARK 921   NORMALIZED FREE ENERGY PREDICTED BY IDOCK:   -6.61 KCAL/MOL
REMARK 922        TOTAL FREE ENERGY PREDICTED BY IDOCK:  -12.38 KCAL/MOL
REMARK 923 INTER-LIGAND FREE ENERGY PREDICTED BY IDOCK:  -10.44 KCAL/MOL
REMARK 924 INTRA-LIGAND FREE ENERGY PREDICTED BY IDOCK:   -1.94 KCAL/MOL
REMARK 927      BINDING AFFINITY PREDICTED BY RF-SCORE:    0.00 PKD
ROOT
HETATM    1  C   UNL     1     -10.741  17.650  65.638  1.00  0.00    -0.084 C  
HETATM    2  C   UNL     1      -9.997  16.702  66.524  1.00  0.00    -0.296 A  
HETATM    3  C   UNL     1      -9.974  15.300  66.544  1.00  0.00    -0.265 A  
HETATM    4  C   UNL     1      -6.845  17.570  69.148  1.00  0.00    -0.232 A  
HETATM    5  N   UNL     1      -9.036  14.940  67.538  1.00  0.00    -0.179 NA 
HETATM    6  O   UNL     1      -7.257  19.875  69.245  1.00  0.00    -0.309 OA 
HETATM    7  C   UNL     1      -8.347  16.076  67.955  1.00  0.00    -0.153 A  
HETATM    8  C   UNL     1      -7.617  18.647  68.777  1.00  0.00    -0.298 A  
HETATM    9  C   UNL     1      -9.057  17.178  67.487  1.00  0.00    -0.225 A  
HETATM   10  H   UNL     1      -6.519  19.989  69.832  1.00  0.00     0.000 HD 
HETATM   11  C   UNL     1      -7.177  16.288  68.708  1.00  0.00    -0.179 A  
HETATM   12  C   UNL     1      -8.696  18.480  67.918  1.00  0.00    -0.301 A  
ENDROOT
BRANCH   3  13
HETATM   13  C   UNL     1     -10.756  14.349  65.701  1.00  0.00    -0.326 A  
HETATM   14  C   UNL     1     -12.328  12.680  64.042  1.00  0.00    -0.443 A  
HETATM   15  H   UNL     1     -14.056  11.811  63.424  1.00  0.00     0.000 HD 
HETATM   16  C   UNL     1     -12.121  14.127  65.955  1.00  0.00    -0.449 A  
HETATM   17  C   UNL     1     -12.910  13.331  65.116  1.00  0.00    -0.376 A  
HETATM   18  O   UNL     1     -13.126  11.909  63.253  1.00  0.00    -0.674 OA 
HETATM   19  C   UNL     1     -10.201  13.678  64.598  1.00  0.00    -0.338 A  
HETATM   20  C   UNL     1     -10.970  12.823  63.792  1.00  0.00    -0.445 A  
ENDBRANCH   3  13
BRANCH   5  21
HETATM   21  C   UNL     1      -8.846  13.554  68.042  1.00  0.00    -0.181 C  
BRANCH  21  22
HETATM   22  C   UNL     1     -10.073  12.805  68.502  1.00  0.00    -0.189 A  
HETATM   23  C   UNL     1     -11.989  12.661  69.969  1.00  0.00    -0.377 A  
HETATM   24  C   UNL     1     -11.355  10.736  68.690  1.00  0.00    -0.356 A  
HETATM   25  C   UNL     1     -10.952  13.400  69.407  1.00  0.00    -0.079 A  
HETATM   26  C   UNL     1     -12.128  11.295  69.698  1.00  0.00    -0.322 A  
HETATM   27  C   UNL     1     -10.400  11.519  68.044  1.00  0.00    -0.208 A  
BRANCH  26  28
HETATM   28  O   UNL     1     -12.971  10.440  70.382  1.00  0.00    -0.303 OA 
BRANCH  28  29
HETATM   29  C   UNL     1     -12.596  10.296  71.754  1.00  0.00    -0.389 C  
BRANCH  29  30
HETATM   30  C   UNL     1     -12.838   8.905  72.358  1.00  0.00    -0.380 C  
BRANCH  30  31
HETATM   31  N   UNL     1     -11.732   7.970  71.991  1.00  0.00    -0.303 NA 
HETATM   32  C   UNL     1     -11.022   7.494  73.191  1.00  0.00    -0.367 C  
HETATM   33  C   UNL     1      -9.847   6.536  72.998  1.00  0.00    -0.178 C  
HETATM   34  C   UNL     1     -10.285   5.145  72.583  1.00  0.00    -0.232 C  
HETATM   35  C   UNL     1     -10.498   4.989  71.086  1.00  0.00    -0.205 C  
HETATM   36  C   UNL     1     -11.109   6.186  70.365  1.00  0.00    -0.420 C  
HETATM   37  C   UNL     1     -12.235   6.902  71.119  1.00  0.00    -0.379 C  
ENDBRANCH  30  31
ENDBRANCH  29  30
ENDBRANCH  28  29
ENDBRANCH  26  28
ENDBRANCH  21  22
ENDBRANCH   5  21
TORSDOF 7
ENDMDL
MODEL       20
REMARK 921   NORMALIZED FREE ENERGY PREDICTED BY IDOCK:   -6.59 KCAL/MOL
REMARK 922        TOTAL FREE ENERGY PREDICTED BY IDOCK:  -12.35 KCAL/MOL
REMARK 923 INTER-LIGAND FREE ENERGY PREDICTED BY IDOCK:   -9.90 KCAL/MOL
REMARK 924 INTRA-LIGAND FREE ENERGY PREDICTED BY IDOCK:   -2.46 KCAL/MOL
REMARK 927      BINDING AFFINITY PREDICTED BY RF-SCORE:    0.00 PKD
ROOT
HETATM    1  C   UNL     1     -12.475  13.819  71.153  1.00  0.00    -0.450 C  
HETATM    2  C   UNL     1     -12.187  12.599  70.335  1.00  0.00    -0.368 A  
HETATM    3  C   UNL     1     -11.518  12.460  69.111  1.00  0.00    -0.302 A  
HETATM    4  C   UNL     1     -12.546   8.585  71.487  1.00  0.00    -0.348 A  
HETATM    5  N   UNL     1     -11.472  11.072  68.848  1.00  0.00    -0.270 NA 
HETATM    6  O   UNL     1     -13.947   8.999  73.321  1.00  0.00    -1.205 OA 
HETATM    7  C   UNL     1     -11.897  10.375  69.976  1.00  0.00    -0.273 A  
HETATM    8  C   UNL     1     -13.254   9.483  72.252  1.00  0.00    -0.421 A  
HETATM    9  C   UNL     1     -12.518  11.296  70.814  1.00  0.00    -0.471 A  
HETATM   10  H   UNL     1     -13.970   8.070  73.521  1.00  0.00     0.000 HD 
HETATM   11  C   UNL     1     -11.831   9.027  70.374  1.00  0.00    -0.018 A  
HETATM   12  C   UNL     1     -13.220  10.841  71.959  1.00  0.00    -0.466 A  
ENDROOT
BRANCH   3  13
HETATM   13  C   UNL     1     -10.950  13.530  68.239  1.00  0.00    -0.280 A  
HETATM   14  C   UNL     1      -9.784  15.436  66.502  1.00  0.00    -0.272 A  
HETATM   15  H   UNL     1      -8.243  16.487  65.701  1.00  0.00     0.000 HD 
HETATM   16  C   UNL     1      -9.582  13.848  68.301  1.00  0.00    -0.218 A  
HETATM   17  C   UNL     1      -8.995  14.763  67.419  1.00  0.00    -0.200 A  
HETATM   18  O   UNL     1      -9.178  16.323  65.665  1.00  0.00    -0.444 OA 
HETATM   19  C   UNL     1     -11.719  14.225  67.291  1.00  0.00    -0.422 A  
HETATM   20  C   UNL     1     -11.151  15.196  66.449  1.00  0.00    -0.312 A  
ENDBRANCH   3  13
BRANCH   5  21
HETATM   21  C   UNL     1     -11.037  10.483  67.553  1.00  0.00    -0.290 C  
BRANCH  21  22
HETATM   22  C   UNL     1      -9.927   9.461  67.590  1.00  0.00    -0.238 A  
HETATM   23  C   UNL     1      -9.080   7.292  66.947  1.00  0.00    -0.162 A  
HETATM   24  C   UNL     1      -7.920   8.540  68.631  1.00  0.00    -0.116 A  
HETATM   25  C   UNL     1     -10.007   8.318  66.796  1.00  0.00    -0.355 A  
HETATM   26  C   UNL     1      -8.098   7.349  67.942  1.00  0.00    -0.119 A  
HETATM   27  C   UNL     1      -8.779   9.610  68.384  1.00  0.00    -0.120 A  
BRANCH  26  28
HETATM   28  O   UNL     1      -7.295   6.289  68.315  1.00  0.00    -0.082 OA 
BRANCH  28  29
HETATM   29  C   UNL     1      -8.052   5.199  68.850  1.00  0.00    -0.085 C  
BRANCH  29  30
HETATM   30  C   UNL     1      -7.873   4.952  70.354  1.00  0.00    -0.066 C  
BRANCH  30  31
HETATM   31  N   UNL     1      -8.838   5.775  71.145  1.00  0.00    -0.135 NA 
HETATM   32  C   UNL     1      -9.967   4.956  71.620  1.00  0.00    -0.190 C  
HETATM   33  C   UNL     1     -11.059   5.645  72.436  1.00  0.00    -0.324 C  
HETATM   34  C   UNL     1     -10.605   6.010  73.836  1.00  0.00    -0.236 C  
HETATM   35  C   UNL     1      -9.876   7.341  73.919  1.00  0.00    -0.322 C  
HETATM   36  C   UNL     1      -8.959   7.680  72.749  1.00  0.00    -0.212 C  
HETATM   37  C   UNL     1      -8.133   6.510  72.202  1.00  0.00    -0.106 C  
ENDBRANCH  30  31
ENDBRANCH  29  30
ENDBRANCH  28  29
ENDBRANCH  26  28
ENDBRANCH  21  22
ENDBRANCH   5  21
TORSDOF 7
ENDMDL
MODEL       21
REMARK 921   NORMALIZED FREE ENERGY PREDICTED BY IDOCK:   -6.59 KCAL/MOL
REMARK 922        TOTAL FREE ENERGY PREDICTED BY IDOCK:  -12.35 KCAL/MOL
REMARK 923 INTER-LIGAND FREE ENERGY PREDICTED BY IDOCK:   -8.69 KCAL/MOL
REMARK 924 INTRA-LIGAND FREE ENERGY PREDICTED BY IDOCK:   -3.66 KCAL/MOL
REMARK 927      BINDING AFFINITY PREDICTED BY RF-SCORE:    0.00 PKD
ROOT
HETATM    1  C   UNL     1     -10.467   8.287  66.869  1.00  0.00    -0.365 C  
HETATM    2  C   UNL     1      -9.491   9.373  67.196  1.00  0.00    -0.185 A  
HETATM    3  C   UNL     1      -9.411  10.696  66.736  1.00  0.00    -0.162 A  
HETATM    4  C   UNL     1      -6.686   9.460  70.309  1.00  0.00    -0.074 A  
HETATM    5  N   UNL     1      -8.338  11.289  67.440  1.00  0.00    -0.134 NA 
HETATM    6  O   UNL     1      -6.714   7.150  70.706  1.00  0.00    -0.051 OA 
HETATM    7  C   UNL     1      -7.921  10.429  68.453  1.00  0.00    -0.110 A  
HETATM    8  C   UNL     1      -7.155   8.211  69.973  1.00  0.00    -0.048 A  
HETATM    9  C   UNL     1      -8.483   9.184  68.189  1.00  0.00    -0.125 A  
HETATM   10  H   UNL     1      -6.081   7.256  71.407  1.00  0.00     0.000 HD 
HETATM   11  C   UNL     1      -7.095  10.579  69.583  1.00  0.00    -0.141 A  
HETATM   12  C   UNL     1      -8.081   8.057  68.949  1.00  0.00    -0.124 A  
ENDROOT
BRANCH   3  13
HETATM   13  C   UNL     1     -10.268  11.377  65.722  1.00  0.00    -0.295 A  
HETATM   14  C   UNL     1     -11.932  12.514  63.736  1.00  0.00    -0.517 A  
HETATM   15  H   UNL     1     -12.474  12.956  61.830  1.00  0.00     0.000 HD 
HETATM   16  C   UNL     1      -9.916  11.356  64.362  1.00  0.00    -0.321 A  
HETATM   17  C   UNL     1     -10.754  11.885  63.372  1.00  0.00    -0.476 A  
HETATM   18  O   UNL     1     -12.718  13.023  62.746  1.00  0.00    -0.147 OA 
HETATM   19  C   UNL     1     -11.475  12.017  66.054  1.00  0.00    -0.399 A  
HETATM   20  C   UNL     1     -12.287  12.611  65.074  1.00  0.00    -0.561 A  
ENDBRANCH   3  13
BRANCH   5  21
HETATM   21  C   UNL     1      -7.765  12.623  67.117  1.00  0.00    -0.091 C  
BRANCH  21  22
HETATM   22  C   UNL     1      -8.462  13.836  67.682  1.00  0.00    -0.183 A  
HETATM   23  C   UNL     1      -8.921  15.276  69.567  1.00  0.00    -0.183 A  
HETATM   24  C   UNL     1     -10.240  15.506  67.580  1.00  0.00    -0.255 A  
HETATM   25  C   UNL     1      -8.166  14.269  68.974  1.00  0.00     0.020 A  
HETATM   26  C   UNL     1     -10.032  15.823  68.915  1.00  0.00    -0.223 A  
HETATM   27  C   UNL     1      -9.400  14.585  66.955  1.00  0.00    -0.258 A  
BRANCH  26  28
HETATM   28  O   UNL     1     -10.966  16.647  69.512  1.00  0.00    -0.307 OA 
BRANCH  28  29
HETATM   29  C   UNL     1     -11.484  16.089  70.722  1.00  0.00    -0.414 C  
BRANCH  29  30
HETATM   30  C   UNL     1     -12.661  15.119  70.547  1.00  0.00    -0.380 C  
BRANCH  30  31
HETATM   31  N   UNL     1     -12.233  13.713  70.817  1.00  0.00    -0.355 NA 
HETATM   32  C   UNL     1     -13.221  13.010  71.653  1.00  0.00    -0.336 C  
HETATM   33  C   UNL     1     -12.933  11.560  72.040  1.00  0.00    -0.373 C  
HETATM   34  C   UNL     1     -13.088  10.601  70.876  1.00  0.00    -0.342 C  
HETATM   35  C   UNL     1     -11.847  10.485  70.005  1.00  0.00    -0.388 C  
HETATM   36  C   UNL     1     -11.059  11.771  69.783  1.00  0.00    -0.066 C  
HETATM   37  C   UNL     1     -11.905  13.029  69.560  1.00  0.00    -0.323 C  
ENDBRANCH  30  31
ENDBRANCH  29  30
ENDBRANCH  28  29
ENDBRANCH  26  28
ENDBRANCH  21  22
ENDBRANCH   5  21
TORSDOF 7
ENDMDL
MODEL       22
REMARK 921   NORMALIZED FREE ENERGY PREDICTED BY IDOCK:   -6.53 KCAL/MOL
REMARK 922        TOTAL FREE ENERGY PREDICTED BY IDOCK:  -12.26 KCAL/MOL
REMARK 923 INTER-LIGAND FREE ENERGY PREDICTED BY IDOCK:  -10.25 KCAL/MOL
REMARK 924 INTRA-LIGAND FREE ENERGY PREDICTED BY IDOCK:   -2.01 KCAL/MOL
REMARK 927      BINDING AFFINITY PREDICTED BY RF-SCORE:    0.00 PKD
ROOT
HETATM    1  C   UNL     1     -14.010   8.931  72.319  1.00  0.00    -0.531 C  
HETATM    2  C   UNL     1     -12.627   8.916  71.746  1.00  0.00    -0.420 A  
HETATM    3  C   UNL     1     -11.865   9.947  71.178  1.00  0.00    -0.386 A  
HETATM    4  C   UNL     1      -9.733   5.904  72.091  1.00  0.00    -0.175 A  
HETATM    5  N   UNL     1     -10.604   9.380  70.881  1.00  0.00    -0.295 NA 
HETATM    6  O   UNL     1     -11.234   4.215  72.714  1.00  0.00    -0.035 OA 
HETATM    7  C   UNL     1     -10.524   8.111  71.450  1.00  0.00    -0.212 A  
HETATM    8  C   UNL     1     -11.027   5.509  72.337  1.00  0.00    -0.255 A  
HETATM    9  C   UNL     1     -11.817   7.743  71.810  1.00  0.00    -0.328 A  
HETATM   10  H   UNL     1     -10.518   3.594  72.779  1.00  0.00     0.000 HD 
HETATM   11  C   UNL     1      -9.467   7.213  71.688  1.00  0.00    -0.159 A  
HETATM   12  C   UNL     1     -12.073   6.418  72.243  1.00  0.00    -0.252 A  
ENDROOT
BRANCH   3  13
HETATM   13  C   UNL     1     -12.262  11.364  70.930  1.00  0.00    -0.447 A  
HETATM   14  C   UNL     1     -12.905  14.098  70.584  1.00  0.00    -0.290 A  
HETATM   15  H   UNL     1     -13.661  15.891  71.161  1.00  0.00     0.000 HD 
HETATM   16  C   UNL     1     -12.985  12.082  71.898  1.00  0.00    -0.428 A  
HETATM   17  C   UNL     1     -13.273  13.443  71.748  1.00  0.00    -0.495 A  
HETATM   18  O   UNL     1     -13.209  15.421  70.471  1.00  0.00    -0.362 OA 
HETATM   19  C   UNL     1     -11.897  12.061  69.766  1.00  0.00    -0.401 A  
HETATM   20  C   UNL     1     -12.243  13.410  69.576  1.00  0.00    -0.260 A  
ENDBRANCH   3  13
BRANCH   5  21
HETATM   21  C   UNL     1      -9.554  10.059  70.076  1.00  0.00    -0.156 C  
BRANCH  21  22
HETATM   22  C   UNL     1      -9.311   9.550  68.676  1.00  0.00    -0.142 A  
HETATM   23  C   UNL     1      -7.817   9.277  66.797  1.00  0.00    -0.104 A  
HETATM   24  C   UNL     1     -10.152   8.830  66.501  1.00  0.00    -0.349 A  
HETATM   25  C   UNL     1      -8.025   9.581  68.139  1.00  0.00    -0.094 A  
HETATM   26  C   UNL     1      -8.893   9.008  65.944  1.00  0.00    -0.175 A  
HETATM   27  C   UNL     1     -10.329   9.015  67.871  1.00  0.00    -0.290 A  
BRANCH  26  28
HETATM   28  O   UNL     1      -8.805   8.929  64.568  1.00  0.00    -0.144 OA 
BRANCH  28  29
HETATM   29  C   UNL     1      -8.545  10.202  63.969  1.00  0.00    -0.192 C  
BRANCH  29  30
HETATM   30  C   UNL     1      -9.755  10.872  63.303  1.00  0.00    -0.362 C  
BRANCH  30  31
HETATM   31  N   UNL     1     -10.621  11.536  64.323  1.00  0.00    -0.321 NA 
HETATM   32  C   UNL     1      -9.812  12.304  65.285  1.00  0.00    -0.180 C  
HETATM   33  C   UNL     1     -10.539  13.038  66.411  1.00  0.00    -0.294 C  
HETATM   34  C   UNL     1     -11.297  14.257  65.923  1.00  0.00    -0.328 C  
HETATM   35  C   UNL     1     -12.688  13.946  65.395  1.00  0.00    -0.525 C  
HETATM   36  C   UNL     1     -12.836  12.642  64.617  1.00  0.00    -0.361 C  
HETATM   37  C   UNL     1     -11.681  12.310  63.666  1.00  0.00    -0.504 C  
ENDBRANCH  30  31
ENDBRANCH  29  30
ENDBRANCH  28  29
ENDBRANCH  26  28
ENDBRANCH  21  22
ENDBRANCH   5  21
TORSDOF 7
ENDMDL
MODEL       23
REMARK 921   NORMALIZED FREE ENERGY PREDICTED BY IDOCK:   -6.51 KCAL/MOL
REMARK 922        TOTAL FREE ENERGY PREDICTED BY IDOCK:  -12.24 KCAL/MOL
REMARK 923 INTER-LIGAND FREE ENERGY PREDICTED BY IDOCK:   -8.84 KCAL/MOL
REMARK 924 INTRA-LIGAND FREE ENERGY PREDICTED BY IDOCK:   -3.39 KCAL/MOL
REMARK 927      BINDING AFFINITY PREDICTED BY RF-SCORE:    0.00 PKD
ROOT
HETATM    1  C   UNL     1     -13.149  11.001  71.830  1.00  0.00    -0.525 C  
HETATM    2  C   UNL     1     -12.079  10.653  70.844  1.00  0.00    -0.489 A  
HETATM    3  C   UNL     1     -11.290   9.500  70.724  1.00  0.00    -0.321 A  
HETATM    4  C   UNL     1     -11.163  12.603  67.248  1.00  0.00    -0.346 A  
HETATM    5  N   UNL     1     -10.503   9.686  69.564  1.00  0.00    -0.211 NA 
HETATM    6  O   UNL     1     -12.274  14.598  67.782  1.00  0.00    -0.595 OA 
HETATM    7  C   UNL     1     -10.954  10.810  68.877  1.00  0.00    -0.241 A  
HETATM    8  C   UNL     1     -11.886  13.345  68.154  1.00  0.00    -0.361 A  
HETATM    9  C   UNL     1     -11.782  11.515  69.746  1.00  0.00    -0.426 A  
HETATM   10  H   UNL     1     -12.032  14.965  66.939  1.00  0.00     0.000 HD 
HETATM   11  C   UNL     1     -10.730  11.320  67.584  1.00  0.00    -0.270 A  
HETATM   12  C   UNL     1     -12.240  12.807  69.385  1.00  0.00    -0.131 A  
ENDROOT
BRANCH   3  13
HETATM   13  C   UNL     1     -11.262   8.300  71.610  1.00  0.00    -0.330 A  
HETATM   14  C   UNL     1     -11.142   5.935  73.159  1.00  0.00    -0.221 A  
HETATM   15  H   UNL     1     -11.644   4.026  73.634  1.00  0.00     0.000 HD 
HETATM   16  C   UNL     1     -12.099   7.202  71.349  1.00  0.00    -0.381 A  
HETATM   17  C   UNL     1     -12.018   6.016  72.090  1.00  0.00    -0.261 A  
HETATM   18  O   UNL     1     -11.096   4.768  73.860  1.00  0.00    -0.294 OA 
HETATM   19  C   UNL     1     -10.380   8.179  72.698  1.00  0.00    -0.398 A  
HETATM   20  C   UNL     1     -10.341   7.020  73.489  1.00  0.00    -0.394 A  
ENDBRANCH   3  13
BRANCH   5  21
HETATM   21  C   UNL     1      -9.372   8.803  69.174  1.00  0.00    -0.149 C  
BRANCH  21  22
HETATM   22  C   UNL     1      -9.592   7.858  68.018  1.00  0.00    -0.168 A  
HETATM   23  C   UNL     1     -10.729   5.935  67.097  1.00  0.00    -0.387 A  
HETATM   24  C   UNL     1      -8.832   6.829  65.939  1.00  0.00    -0.127 A  
HETATM   25  C   UNL     1     -10.623   6.921  68.074  1.00  0.00    -0.273 A  
HETATM   26  C   UNL     1      -9.769   5.817  66.086  1.00  0.00    -0.071 A  
HETATM   27  C   UNL     1      -8.811   7.882  66.852  1.00  0.00    -0.146 A  
BRANCH  26  28
HETATM   28  O   UNL     1      -9.664   4.742  65.224  1.00  0.00    -0.155 OA 
BRANCH  28  29
HETATM   29  C   UNL     1      -9.477   3.507  65.921  1.00  0.00    -0.138 C  
BRANCH  29  30
HETATM   30  C   UNL     1      -8.056   3.261  66.449  1.00  0.00    -0.088 C  
BRANCH  30  31
HETATM   31  N   UNL     1      -8.035   3.289  67.943  1.00  0.00    -0.074 NA 
HETATM   32  C   UNL     1      -7.529   4.580  68.441  1.00  0.00    -0.065 C  
HETATM   33  C   UNL     1      -7.426   4.776  69.953  1.00  0.00    -0.055 C  
HETATM   34  C   UNL     1      -8.780   4.936  70.618  1.00  0.00    -0.138 C  
HETATM   35  C   UNL     1      -9.457   3.618  70.959  1.00  0.00    -0.234 C  
HETATM   36  C   UNL     1      -9.274   2.488  69.953  1.00  0.00    -0.195 C  
HETATM   37  C   UNL     1      -9.346   2.902  68.479  1.00  0.00    -0.187 C  
ENDBRANCH  30  31
ENDBRANCH  29  30
ENDBRANCH  28  29
ENDBRANCH  26  28
ENDBRANCH  21  22
ENDBRANCH   5  21
TORSDOF 7
ENDMDL
MODEL       24
REMARK 921   NORMALIZED FREE ENERGY PREDICTED BY IDOCK:   -6.50 KCAL/MOL
REMARK 922        TOTAL FREE ENERGY PREDICTED BY IDOCK:  -12.23 KCAL/MOL
REMARK 923 INTER-LIGAND FREE ENERGY PREDICTED BY IDOCK:   -9.70 KCAL/MOL
REMARK 924 INTRA-LIGAND FREE ENERGY PREDICTED BY IDOCK:   -2.53 KCAL/MOL
REMARK 927      BINDING AFFINITY PREDICTED BY RF-SCORE:    0.00 PKD
ROOT
HETATM    1  C   UNL     1     -11.944  14.278  69.090  1.00  0.00    -0.372 C  
HETATM    2  C   UNL     1     -11.701  13.247  68.034  1.00  0.00    -0.394 A  
HETATM    3  C   UNL     1     -11.540  11.858  68.136  1.00  0.00    -0.334 A  
HETATM    4  C   UNL     1     -12.049  13.687  63.880  1.00  0.00    -0.462 A  
HETATM    5  N   UNL     1     -11.419  11.381  66.811  1.00  0.00    -0.436 NA 
HETATM    6  O   UNL     1     -11.964  16.030  63.891  1.00  0.00    -1.267 OA 
HETATM    7  C   UNL     1     -11.717  12.411  65.922  1.00  0.00    -0.419 A  
HETATM    8  C   UNL     1     -11.916  14.860  64.588  1.00  0.00    -0.401 A  
HETATM    9  C   UNL     1     -11.699  13.597  66.650  1.00  0.00    -0.420 A  
HETATM   10  H   UNL     1     -12.055  16.044  62.946  1.00  0.00     0.000 HD 
HETATM   11  C   UNL     1     -11.993  12.461  64.543  1.00  0.00    -0.474 A  
HETATM   12  C   UNL     1     -11.782  14.838  65.971  1.00  0.00    -0.248 A  
ENDROOT
BRANCH   3  13
HETATM   13  C   UNL     1     -11.508  11.017  69.369  1.00  0.00    -0.364 A  
HETATM   14  C   UNL     1     -11.546   9.309  71.625  1.00  0.00    -0.393 A  
HETATM   15  H   UNL     1     -12.428   8.331  73.170  1.00  0.00     0.000 HD 
HETATM   16  C   UNL     1     -12.672  10.826  70.132  1.00  0.00    -0.232 A  
HETATM   17  C   UNL     1     -12.705   9.954  71.227  1.00  0.00    -0.482 A  
HETATM   18  O   UNL     1     -11.616   8.473  72.698  1.00  0.00    -0.357 OA 
HETATM   19  C   UNL     1     -10.353  10.340  69.796  1.00  0.00    -0.287 A  
HETATM   20  C   UNL     1     -10.360   9.517  70.935  1.00  0.00    -0.372 A  
ENDBRANCH   3  13
BRANCH   5  21
HETATM   21  C   UNL     1     -11.024   9.991  66.458  1.00  0.00     0.180 C  
BRANCH  21  22
HETATM   22  C   UNL     1      -9.578   9.747  66.102  1.00  0.00    -0.287 A  
HETATM   23  C   UNL     1      -7.928   9.041  64.483  1.00  0.00    -0.131 A  
HETATM   24  C   UNL     1      -7.267   9.327  66.768  1.00  0.00    -0.083 A  
HETATM   25  C   UNL     1      -9.228   9.435  64.789  1.00  0.00    -0.220 A  
HETATM   26  C   UNL     1      -6.970   8.878  65.489  1.00  0.00    -0.080 A  
HETATM   27  C   UNL     1      -8.535   9.838  67.038  1.00  0.00    -0.117 A  
BRANCH  26  28
HETATM   28  O   UNL     1      -5.740   8.273  65.312  1.00  0.00    -0.043 OA 
BRANCH  28  29
HETATM   29  C   UNL     1      -5.562   7.148  66.178  1.00  0.00    -0.027 C  
BRANCH  29  30
HETATM   30  C   UNL     1      -6.096   5.814  65.638  1.00  0.00    -0.032 C  
BRANCH  30  31
HETATM   31  N   UNL     1      -7.375   5.442  66.316  1.00  0.00    -0.080 NA 
HETATM   32  C   UNL     1      -7.527   6.164  67.591  1.00  0.00    -0.088 C  
HETATM   33  C   UNL     1      -8.778   5.891  68.426  1.00  0.00    -0.112 C  
HETATM   34  C   UNL     1     -10.031   6.493  67.821  1.00  0.00    -0.154 C  
HETATM   35  C   UNL     1     -10.690   5.614  66.771  1.00  0.00    -0.358 C  
HETATM   36  C   UNL     1      -9.750   4.834  65.859  1.00  0.00    -0.203 C  
HETATM   37  C   UNL     1      -8.505   5.597  65.392  1.00  0.00    -0.147 C  
ENDBRANCH  30  31
ENDBRANCH  29  30
ENDBRANCH  28  29
ENDBRANCH  26  28
ENDBRANCH  21  22
ENDBRANCH   5  21
TORSDOF 7
ENDMDL
MODEL       25
REMARK 921   NORMALIZED FREE ENERGY PREDICTED BY IDOCK:   -6.49 KCAL/MOL
REMARK 922        TOTAL FREE ENERGY PREDICTED BY IDOCK:  -12.21 KCAL/MOL
REMARK 923 INTER-LIGAND FREE ENERGY PREDICTED BY IDOCK:  -10.19 KCAL/MOL
REMARK 924 INTRA-LIGAND FREE ENERGY PREDICTED BY IDOCK:   -2.02 KCAL/MOL
REMARK 927      BINDING AFFINITY PREDICTED BY RF-SCORE:    0.00 PKD
ROOT
HETATM    1  C   UNL     1     -10.801   5.971  67.311  1.00  0.00    -0.403 C  
HETATM    2  C   UNL     1     -10.452   7.181  68.118  1.00  0.00    -0.244 A  
HETATM    3  C   UNL     1      -9.870   8.397  67.732  1.00  0.00    -0.174 A  
HETATM    4  C   UNL     1     -11.640   8.094  72.032  1.00  0.00    -0.389 A  
HETATM    5  N   UNL     1      -9.848   9.204  68.892  1.00  0.00    -0.169 NA 
HETATM    6  O   UNL     1     -12.255   5.904  72.601  1.00  0.00    -0.539 OA 
HETATM    7  C   UNL     1     -10.591   8.588  69.896  1.00  0.00    -0.228 A  
HETATM    8  C   UNL     1     -11.739   6.768  71.680  1.00  0.00    -0.314 A  
HETATM    9  C   UNL     1     -10.798   7.270  69.500  1.00  0.00    -0.224 A  
HETATM   10  H   UNL     1     -12.511   6.194  73.468  1.00  0.00     0.000 HD 
HETATM   11  C   UNL     1     -11.107   9.018  71.133  1.00  0.00    -0.371 A  
HETATM   12  C   UNL     1     -11.365   6.344  70.412  1.00  0.00    -0.453 A  
ENDROOT
BRANCH   3  13
HETATM   13  C   UNL     1      -9.374   8.800  66.383  1.00  0.00    -0.264 A  
HETATM   14  C   UNL     1      -8.479   9.409  63.768  1.00  0.00    -0.195 A  
HETATM   15  H   UNL     1      -7.298   9.177  62.134  1.00  0.00     0.000 HD 
HETATM   16  C   UNL     1      -8.250   8.170  65.820  1.00  0.00    -0.126 A  
HETATM   17  C   UNL     1      -7.827   8.441  64.514  1.00  0.00    -0.136 A  
HETATM   18  O   UNL     1      -8.034   9.650  62.504  1.00  0.00    -0.114 OA 
HETATM   19  C   UNL     1     -10.016   9.770  65.596  1.00  0.00    -0.352 A  
HETATM   20  C   UNL     1      -9.555  10.099  64.310  1.00  0.00    -0.354 A  
ENDBRANCH   3  13
BRANCH   5  21
HETATM   21  C   UNL     1      -9.126  10.501  68.992  1.00  0.00    -0.181 C  
BRANCH  21  22
HETATM   22  C   UNL     1      -9.805  11.722  68.423  1.00  0.00    -0.199 A  
HETATM   23  C   UNL     1      -9.639  13.865  67.320  1.00  0.00    -0.243 A  
HETATM   24  C   UNL     1     -11.728  13.222  68.301  1.00  0.00    -0.388 A  
HETATM   25  C   UNL     1      -9.065  12.656  67.701  1.00  0.00    -0.192 A  
HETATM   26  C   UNL     1     -10.939  14.201  67.714  1.00  0.00    -0.262 A  
HETATM   27  C   UNL     1     -11.180  11.968  68.567  1.00  0.00    -0.306 A  
BRANCH  26  28
HETATM   28  O   UNL     1     -11.500  15.457  67.585  1.00  0.00    -0.326 OA 
BRANCH  28  29
HETATM   29  C   UNL     1     -11.674  16.103  68.849  1.00  0.00    -0.250 C  
BRANCH  29  30
HETATM   30  C   UNL     1     -10.534  17.043  69.267  1.00  0.00    -0.293 C  
BRANCH  30  31
HETATM   31  N   UNL     1     -10.029  17.816  68.093  1.00  0.00    -0.322 NA 
HETATM   32  C   UNL     1     -10.388  19.241  68.203  1.00  0.00    -0.397 C  
HETATM   33  C   UNL     1      -9.960  20.178  67.074  1.00  0.00    -0.596 C  
HETATM   34  C   UNL     1      -8.469  20.451  67.071  1.00  0.00    -0.355 C  
HETATM   35  C   UNL     1      -7.652  19.399  66.340  1.00  0.00    -0.283 C  
HETATM   36  C   UNL     1      -8.123  17.957  66.491  1.00  0.00    -0.303 C  
HETATM   37  C   UNL     1      -8.596  17.564  67.895  1.00  0.00    -0.239 C  
ENDBRANCH  30  31
ENDBRANCH  29  30
ENDBRANCH  28  29
ENDBRANCH  26  28
ENDBRANCH  21  22
ENDBRANCH   5  21
TORSDOF 7
ENDMDL
MODEL       26
REMARK 921   NORMALIZED FREE ENERGY PREDICTED BY IDOCK:   -6.48 KCAL/MOL
REMARK 922        TOTAL FREE ENERGY PREDICTED BY IDOCK:  -12.20 KCAL/MOL
REMARK 923 INTER-LIGAND FREE ENERGY PREDICTED BY IDOCK:  -10.15 KCAL/MOL
REMARK 924 INTRA-LIGAND FREE ENERGY PREDICTED BY IDOCK:   -2.05 KCAL/MOL
REMARK 927      BINDING AFFINITY PREDICTED BY RF-SCORE:    0.00 PKD
ROOT
HETATM    1  C   UNL     1     -10.984   6.131  67.058  1.00  0.00    -0.414 C  
HETATM    2  C   UNL     1     -10.462   7.289  67.848  1.00  0.00    -0.267 A  
HETATM    3  C   UNL     1      -9.694   8.393  67.449  1.00  0.00    -0.170 A  
HETATM    4  C   UNL     1     -11.547   8.457  71.725  1.00  0.00    -0.372 A  
HETATM    5  N   UNL     1      -9.562   9.211  68.595  1.00  0.00    -0.150 NA 
HETATM    6  O   UNL     1     -12.502   6.401  72.323  1.00  0.00    -0.532 OA 
HETATM    7  C   UNL     1     -10.405   8.737  69.598  1.00  0.00    -0.213 A  
HETATM    8  C   UNL     1     -11.846   7.155  71.396  1.00  0.00    -0.308 A  
HETATM    9  C   UNL     1     -10.808   7.459  69.222  1.00  0.00    -0.153 A  
HETATM   10  H   UNL     1     -12.722   6.746  73.181  1.00  0.00     0.000 HD 
HETATM   11  C   UNL     1     -10.865   9.268  70.817  1.00  0.00    -0.349 A  
HETATM   12  C   UNL     1     -11.524   6.652  70.142  1.00  0.00    -0.444 A  
ENDROOT
BRANCH   3  13
HETATM   13  C   UNL     1      -9.122   8.685  66.102  1.00  0.00    -0.250 A  
HETATM   14  C   UNL     1      -7.999   9.397  63.604  1.00  0.00    -0.142 A  
HETATM   15  H   UNL     1      -7.895  10.457  61.875  1.00  0.00     0.000 HD 
HETATM   16  C   UNL     1      -9.739   9.620  65.253  1.00  0.00    -0.330 A  
HETATM   17  C   UNL     1      -9.168  10.002  64.034  1.00  0.00    -0.318 A  
HETATM   18  O   UNL     1      -7.478   9.790  62.409  1.00  0.00    -0.108 OA 
HETATM   19  C   UNL     1      -7.933   8.097  65.638  1.00  0.00    -0.108 A  
HETATM   20  C   UNL     1      -7.390   8.424  64.384  1.00  0.00    -0.091 A  
ENDBRANCH   3  13
BRANCH   5  21
HETATM   21  C   UNL     1      -8.649  10.381  68.683  1.00  0.00    -0.133 C  
BRANCH  21  22
HETATM   22  C   UNL     1      -9.127  11.683  68.088  1.00  0.00    -0.183 A  
HETATM   23  C   UNL     1      -8.684  13.987  67.508  1.00  0.00    -0.201 A  
HETATM   24  C   UNL     1     -10.939  13.181  67.428  1.00  0.00    -0.283 A  
HETATM   25  C   UNL     1      -8.227  12.730  67.892  1.00  0.00    -0.168 A  
HETATM   26  C   UNL     1     -10.053  14.248  67.382  1.00  0.00    -0.247 A  
HETATM   27  C   UNL     1     -10.456  11.900  67.692  1.00  0.00    -0.232 A  
BRANCH  26  28
HETATM   28  O   UNL     1     -10.603  15.506  67.236  1.00  0.00    -0.287 OA 
BRANCH  28  29
HETATM   29  C   UNL     1     -11.540  15.810  68.274  1.00  0.00    -0.298 C  
BRANCH  29  30
HETATM   30  C   UNL     1     -10.921  16.154  69.636  1.00  0.00    -0.346 C  
BRANCH  30  31
HETATM   31  N   UNL     1     -11.464  15.261  70.704  1.00  0.00    -0.292 NA 
HETATM   32  C   UNL     1     -12.155  16.041  71.745  1.00  0.00    -0.499 C  
HETATM   33  C   UNL     1     -12.760  15.284  72.926  1.00  0.00    -0.524 C  
HETATM   34  C   UNL     1     -14.002  14.500  72.548  1.00  0.00    -0.510 C  
HETATM   35  C   UNL     1     -13.709  13.123  71.975  1.00  0.00    -0.486 C  
HETATM   36  C   UNL     1     -12.483  13.016  71.075  1.00  0.00    -0.385 C  
HETATM   37  C   UNL     1     -12.272  14.189  70.111  1.00  0.00    -0.351 C  
ENDBRANCH  30  31
ENDBRANCH  29  30
ENDBRANCH  28  29
ENDBRANCH  26  28
ENDBRANCH  21  22
ENDBRANCH   5  21
TORSDOF 7
ENDMDL
MODEL       27
REMARK 921   NORMALIZED FREE ENERGY PREDICTED BY IDOCK:   -6.46 KCAL/MOL
REMARK 922        TOTAL FREE ENERGY PREDICTED BY IDOCK:  -12.17 KCAL/MOL
REMARK 923 INTER-LIGAND FREE ENERGY PREDICTED BY IDOCK:   -9.30 KCAL/MOL
REMARK 924 INTRA-LIGAND FREE ENERGY PREDICTED BY IDOCK:   -2.88 KCAL/MOL
REMARK 927      BINDING AFFINITY PREDICTED BY RF-SCORE:    0.00 PKD
ROOT
HETATM    1  C   UNL     1     -11.380  15.795  67.897  1.00  0.00    -0.277 C  
HETATM    2  C   UNL     1     -11.747  14.485  68.520  1.00  0.00    -0.353 A  
HETATM    3  C   UNL     1     -11.575  13.173  68.053  1.00  0.00    -0.334 A  
HETATM    4  C   UNL     1     -12.913  13.755  72.479  1.00  0.00    -0.431 A  
HETATM    5  N   UNL     1     -12.034  12.328  69.088  1.00  0.00    -0.282 NA 
HETATM    6  O   UNL     1     -13.469  15.979  72.967  1.00  0.00    -0.550 OA 
HETATM    7  C   UNL     1     -12.270  13.087  70.232  1.00  0.00    -0.296 A  
HETATM    8  C   UNL     1     -13.038  15.059  72.059  1.00  0.00    -0.350 A  
HETATM    9  C   UNL     1     -12.285  14.422  69.840  1.00  0.00    -0.394 A  
HETATM   10  H   UNL     1     -13.705  15.733  73.853  1.00  0.00     0.000 HD 
HETATM   11  C   UNL     1     -12.490  12.770  71.586  1.00  0.00    -0.054 A  
HETATM   12  C   UNL     1     -12.692  15.419  70.762  1.00  0.00    -0.516 A  
ENDROOT
BRANCH   3  13
HETATM   13  C   UNL     1     -11.018  12.722  66.744  1.00  0.00    -0.301 A  
HETATM   14  C   UNL     1      -9.949  11.707  64.329  1.00  0.00    -0.267 A  
HETATM   15  H   UNL     1      -8.506  10.874  63.168  1.00  0.00     0.000 HD 
HETATM   16  C   UNL     1      -9.678  12.309  66.644  1.00  0.00    -0.229 A  
HETATM   17  C   UNL     1      -9.156  11.773  65.461  1.00  0.00     0.013 A  
HETATM   18  O   UNL     1      -9.403  11.184  63.195  1.00  0.00    -0.280 OA 
HETATM   19  C   UNL     1     -11.796  12.633  65.578  1.00  0.00    -0.479 A  
HETATM   20  C   UNL     1     -11.260  12.161  64.368  1.00  0.00    -0.400 A  
ENDBRANCH   3  13
BRANCH   5  21
HETATM   21  C   UNL     1     -12.231  10.861  68.941  1.00  0.00     0.030 C  
BRANCH  21  22
HETATM   22  C   UNL     1     -10.998  10.003  68.799  1.00  0.00    -0.242 A  
HETATM   23  C   UNL     1      -9.834   8.212  67.670  1.00  0.00    -0.216 A  
HETATM   24  C   UNL     1      -8.946   9.060  69.727  1.00  0.00    -0.157 A  
HETATM   25  C   UNL     1     -10.881   9.127  67.721  1.00  0.00    -0.159 A  
HETATM   26  C   UNL     1      -8.925   8.098  68.727  1.00  0.00    -0.144 A  
HETATM   27  C   UNL     1      -9.925  10.052  69.703  1.00  0.00    -0.263 A  
BRANCH  26  28
HETATM   28  O   UNL     1      -8.009   7.074  68.869  1.00  0.00    -0.116 OA 
BRANCH  28  29
HETATM   29  C   UNL     1      -8.139   6.403  70.126  1.00  0.00    -0.120 C  
BRANCH  29  30
HETATM   30  C   UNL     1      -9.287   5.387  70.211  1.00  0.00    -0.154 C  
BRANCH  30  31
HETATM   31  N   UNL     1     -10.397   5.912  71.063  1.00  0.00    -0.214 NA 
HETATM   32  C   UNL     1      -9.885   6.843  72.084  1.00  0.00    -0.147 C  
HETATM   33  C   UNL     1     -10.888   7.465  73.055  1.00  0.00    -0.423 C  
HETATM   34  C   UNL     1     -11.769   8.510  72.400  1.00  0.00    -0.429 C  
HETATM   35  C   UNL     1     -12.991   7.935  71.701  1.00  0.00    -0.359 C  
HETATM   36  C   UNL     1     -12.791   6.604  70.984  1.00  0.00    -0.004 C  
HETATM   37  C   UNL     1     -11.468   6.460  70.223  1.00  0.00    -0.402 C  
ENDBRANCH  30  31
ENDBRANCH  29  30
ENDBRANCH  28  29
ENDBRANCH  26  28
ENDBRANCH  21  22
ENDBRANCH   5  21
TORSDOF 7
ENDMDL
MODEL       28
REMARK 921   NORMALIZED FREE ENERGY PREDICTED BY IDOCK:   -6.46 KCAL/MOL
REMARK 922        TOTAL FREE ENERGY PREDICTED BY IDOCK:  -12.17 KCAL/MOL
REMARK 923 INTER-LIGAND FREE ENERGY PREDICTED BY IDOCK:   -9.60 KCAL/MOL
REMARK 924 INTRA-LIGAND FREE ENERGY PREDICTED BY IDOCK:   -2.58 KCAL/MOL
REMARK 927      BINDING AFFINITY PREDICTED BY RF-SCORE:    0.00 PKD
ROOT
HETATM    1  C   UNL     1     -13.587   9.700  72.318  1.00  0.00    -0.449 C  
HETATM    2  C   UNL     1     -12.415  10.157  71.508  1.00  0.00    -0.526 A  
HETATM    3  C   UNL     1     -11.310   9.443  71.021  1.00  0.00    -0.337 A  
HETATM    4  C   UNL     1     -11.953  13.792  69.474  1.00  0.00    -0.399 A  
HETATM    5  N   UNL     1     -10.560  10.364  70.254  1.00  0.00    -0.210 NA 
HETATM    6  O   UNL     1     -13.637  14.925  70.646  1.00  0.00    -0.631 OA 
HETATM    7  C   UNL     1     -11.294  11.536  70.093  1.00  0.00    -0.057 A  
HETATM    8  C   UNL     1     -12.909  13.788  70.463  1.00  0.00    -0.142 A  
HETATM    9  C   UNL     1     -12.337  11.493  71.013  1.00  0.00    -0.434 A  
HETATM   10  H   UNL     1     -13.476  15.709  70.133  1.00  0.00     0.000 HD 
HETATM   11  C   UNL     1     -11.170  12.658  69.253  1.00  0.00    -0.255 A  
HETATM   12  C   UNL     1     -13.145  12.642  71.212  1.00  0.00    -0.233 A  
ENDROOT
BRANCH   3  13
HETATM   13  C   UNL     1     -10.966   8.008  71.238  1.00  0.00    -0.269 A  
HETATM   14  C   UNL     1     -10.440   5.277  71.764  1.00  0.00    -0.214 A  
HETATM   15  H   UNL     1      -9.873   3.708  72.922  1.00  0.00     0.000 HD 
HETATM   16  C   UNL     1     -10.423   7.582  72.462  1.00  0.00    -0.300 A  
HETATM   17  C   UNL     1     -10.196   6.228  72.740  1.00  0.00    -0.202 A  
HETATM   18  O   UNL     1     -10.201   3.972  72.069  1.00  0.00    -0.176 OA 
HETATM   19  C   UNL     1     -11.209   7.015  70.274  1.00  0.00    -0.339 A  
HETATM   20  C   UNL     1     -10.918   5.662  70.519  1.00  0.00    -0.267 A  
ENDBRANCH   3  13
BRANCH   5  21
HETATM   21  C   UNL     1      -9.197  10.091  69.724  1.00  0.00    -0.199 C  
BRANCH  21  22
HETATM   22  C   UNL     1      -9.089   9.588  68.305  1.00  0.00    -0.127 A  
HETATM   23  C   UNL     1      -7.733   9.163  66.351  1.00  0.00    -0.096 A  
HETATM   24  C   UNL     1     -10.118   9.041  66.160  1.00  0.00    -0.242 A  
HETATM   25  C   UNL     1      -7.837   9.459  67.707  1.00  0.00    -0.095 A  
HETATM   26  C   UNL     1      -8.874   9.062  65.547  1.00  0.00    -0.194 A  
HETATM   27  C   UNL     1     -10.206   9.215  67.540  1.00  0.00    -0.304 A  
BRANCH  26  28
HETATM   28  O   UNL     1      -8.860   9.005  64.166  1.00  0.00    -0.156 OA 
BRANCH  28  29
HETATM   29  C   UNL     1      -8.572  10.276  63.577  1.00  0.00    -0.195 C  
BRANCH  29  30
HETATM   30  C   UNL     1      -9.781  11.013  62.984  1.00  0.00    -0.354 C  
BRANCH  30  31
HETATM   31  N   UNL     1     -10.586  11.662  64.063  1.00  0.00    -0.336 NA 
HETATM   32  C   UNL     1      -9.791  12.676  64.779  1.00  0.00    -0.040 C  
HETATM   33  C   UNL     1     -10.458  13.430  65.929  1.00  0.00    -0.287 C  
HETATM   34  C   UNL     1     -11.491  14.432  65.453  1.00  0.00    -0.344 C  
HETATM   35  C   UNL     1     -12.867  13.830  65.214  1.00  0.00    -0.430 C  
HETATM   36  C   UNL     1     -12.893  12.426  64.621  1.00  0.00    -0.252 C  
HETATM   37  C   UNL     1     -11.857  12.158  63.523  1.00  0.00    -0.505 C  
ENDBRANCH  30  31
ENDBRANCH  29  30
ENDBRANCH  28  29
ENDBRANCH  26  28
ENDBRANCH  21  22
ENDBRANCH   5  21
TORSDOF 7
ENDMDL
MODEL       29
REMARK 921   NORMALIZED FREE ENERGY PREDICTED BY IDOCK:   -6.41 KCAL/MOL
REMARK 922        TOTAL FREE ENERGY PREDICTED BY IDOCK:  -12.10 KCAL/MOL
REMARK 923 INTER-LIGAND FREE ENERGY PREDICTED BY IDOCK:   -9.91 KCAL/MOL
REMARK 924 INTRA-LIGAND FREE ENERGY PREDICTED BY IDOCK:   -2.19 KCAL/MOL
REMARK 927      BINDING AFFINITY PREDICTED BY RF-SCORE:    0.00 PKD
ROOT
HETATM    1  C   UNL     1      -9.119  10.254  63.452  1.00  0.00    -0.284 C  
HETATM    2  C   UNL     1      -9.600  10.134  64.863  1.00  0.00    -0.369 A  
HETATM    3  C   UNL     1     -10.417  10.983  65.623  1.00  0.00    -0.230 A  
HETATM    4  C   UNL     1      -9.443   6.768  67.356  1.00  0.00    -0.150 A  
HETATM    5  N   UNL     1     -10.609  10.332  66.863  1.00  0.00    -0.238 NA 
HETATM    6  O   UNL     1      -7.808   5.639  66.112  1.00  0.00    -0.097 OA 
HETATM    7  C   UNL     1     -10.113   9.033  66.783  1.00  0.00    -0.274 A  
HETATM    8  C   UNL     1      -8.578   6.750  66.286  1.00  0.00    -0.139 A  
HETATM    9  C   UNL     1      -9.325   8.967  65.638  1.00  0.00    -0.289 A  
HETATM   10  H   UNL     1      -7.839   4.910  66.721  1.00  0.00     0.000 HD 
HETATM   11  C   UNL     1     -10.245   7.886  67.588  1.00  0.00    -0.289 A  
HETATM   12  C   UNL     1      -8.534   7.816  65.396  1.00  0.00    -0.124 A  
ENDROOT
BRANCH   3  13
HETATM   13  C   UNL     1     -10.993  12.305  65.237  1.00  0.00    -0.347 A  
HETATM   14  C   UNL     1     -12.000  14.798  64.355  1.00  0.00    -0.417 A  
HETATM   15  H   UNL     1     -11.846  16.740  63.784  1.00  0.00     0.000 HD 
HETATM   16  C   UNL     1     -10.164  13.432  65.103  1.00  0.00    -0.316 A  
HETATM   17  C   UNL     1     -10.651  14.657  64.632  1.00  0.00    -0.268 A  
HETATM   18  O   UNL     1     -12.438  16.007  63.906  1.00  0.00    -0.806 OA 
HETATM   19  C   UNL     1     -12.355  12.482  64.939  1.00  0.00    -0.539 A  
HETATM   20  C   UNL     1     -12.865  13.726  64.533  1.00  0.00     0.027 A  
ENDBRANCH   3  13
BRANCH   5  21
HETATM   21  C   UNL     1     -11.239  10.969  68.051  1.00  0.00    -0.309 C  
BRANCH  21  22
HETATM   22  C   UNL     1     -10.812  12.374  68.397  1.00  0.00    -0.263 A  
HETATM   23  C   UNL     1     -11.374  14.709  68.662  1.00  0.00    -0.305 A  
HETATM   24  C   UNL     1      -9.067  14.062  68.655  1.00  0.00    -0.107 A  
HETATM   25  C   UNL     1     -11.767  13.382  68.515  1.00  0.00    -0.392 A  
HETATM   26  C   UNL     1     -10.022  15.068  68.622  1.00  0.00    -0.220 A  
HETATM   27  C   UNL     1      -9.474  12.729  68.632  1.00  0.00    -0.002 A  
BRANCH  26  28
HETATM   28  O   UNL     1      -9.556  16.365  68.525  1.00  0.00    -0.215 OA 
BRANCH  28  29
HETATM   29  C   UNL     1     -10.559  17.265  68.047  1.00  0.00    -0.394 C  
BRANCH  29  30
HETATM   30  C   UNL     1     -10.177  18.751  68.081  1.00  0.00    -0.381 C  
BRANCH  30  31
HETATM   31  N   UNL     1      -8.715  18.927  67.823  1.00  0.00    -0.288 NA 
HETATM   32  C   UNL     1      -8.485  19.742  66.617  1.00  0.00    -0.333 C  
HETATM   33  C   UNL     1      -7.040  20.010  66.197  1.00  0.00    -0.291 C  
HETATM   34  C   UNL     1      -6.333  20.988  67.115  1.00  0.00    -0.398 C  
HETATM   35  C   UNL     1      -5.724  20.343  68.349  1.00  0.00    -0.305 C  
HETATM   36  C   UNL     1      -6.524  19.208  68.979  1.00  0.00    -0.314 C  
HETATM   37  C   UNL     1      -8.041  19.422  69.029  1.00  0.00    -0.245 C  
ENDBRANCH  30  31
ENDBRANCH  29  30
ENDBRANCH  28  29
ENDBRANCH  26  28
ENDBRANCH  21  22
ENDBRANCH   5  21
TORSDOF 7
ENDMDL
MODEL       30
REMARK 921   NORMALIZED FREE ENERGY PREDICTED BY IDOCK:   -6.37 KCAL/MOL
REMARK 922        TOTAL FREE ENERGY PREDICTED BY IDOCK:  -12.04 KCAL/MOL
REMARK 923 INTER-LIGAND FREE ENERGY PREDICTED BY IDOCK:   -9.16 KCAL/MOL
REMARK 924 INTRA-LIGAND FREE ENERGY PREDICTED BY IDOCK:   -2.88 KCAL/MOL
REMARK 927      BINDING AFFINITY PREDICTED BY RF-SCORE:    0.00 PKD
ROOT
HETATM    1  C   UNL     1     -11.156  13.339  68.698  1.00  0.00    -0.301 C  
HETATM    2  C   UNL     1     -10.495  12.637  67.554  1.00  0.00    -0.229 A  
HETATM    3  C   UNL     1      -9.570  11.583  67.543  1.00  0.00    -0.172 A  
HETATM    4  C   UNL     1     -11.497  12.834  63.488  1.00  0.00    -0.521 A  
HETATM    5  N   UNL     1      -9.352  11.269  66.182  1.00  0.00    -0.204 NA 
HETATM    6  O   UNL     1     -12.745  14.812  63.657  1.00  0.00    -0.903 OA 
HETATM    7  C   UNL     1     -10.276  11.955  65.398  1.00  0.00    -0.263 A  
HETATM    8  C   UNL     1     -11.968  13.869  64.263  1.00  0.00    -0.444 A  
HETATM    9  C   UNL     1     -10.847  12.936  66.204  1.00  0.00    -0.300 A  
HETATM   10  H   UNL     1     -12.935  14.779  62.727  1.00  0.00     0.000 HD 
HETATM   11  C   UNL     1     -10.686  11.850  64.056  1.00  0.00    -0.428 A  
HETATM   12  C   UNL     1     -11.691  13.917  65.623  1.00  0.00    -0.362 A  
ENDROOT
BRANCH   3  13
HETATM   13  C   UNL     1      -8.931  10.899  68.706  1.00  0.00    -0.166 A  
HETATM   14  C   UNL     1      -7.729   9.455  70.822  1.00  0.00    -0.115 A  
HETATM   15  H   UNL     1      -7.685   8.067  72.303  1.00  0.00     0.000 HD 
HETATM   16  C   UNL     1      -9.656   9.971  69.474  1.00  0.00    -0.249 A  
HETATM   17  C   UNL     1      -9.056   9.229  70.497  1.00  0.00    -0.307 A  
HETATM   18  O   UNL     1      -7.182   8.718  71.828  1.00  0.00    -0.168 OA 
HETATM   19  C   UNL     1      -7.586  11.098  69.058  1.00  0.00    -0.119 A  
HETATM   20  C   UNL     1      -6.994  10.407  70.129  1.00  0.00    -0.146 A  
ENDBRANCH   3  13
BRANCH   5  21
HETATM   21  C   UNL     1      -8.286  10.352  65.698  1.00  0.00    -0.158 C  
BRANCH  21  22
HETATM   22  C   UNL     1      -8.337   8.917  66.163  1.00  0.00    -0.125 A  
HETATM   23  C   UNL     1      -9.643   6.992  66.815  1.00  0.00    -0.221 A  
HETATM   24  C   UNL     1      -7.282   6.987  67.222  1.00  0.00    -0.089 A  
HETATM   25  C   UNL     1      -9.560   8.251  66.229  1.00  0.00    -0.266 A  
HETATM   26  C   UNL     1      -8.526   6.401  67.415  1.00  0.00    -0.108 A  
HETATM   27  C   UNL     1      -7.192   8.190  66.524  1.00  0.00    -0.080 A  
BRANCH  26  28
HETATM   28  O   UNL     1      -8.566   5.277  68.215  1.00  0.00    -0.100 OA 
BRANCH  28  29
HETATM   29  C   UNL     1      -9.834   5.114  68.855  1.00  0.00    -0.172 C  
BRANCH  29  30
HETATM   30  C   UNL     1      -9.786   4.499  70.261  1.00  0.00    -0.229 C  
BRANCH  30  31
HETATM   31  N   UNL     1     -10.651   5.269  71.206  1.00  0.00    -0.206 NA 
HETATM   32  C   UNL     1      -9.924   5.593  72.445  1.00  0.00    -0.170 C  
HETATM   33  C   UNL     1     -10.667   6.368  73.532  1.00  0.00    -0.267 C  
HETATM   34  C   UNL     1     -10.893   7.822  73.166  1.00  0.00    -0.401 C  
HETATM   35  C   UNL     1     -12.134   8.058  72.321  1.00  0.00    -0.392 C  
HETATM   36  C   UNL     1     -12.452   6.991  71.279  1.00  0.00    -0.430 C  
HETATM   37  C   UNL     1     -11.241   6.428  70.526  1.00  0.00    -0.352 C  
ENDBRANCH  30  31
ENDBRANCH  29  30
ENDBRANCH  28  29
ENDBRANCH  26  28
ENDBRANCH  21  22
ENDBRANCH   5  21
TORSDOF 7
ENDMDL
MODEL       31
REMARK 921   NORMALIZED FREE ENERGY PREDICTED BY IDOCK:   -6.34 KCAL/MOL
REMARK 922        TOTAL FREE ENERGY PREDICTED BY IDOCK:  -12.01 KCAL/MOL
REMARK 923 INTER-LIGAND FREE ENERGY PREDICTED BY IDOCK:   -9.82 KCAL/MOL
REMARK 924 INTRA-LIGAND FREE ENERGY PREDICTED BY IDOCK:   -2.19 KCAL/MOL
REMARK 927      BINDING AFFINITY PREDICTED BY RF-SCORE:    0.00 PKD
ROOT
HETATM    1  C   UNL     1     -11.416  15.668  71.233  1.00  0.00    -0.469 C  
HETATM    2  C   UNL     1     -11.542  14.696  70.102  1.00  0.00    -0.336 A  
HETATM    3  C   UNL     1     -11.117  14.790  68.769  1.00  0.00    -0.265 A  
HETATM    4  C   UNL     1     -12.625  10.652  70.294  1.00  0.00    -0.333 A  
HETATM    5  N   UNL     1     -11.429  13.546  68.173  1.00  0.00    -0.283 NA 
HETATM    6  O   UNL     1     -13.598  10.777  72.423  1.00  0.00    -0.553 OA 
HETATM    7  C   UNL     1     -11.825  12.648  69.162  1.00  0.00    -0.297 A  
HETATM    8  C   UNL     1     -12.985  11.411  71.384  1.00  0.00    -0.365 A  
HETATM    9  C   UNL     1     -12.084  13.393  70.309  1.00  0.00    -0.419 A  
HETATM   10  H   UNL     1     -13.801   9.850  72.392  1.00  0.00     0.000 HD 
HETATM   11  C   UNL     1     -12.007  11.253  69.197  1.00  0.00    -0.405 A  
HETATM   12  C   UNL     1     -12.688  12.767  71.429  1.00  0.00    -0.353 A  
ENDROOT
BRANCH   3  13
HETATM   13  C   UNL     1     -10.460  15.941  68.084  1.00  0.00    -0.270 A  
HETATM   14  C   UNL     1      -9.233  18.041  66.637  1.00  0.00    -0.284 A  
HETATM   15  H   UNL     1      -7.779  18.872  65.490  1.00  0.00     0.000 HD 
HETATM   16  C   UNL     1      -9.189  15.795  67.504  1.00  0.00    -0.207 A  
HETATM   17  C   UNL     1      -8.594  16.818  66.756  1.00  0.00    -0.264 A  
HETATM   18  O   UNL     1      -8.620  19.014  65.908  1.00  0.00    -0.461 OA 
HETATM   19  C   UNL     1     -11.083  17.193  67.937  1.00  0.00    -0.087 A  
HETATM   20  C   UNL     1     -10.462  18.248  67.248  1.00  0.00    -0.419 A  
ENDBRANCH   3  13
BRANCH   5  21
HETATM   21  C   UNL     1     -11.343  13.277  66.713  1.00  0.00    -0.327 C  
BRANCH  21  22
HETATM   22  C   UNL     1     -10.430  12.163  66.262  1.00  0.00    -0.270 A  
HETATM   23  C   UNL     1      -8.227  11.172  66.227  1.00  0.00    -0.153 A  
HETATM   24  C   UNL     1      -9.903  10.332  64.736  1.00  0.00    -0.403 A  
HETATM   25  C   UNL     1      -9.130  12.086  66.761  1.00  0.00    -0.197 A  
HETATM   26  C   UNL     1      -8.575  10.367  65.137  1.00  0.00    -0.180 A  
HETATM   27  C   UNL     1     -10.831  11.164  65.361  1.00  0.00    -0.212 A  
BRANCH  26  28
HETATM   28  O   UNL     1      -7.684   9.611  64.401  1.00  0.00    -0.117 OA 
BRANCH  28  29
HETATM   29  C   UNL     1      -7.986   8.214  64.457  1.00  0.00    -0.142 C  
BRANCH  29  30
HETATM   30  C   UNL     1      -7.724   7.540  65.811  1.00  0.00    -0.098 C  
BRANCH  30  31
HETATM   31  N   UNL     1      -8.944   7.589  66.672  1.00  0.00    -0.146 NA 
HETATM   32  C   UNL     1      -9.696   6.325  66.598  1.00  0.00    -0.155 C  
HETATM   33  C   UNL     1     -10.985   6.207  67.409  1.00  0.00    -0.409 C  
HETATM   34  C   UNL     1     -10.733   6.086  68.899  1.00  0.00    -0.384 C  
HETATM   35  C   UNL     1     -10.557   7.422  69.604  1.00  0.00    -0.243 C  
HETATM   36  C   UNL     1      -9.806   8.498  68.827  1.00  0.00    -0.180 C  
HETATM   37  C   UNL     1      -8.590   8.008  68.033  1.00  0.00    -0.129 C  
ENDBRANCH  30  31
ENDBRANCH  29  30
ENDBRANCH  28  29
ENDBRANCH  26  28
ENDBRANCH  21  22
ENDBRANCH   5  21
TORSDOF 7
ENDMDL
MODEL       32
REMARK 921   NORMALIZED FREE ENERGY PREDICTED BY IDOCK:   -6.28 KCAL/MOL
REMARK 922        TOTAL FREE ENERGY PREDICTED BY IDOCK:  -11.92 KCAL/MOL
REMARK 923 INTER-LIGAND FREE ENERGY PREDICTED BY IDOCK:   -9.17 KCAL/MOL
REMARK 924 INTRA-LIGAND FREE ENERGY PREDICTED BY IDOCK:   -2.75 KCAL/MOL
REMARK 927      BINDING AFFINITY PREDICTED BY RF-SCORE:    0.00 PKD
ROOT
HETATM    1  C   UNL     1     -10.611   9.058  67.459  1.00  0.00    -0.306 C  
HETATM    2  C   UNL     1      -9.532  10.075  67.659  1.00  0.00    -0.163 A  
HETATM    3  C   UNL     1      -9.382  11.362  67.121  1.00  0.00    -0.172 A  
HETATM    4  C   UNL     1      -6.518  10.091  70.571  1.00  0.00    -0.121 A  
HETATM    5  N   UNL     1      -8.219  11.900  67.718  1.00  0.00    -0.139 NA 
HETATM    6  O   UNL     1      -6.700   7.815  71.099  1.00  0.00    -0.041 OA 
HETATM    7  C   UNL     1      -7.800  11.062  68.748  1.00  0.00    -0.138 A  
HETATM    8  C   UNL     1      -7.107   8.870  70.338  1.00  0.00    -0.054 A  
HETATM    9  C   UNL     1      -8.476   9.855  68.592  1.00  0.00    -0.114 A  
HETATM   10  H   UNL     1      -6.013   7.904  71.750  1.00  0.00     0.000 HD 
HETATM   11  C   UNL     1      -6.888  11.201  69.811  1.00  0.00    -0.090 A  
HETATM   12  C   UNL     1      -8.111   8.739  69.388  1.00  0.00    -0.106 A  
ENDROOT
BRANCH   3  13
HETATM   13  C   UNL     1     -10.252  12.058  66.128  1.00  0.00    -0.255 A  
HETATM   14  C   UNL     1     -11.949  13.225  64.188  1.00  0.00    -0.447 A  
HETATM   15  H   UNL     1     -12.552  13.651  62.296  1.00  0.00     0.000 HD 
HETATM   16  C   UNL     1      -9.958  11.995  64.755  1.00  0.00    -0.241 A  
HETATM   17  C   UNL     1     -10.814  12.539  63.790  1.00  0.00    -0.489 A  
HETATM   18  O   UNL     1     -12.753  13.746  63.220  1.00  0.00    -0.783 OA 
HETATM   19  C   UNL     1     -11.416  12.755  66.495  1.00  0.00    -0.409 A  
HETATM   20  C   UNL     1     -12.243  13.364  65.537  1.00  0.00    -0.499 A  
ENDBRANCH   3  13
BRANCH   5  21
HETATM   21  C   UNL     1      -7.567  13.164  67.283  1.00  0.00    -0.080 C  
BRANCH  21  22
HETATM   22  C   UNL     1      -8.314  14.453  67.525  1.00  0.00    -0.198 A  
HETATM   23  C   UNL     1      -9.511  15.904  69.040  1.00  0.00    -0.247 A  
HETATM   24  C   UNL     1      -9.586  16.361  66.690  1.00  0.00    -0.273 A  
HETATM   25  C   UNL     1      -8.678  14.812  68.822  1.00  0.00    -0.178 A  
HETATM   26  C   UNL     1     -10.060  16.618  67.969  1.00  0.00    -0.262 A  
HETATM   27  C   UNL     1      -8.654  15.343  66.495  1.00  0.00    -0.294 A  
BRANCH  26  28
HETATM   28  O   UNL     1     -11.068  17.555  68.082  1.00  0.00    -0.233 OA 
BRANCH  28  29
HETATM   29  C   UNL     1     -10.750  18.775  67.409  1.00  0.00    -0.424 C  
BRANCH  29  30
HETATM   30  C   UNL     1      -9.914  19.774  68.222  1.00  0.00    -0.444 C  
BRANCH  30  31
HETATM   31  N   UNL     1      -8.520  19.856  67.688  1.00  0.00    -0.320 NA 
HETATM   32  C   UNL     1      -7.597  19.036  68.491  1.00  0.00    -0.329 C  
HETATM   33  C   UNL     1      -6.122  19.017  68.092  1.00  0.00    -0.228 C  
HETATM   34  C   UNL     1      -5.868  18.234  66.819  1.00  0.00    -0.173 C  
HETATM   35  C   UNL     1      -6.074  19.043  65.548  1.00  0.00    -0.263 C  
HETATM   36  C   UNL     1      -7.225  20.043  65.566  1.00  0.00    -0.307 C  
HETATM   37  C   UNL     1      -8.507  19.556  66.251  1.00  0.00    -0.352 C  
ENDBRANCH  30  31
ENDBRANCH  29  30
ENDBRANCH  28  29
ENDBRANCH  26  28
ENDBRANCH  21  22
ENDBRANCH   5  21
TORSDOF 7
ENDMDL
MODEL       33
REMARK 921   NORMALIZED FREE ENERGY PREDICTED BY IDOCK:   -6.26 KCAL/MOL
REMARK 922        TOTAL FREE ENERGY PREDICTED BY IDOCK:  -11.89 KCAL/MOL
REMARK 923 INTER-LIGAND FREE ENERGY PREDICTED BY IDOCK:   -9.86 KCAL/MOL
REMARK 924 INTRA-LIGAND FREE ENERGY PREDICTED BY IDOCK:   -2.03 KCAL/MOL
REMARK 927      BINDING AFFINITY PREDICTED BY RF-SCORE:    0.00 PKD
ROOT
HETATM    1  C   UNL     1     -10.930  15.633  70.432  1.00  0.00    -0.366 C  
HETATM    2  C   UNL     1     -11.024  14.859  69.154  1.00  0.00    -0.266 A  
HETATM    3  C   UNL     1     -11.508  13.567  68.905  1.00  0.00    -0.306 A  
HETATM    4  C   UNL     1     -10.572  16.292  65.241  1.00  0.00    -0.357 A  
HETATM    5  N   UNL     1     -11.429  13.385  67.505  1.00  0.00    -0.305 NA 
HETATM    6  O   UNL     1      -9.467  18.268  65.848  1.00  0.00    -0.508 OA 
HETATM    7  C   UNL     1     -11.119  14.601  66.900  1.00  0.00    -0.333 A  
HETATM    8  C   UNL     1     -10.035  17.088  66.226  1.00  0.00    -0.310 A  
HETATM    9  C   UNL     1     -10.680  15.457  67.905  1.00  0.00    -0.286 A  
HETATM   10  H   UNL     1      -9.412  18.525  64.935  1.00  0.00     0.000 HD 
HETATM   11  C   UNL     1     -11.154  15.067  65.572  1.00  0.00    -0.358 A  
HETATM   12  C   UNL     1     -10.114  16.711  67.561  1.00  0.00    -0.273 A  
ENDROOT
BRANCH   3  13
HETATM   13  C   UNL     1     -12.017  12.563  69.884  1.00  0.00    -0.371 A  
HETATM   14  C   UNL     1     -12.822  10.636  71.794  1.00  0.00    -0.444 A  
HETATM   15  H   UNL     1     -12.900   8.774  72.600  1.00  0.00     0.000 HD 
HETATM   16  C   UNL     1     -11.704  11.201  69.738  1.00  0.00    -0.419 A  
HETATM   17  C   UNL     1     -12.068  10.250  70.698  1.00  0.00    -0.433 A  
HETATM   18  O   UNL     1     -13.163   9.681  72.704  1.00  0.00    -0.296 OA 
HETATM   19  C   UNL     1     -12.776  12.920  71.012  1.00  0.00    -0.338 A  
HETATM   20  C   UNL     1     -13.205  11.961  71.945  1.00  0.00    -0.467 A  
ENDBRANCH   3  13
BRANCH   5  21
HETATM   21  C   UNL     1     -11.642  12.082  66.820  1.00  0.00    -0.321 C  
BRANCH  21  22
HETATM   22  C   UNL     1     -10.456  11.457  66.127  1.00  0.00    -0.303 A  
HETATM   23  C   UNL     1      -9.507  10.428  64.158  1.00  0.00    -0.353 A  
HETATM   24  C   UNL     1      -8.289  10.335  66.219  1.00  0.00    -0.134 A  
HETATM   25  C   UNL     1     -10.523  11.158  64.767  1.00  0.00    -0.388 A  
HETATM   26  C   UNL     1      -8.439   9.918  64.904  1.00  0.00    -0.161 A  
HETATM   27  C   UNL     1      -9.250  11.170  66.787  1.00  0.00    -0.183 A  
BRANCH  26  28
HETATM   28  O   UNL     1      -7.522   8.998  64.436  1.00  0.00    -0.100 OA 
BRANCH  28  29
HETATM   29  C   UNL     1      -7.129   8.064  65.446  1.00  0.00    -0.060 C  
BRANCH  29  30
HETATM   30  C   UNL     1      -7.898   6.736  65.446  1.00  0.00    -0.115 C  
BRANCH  30  31
HETATM   31  N   UNL     1      -8.558   6.507  66.767  1.00  0.00    -0.115 NA 
HETATM   32  C   UNL     1      -7.730   7.025  67.870  1.00  0.00    -0.113 C  
HETATM   33  C   UNL     1      -8.249   6.860  69.297  1.00  0.00    -0.125 C  
HETATM   34  C   UNL     1      -9.414   7.779  69.607  1.00  0.00    -0.156 C  
HETATM   35  C   UNL     1     -10.765   7.226  69.183  1.00  0.00    -0.201 C  
HETATM   36  C   UNL     1     -10.790   6.441  67.876  1.00  0.00    -0.404 C  
HETATM   37  C   UNL     1      -9.932   7.022  66.746  1.00  0.00    -0.197 C  
ENDBRANCH  30  31
ENDBRANCH  29  30
ENDBRANCH  28  29
ENDBRANCH  26  28
ENDBRANCH  21  22
ENDBRANCH   5  21
TORSDOF 7
ENDMDL
MODEL       34
REMARK 921   NORMALIZED FREE ENERGY PREDICTED BY IDOCK:   -6.26 KCAL/MOL
REMARK 922        TOTAL FREE ENERGY PREDICTED BY IDOCK:  -11.89 KCAL/MOL
REMARK 923 INTER-LIGAND FREE ENERGY PREDICTED BY IDOCK:   -9.20 KCAL/MOL
REMARK 924 INTRA-LIGAND FREE ENERGY PREDICTED BY IDOCK:   -2.70 KCAL/MOL
REMARK 927      BINDING AFFINITY PREDICTED BY RF-SCORE:    0.00 PKD
ROOT
HETATM    1  C   UNL     1     -11.702  10.812  69.056  1.00  0.00    -0.357 C  
HETATM    2  C   UNL     1     -11.662  12.282  68.783  1.00  0.00    -0.390 A  
HETATM    3  C   UNL     1     -11.393  12.982  67.597  1.00  0.00    -0.300 A  
HETATM    4  C   UNL     1     -13.055  15.391  71.224  1.00  0.00    -0.564 A  
HETATM    5  N   UNL     1     -11.573  14.350  67.903  1.00  0.00    -0.327 NA 
HETATM    6  O   UNL     1     -13.120  14.123  73.194  1.00  0.00    -0.547 OA 
HETATM    7  C   UNL     1     -12.148  14.468  69.167  1.00  0.00    -0.264 A  
HETATM    8  C   UNL     1     -12.826  14.196  71.865  1.00  0.00    -0.341 A  
HETATM    9  C   UNL     1     -12.025  13.228  69.788  1.00  0.00    -0.391 A  
HETATM   10  H   UNL     1     -13.443  14.875  73.676  1.00  0.00     0.000 HD 
HETATM   11  C   UNL     1     -12.760  15.524  69.867  1.00  0.00    -0.069 A  
HETATM   12  C   UNL     1     -12.354  13.096  71.161  1.00  0.00    -0.295 A  
ENDROOT
BRANCH   3  13
HETATM   13  C   UNL     1     -11.003  12.433  66.266  1.00  0.00    -0.323 A  
HETATM   14  C   UNL     1     -10.274  11.234  63.808  1.00  0.00    -0.377 A  
HETATM   15  H   UNL     1      -9.067  10.161  62.578  1.00  0.00     0.000 HD 
HETATM   16  C   UNL     1      -9.761  11.799  66.092  1.00  0.00    -0.250 A  
HETATM   17  C   UNL     1      -9.411  11.173  64.889  1.00  0.00    -0.251 A  
HETATM   18  O   UNL     1      -9.896  10.619  62.653  1.00  0.00    -0.263 OA 
HETATM   19  C   UNL     1     -11.857  12.469  65.150  1.00  0.00    -0.450 A  
HETATM   20  C   UNL     1     -11.485  11.904  63.919  1.00  0.00    -0.511 A  
ENDBRANCH   3  13
BRANCH   5  21
HETATM   21  C   UNL     1     -11.190  15.465  66.997  1.00  0.00    -0.229 C  
BRANCH  21  22
HETATM   22  C   UNL     1      -9.856  16.129  67.234  1.00  0.00    -0.241 A  
HETATM   23  C   UNL     1      -7.521  16.362  66.657  1.00  0.00    -0.267 A  
HETATM   24  C   UNL     1      -8.326  17.370  68.676  1.00  0.00    -0.264 A  
HETATM   25  C   UNL     1      -8.798  15.896  66.357  1.00  0.00    -0.368 A  
HETATM   26  C   UNL     1      -7.256  17.005  67.871  1.00  0.00    -0.154 A  
HETATM   27  C   UNL     1      -9.620  17.007  68.304  1.00  0.00    -0.273 A  
BRANCH  26  28
HETATM   28  O   UNL     1      -5.993  17.288  68.352  1.00  0.00    -0.145 OA 
BRANCH  28  29
HETATM   29  C   UNL     1      -5.257  16.102  68.668  1.00  0.00    -0.101 C  
BRANCH  29  30
HETATM   30  C   UNL     1      -5.845  15.249  69.801  1.00  0.00    -0.128 C  
BRANCH  30  31
HETATM   31  N   UNL     1      -5.713  13.793  69.489  1.00  0.00    -0.090 NA 
HETATM   32  C   UNL     1      -5.776  12.981  70.717  1.00  0.00    -0.160 C  
HETATM   33  C   UNL     1      -5.642  11.465  70.583  1.00  0.00    -0.135 C  
HETATM   34  C   UNL     1      -6.871  10.819  69.974  1.00  0.00    -0.126 C  
HETATM   35  C   UNL     1      -6.881  10.828  68.454  1.00  0.00    -0.068 C  
HETATM   36  C   UNL     1      -6.312  12.075  67.785  1.00  0.00    -0.081 C  
HETATM   37  C   UNL     1      -6.678  13.404  68.454  1.00  0.00    -0.096 C  
ENDBRANCH  30  31
ENDBRANCH  29  30
ENDBRANCH  28  29
ENDBRANCH  26  28
ENDBRANCH  21  22
ENDBRANCH   5  21
TORSDOF 7
ENDMDL
MODEL       35
REMARK 921   NORMALIZED FREE ENERGY PREDICTED BY IDOCK:   -6.26 KCAL/MOL
REMARK 922        TOTAL FREE ENERGY PREDICTED BY IDOCK:  -11.89 KCAL/MOL
REMARK 923 INTER-LIGAND FREE ENERGY PREDICTED BY IDOCK:   -9.85 KCAL/MOL
REMARK 924 INTRA-LIGAND FREE ENERGY PREDICTED BY IDOCK:   -2.04 KCAL/MOL
REMARK 927      BINDING AFFINITY PREDICTED BY RF-SCORE:    0.00 PKD
ROOT
HETATM    1  C   UNL     1      -9.543  16.500  66.130  1.00  0.00    -0.344 C  
HETATM    2  C   UNL     1      -9.155  15.227  66.815  1.00  0.00    -0.283 A  
HETATM    3  C   UNL     1      -9.558  13.905  66.576  1.00  0.00    -0.287 A  
HETATM    4  C   UNL     1      -5.993  14.607  69.495  1.00  0.00    -0.106 A  
HETATM    5  N   UNL     1      -8.812  13.103  67.471  1.00  0.00    -0.188 NA 
HETATM    6  O   UNL     1      -5.693  16.872  70.021  1.00  0.00    -0.210 OA 
HETATM    7  C   UNL     1      -7.829  13.882  68.076  1.00  0.00    -0.154 A  
HETATM    8  C   UNL     1      -6.388  15.916  69.342  1.00  0.00    -0.160 A  
HETATM    9  C   UNL     1      -8.154  15.213  67.831  1.00  0.00    -0.144 A  
HETATM   10  H   UNL     1      -4.978  16.648  70.605  1.00  0.00     0.000 HD 
HETATM   11  C   UNL     1      -6.680  13.588  68.834  1.00  0.00    -0.109 A  
HETATM   12  C   UNL     1      -7.434  16.243  68.487  1.00  0.00    -0.176 A  
ENDROOT
BRANCH   3  13
HETATM   13  C   UNL     1     -10.557  13.405  65.588  1.00  0.00    -0.286 A  
HETATM   14  C   UNL     1     -12.409  12.296  63.757  1.00  0.00    -0.538 A  
HETATM   15  H   UNL     1     -12.953  11.229  62.118  1.00  0.00     0.000 HD 
HETATM   16  C   UNL     1     -10.138  12.722  64.433  1.00  0.00    -0.275 A  
HETATM   17  C   UNL     1     -11.050  12.141  63.544  1.00  0.00    -0.525 A  
HETATM   18  O   UNL     1     -13.266  11.721  62.868  1.00  0.00    -0.357 OA 
HETATM   19  C   UNL     1     -11.944  13.536  65.776  1.00  0.00    -0.439 A  
HETATM   20  C   UNL     1     -12.866  13.016  64.853  1.00  0.00    -0.368 A  
ENDBRANCH   3  13
BRANCH   5  21
HETATM   21  C   UNL     1      -9.070  11.658  67.709  1.00  0.00    -0.175 C  
BRANCH  21  22
HETATM   22  C   UNL     1     -10.021  11.294  68.822  1.00  0.00    -0.203 A  
HETATM   23  C   UNL     1     -10.681   9.765  70.573  1.00  0.00    -0.381 A  
HETATM   24  C   UNL     1     -12.200  11.494  69.906  1.00  0.00    -0.328 A  
HETATM   25  C   UNL     1      -9.734  10.216  69.657  1.00  0.00    -0.250 A  
HETATM   26  C   UNL     1     -11.959  10.331  70.625  1.00  0.00    -0.342 A  
HETATM   27  C   UNL     1     -11.200  12.011  69.084  1.00  0.00    -0.305 A  
BRANCH  26  28
HETATM   28  O   UNL     1     -13.025   9.803  71.327  1.00  0.00    -0.348 OA 
BRANCH  28  29
HETATM   29  C   UNL     1     -12.644   8.674  72.118  1.00  0.00    -0.391 C  
BRANCH  29  30
HETATM   30  C   UNL     1     -13.203   7.324  71.646  1.00  0.00    -0.366 C  
BRANCH  30  31
HETATM   31  N   UNL     1     -12.096   6.350  71.398  1.00  0.00    -0.273 NA 
HETATM   32  C   UNL     1     -11.591   6.464  70.019  1.00  0.00    -0.377 C  
HETATM   33  C   UNL     1     -10.463   5.528  69.589  1.00  0.00    -0.379 C  
HETATM   34  C   UNL     1      -9.129   5.888  70.214  1.00  0.00    -0.156 C  
HETATM   35  C   UNL     1      -8.921   5.301  71.600  1.00  0.00    -0.148 C  
HETATM   36  C   UNL     1     -10.151   5.247  72.500  1.00  0.00    -0.224 C  
HETATM   37  C   UNL     1     -11.066   6.475  72.436  1.00  0.00    -0.259 C  
ENDBRANCH  30  31
ENDBRANCH  29  30
ENDBRANCH  28  29
ENDBRANCH  26  28
ENDBRANCH  21  22
ENDBRANCH   5  21
TORSDOF 7
ENDMDL
MODEL       36
REMARK 921   NORMALIZED FREE ENERGY PREDICTED BY IDOCK:   -6.21 KCAL/MOL
REMARK 922        TOTAL FREE ENERGY PREDICTED BY IDOCK:  -11.81 KCAL/MOL
REMARK 923 INTER-LIGAND FREE ENERGY PREDICTED BY IDOCK:  -10.40 KCAL/MOL
REMARK 924 INTRA-LIGAND FREE ENERGY PREDICTED BY IDOCK:   -1.42 KCAL/MOL
REMARK 927      BINDING AFFINITY PREDICTED BY RF-SCORE:    0.00 PKD
ROOT
HETATM    1  C   UNL     1     -10.740  16.446  67.654  1.00  0.00    -0.312 C  
HETATM    2  C   UNL     1     -11.092  15.009  67.877  1.00  0.00    -0.310 A  
HETATM    3  C   UNL     1     -11.699  14.378  68.973  1.00  0.00    -0.310 A  
HETATM    4  C   UNL     1     -11.174  11.912  65.053  1.00  0.00    -0.350 A  
HETATM    5  N   UNL     1     -11.859  13.023  68.603  1.00  0.00    -0.320 NA 
HETATM    6  O   UNL     1      -9.849  13.016  63.466  1.00  0.00    -0.617 OA 
HETATM    7  C   UNL     1     -11.565  12.877  67.249  1.00  0.00    -0.360 A  
HETATM    8  C   UNL     1     -10.430  13.014  64.698  1.00  0.00    -0.380 A  
HETATM    9  C   UNL     1     -10.911  14.038  66.847  1.00  0.00    -0.301 A  
HETATM   10  H   UNL     1      -9.923  12.274  62.877  1.00  0.00     0.000 HD 
HETATM   11  C   UNL     1     -11.779  11.853  66.309  1.00  0.00    -0.223 A  
HETATM   12  C   UNL     1     -10.321  14.099  65.559  1.00  0.00    -0.368 A  
ENDROOT
BRANCH   3  13
HETATM   13  C   UNL     1     -12.115  14.979  70.274  1.00  0.00    -0.378 A  
HETATM   14  C   UNL     1     -12.955  15.963  72.791  1.00  0.00    -0.483 A  
HETATM   15  H   UNL     1     -14.324  16.404  74.224  1.00  0.00     0.000 HD 
HETATM   16  C   UNL     1     -13.474  15.060  70.620  1.00  0.00    -0.210 A  
HETATM   17  C   UNL     1     -13.892  15.511  71.878  1.00  0.00    -0.589 A  
HETATM   18  O   UNL     1     -13.400  16.400  74.001  1.00  0.00    -0.572 OA 
HETATM   19  C   UNL     1     -11.190  15.438  71.228  1.00  0.00    -0.407 A  
HETATM   20  C   UNL     1     -11.605  15.958  72.465  1.00  0.00    -0.438 A  
ENDBRANCH   3  13
BRANCH   5  21
HETATM   21  C   UNL     1     -12.270  11.946  69.542  1.00  0.00    -0.136 C  
BRANCH  21  22
HETATM   22  C   UNL     1     -11.246  10.893  69.887  1.00  0.00    -0.355 A  
HETATM   23  C   UNL     1     -10.564   9.034  71.271  1.00  0.00    -0.378 A  
HETATM   24  C   UNL     1      -8.952  10.060  69.827  1.00  0.00    -0.209 A  
HETATM   25  C   UNL     1     -11.552   9.903  70.819  1.00  0.00    -0.430 A  
HETATM   26  C   UNL     1      -9.235   9.179  70.861  1.00  0.00    -0.261 A  
HETATM   27  C   UNL     1      -9.975  10.841  69.292  1.00  0.00    -0.182 A  
BRANCH  26  28
HETATM   28  O   UNL     1      -8.161   8.522  71.430  1.00  0.00    -0.116 OA 
BRANCH  28  29
HETATM   29  C   UNL     1      -8.553   7.699  72.532  1.00  0.00    -0.124 C  
BRANCH  29  30
HETATM   30  C   UNL     1      -7.725   6.421  72.723  1.00  0.00    -0.103 C  
BRANCH  30  31
HETATM   31  N   UNL     1      -8.542   5.354  73.378  1.00  0.00    -0.116 NA 
HETATM   32  C   UNL     1      -9.958   5.458  72.986  1.00  0.00    -0.168 C  
HETATM   33  C   UNL     1     -10.942   4.449  73.578  1.00  0.00    -0.379 C  
HETATM   34  C   UNL     1     -10.780   3.059  72.996  1.00  0.00    -0.221 C  
HETATM   35  C   UNL     1      -9.707   2.227  73.679  1.00  0.00    -0.128 C  
HETATM   36  C   UNL     1      -8.456   2.977  74.124  1.00  0.00    -0.073 C  
HETATM   37  C   UNL     1      -7.941   4.035  73.142  1.00  0.00    -0.088 C  
ENDBRANCH  30  31
ENDBRANCH  29  30
ENDBRANCH  28  29
ENDBRANCH  26  28
ENDBRANCH  21  22
ENDBRANCH   5  21
TORSDOF 7
ENDMDL
MODEL       37
REMARK 921   NORMALIZED FREE ENERGY PREDICTED BY IDOCK:   -6.16 KCAL/MOL
REMARK 922        TOTAL FREE ENERGY PREDICTED BY IDOCK:  -11.75 KCAL/MOL
REMARK 923 INTER-LIGAND FREE ENERGY PREDICTED BY IDOCK:   -9.16 KCAL/MOL
REMARK 924 INTRA-LIGAND FREE ENERGY PREDICTED BY IDOCK:   -2.59 KCAL/MOL
REMARK 927      BINDING AFFINITY PREDICTED BY RF-SCORE:    0.00 PKD
ROOT
HETATM    1  C   UNL     1      -9.544  10.218  63.097  1.00  0.00    -0.295 C  
HETATM    2  C   UNL     1      -9.627  10.189  64.591  1.00  0.00    -0.379 A  
HETATM    3  C   UNL     1     -10.235  11.080  65.487  1.00  0.00    -0.268 A  
HETATM    4  C   UNL     1      -8.716   7.003  67.157  1.00  0.00    -0.121 A  
HETATM    5  N   UNL     1     -10.071  10.513  66.771  1.00  0.00    -0.211 NA 
HETATM    6  O   UNL     1      -7.441   5.809  65.594  1.00  0.00    -0.074 OA 
HETATM    7  C   UNL     1      -9.578   9.217  66.643  1.00  0.00    -0.203 A  
HETATM    8  C   UNL     1      -8.168   6.921  65.898  1.00  0.00    -0.129 A  
HETATM    9  C   UNL     1      -9.122   9.081  65.335  1.00  0.00    -0.250 A  
HETATM   10  H   UNL     1      -7.288   5.123  66.233  1.00  0.00     0.000 HD 
HETATM   11  C   UNL     1      -9.458   8.126  67.524  1.00  0.00    -0.184 A  
HETATM   12  C   UNL     1      -8.392   7.924  64.963  1.00  0.00    -0.111 A  
ENDROOT
BRANCH   3  13
HETATM   13  C   UNL     1     -10.930  12.366  65.187  1.00  0.00    -0.339 A  
HETATM   14  C   UNL     1     -12.193  14.790  64.455  1.00  0.00    -0.428 A  
HETATM   15  H   UNL     1     -12.235  16.717  63.814  1.00  0.00     0.000 HD 
HETATM   16  C   UNL     1     -10.191  13.517  64.863  1.00  0.00    -0.351 A  
HETATM   17  C   UNL     1     -10.811  14.707  64.465  1.00  0.00    -0.209 A  
HETATM   18  O   UNL     1     -12.761  15.967  64.069  1.00  0.00    -0.520 OA 
HETATM   19  C   UNL     1     -12.330  12.485  65.159  1.00  0.00    -0.496 A  
HETATM   20  C   UNL     1     -12.961  13.695  64.828  1.00  0.00    -0.032 A  
ENDBRANCH   3  13
BRANCH   5  21
HETATM   21  C   UNL     1     -10.379  11.223  68.042  1.00  0.00    -0.183 C  
BRANCH  21  22
HETATM   22  C   UNL     1      -9.747  12.577  68.254  1.00  0.00    -0.220 A  
HETATM   23  C   UNL     1      -7.755  13.929  68.464  1.00  0.00    -0.139 A  
HETATM   24  C   UNL     1      -9.873  14.878  69.060  1.00  0.00    -0.220 A  
HETATM   25  C   UNL     1      -8.369  12.733  68.106  1.00  0.00    -0.172 A  
HETATM   26  C   UNL     1      -8.488  14.968  69.047  1.00  0.00    -0.200 A  
HETATM   27  C   UNL     1     -10.489  13.723  68.582  1.00  0.00    -0.245 A  
BRANCH  26  28
HETATM   28  O   UNL     1      -7.932  16.084  69.643  1.00  0.00    -0.130 OA 
BRANCH  28  29
HETATM   29  C   UNL     1      -6.722  16.492  69.000  1.00  0.00    -0.200 C  
BRANCH  29  30
HETATM   30  C   UNL     1      -6.768  17.874  68.332  1.00  0.00    -0.219 C  
BRANCH  30  31
HETATM   31  N   UNL     1      -8.174  18.251  67.994  1.00  0.00    -0.258 NA 
HETATM   32  C   UNL     1      -8.399  19.693  68.198  1.00  0.00    -0.311 C  
HETATM   33  C   UNL     1      -9.793  20.249  67.912  1.00  0.00    -0.492 C  
HETATM   34  C   UNL     1     -10.110  20.308  66.431  1.00  0.00    -0.491 C  
HETATM   35  C   UNL     1     -10.650  19.004  65.865  1.00  0.00    -0.466 C  
HETATM   36  C   UNL     1     -10.039  17.724  66.425  1.00  0.00    -0.357 C  
HETATM   37  C   UNL     1      -8.524  17.765  66.654  1.00  0.00    -0.258 C  
ENDBRANCH  30  31
ENDBRANCH  29  30
ENDBRANCH  28  29
ENDBRANCH  26  28
ENDBRANCH  21  22
ENDBRANCH   5  21
TORSDOF 7
ENDMDL
MODEL       38
REMARK 921   NORMALIZED FREE ENERGY PREDICTED BY IDOCK:   -6.16 KCAL/MOL
REMARK 922        TOTAL FREE ENERGY PREDICTED BY IDOCK:  -11.74 KCAL/MOL
REMARK 923 INTER-LIGAND FREE ENERGY PREDICTED BY IDOCK:   -9.84 KCAL/MOL
REMARK 924 INTRA-LIGAND FREE ENERGY PREDICTED BY IDOCK:   -1.90 KCAL/MOL
REMARK 927      BINDING AFFINITY PREDICTED BY RF-SCORE:    0.00 PKD
ROOT
HETATM    1  C   UNL     1     -10.516   8.059  68.026  1.00  0.00    -0.243 C  
HETATM    2  C   UNL     1     -10.867   9.451  68.449  1.00  0.00    -0.156 A  
HETATM    3  C   UNL     1     -10.810  10.660  67.740  1.00  0.00    -0.286 A  
HETATM    4  C   UNL     1     -12.985  10.645  71.862  1.00  0.00    -0.542 A  
HETATM    5  N   UNL     1     -11.338  11.644  68.608  1.00  0.00    -0.240 NA 
HETATM    6  O   UNL     1     -12.683   8.637  73.033  1.00  0.00    -0.636 OA 
HETATM    7  C   UNL     1     -11.902  11.023  69.720  1.00  0.00    -0.347 A  
HETATM    8  C   UNL     1     -12.441   9.383  71.918  1.00  0.00    -0.390 A  
HETATM    9  C   UNL     1     -11.449   9.707  69.726  1.00  0.00    -0.095 A  
HETATM   10  H   UNL     1     -13.184   8.979  73.764  1.00  0.00     0.000 HD 
HETATM   11  C   UNL     1     -12.757  11.456  70.750  1.00  0.00    -0.343 A  
HETATM   12  C   UNL     1     -11.708   8.882  70.849  1.00  0.00    -0.312 A  
ENDROOT
BRANCH   3  13
HETATM   13  C   UNL     1     -10.312  10.899  66.354  1.00  0.00    -0.306 A  
HETATM   14  C   UNL     1      -9.358  11.183  63.705  1.00  0.00    -0.188 A  
HETATM   15  H   UNL     1      -7.984  11.005  62.222  1.00  0.00     0.000 HD 
HETATM   16  C   UNL     1      -8.991  10.570  66.005  1.00  0.00    -0.185 A  
HETATM   17  C   UNL     1      -8.527  10.674  64.688  1.00  0.00    -0.088 A  
HETATM   18  O   UNL     1      -8.868  11.276  62.438  1.00  0.00    -0.314 OA 
HETATM   19  C   UNL     1     -11.131  11.405  65.330  1.00  0.00    -0.196 A  
HETATM   20  C   UNL     1     -10.651  11.579  64.021  1.00  0.00    -0.437 A  
ENDBRANCH   3  13
BRANCH   5  21
HETATM   21  C   UNL     1     -11.275  13.107  68.345  1.00  0.00    -0.271 C  
BRANCH  21  22
HETATM   22  C   UNL     1      -9.967  13.669  67.846  1.00  0.00    -0.244 A  
HETATM   23  C   UNL     1      -7.586  13.962  68.137  1.00  0.00    -0.134 A  
HETATM   24  C   UNL     1      -8.723  15.266  66.480  1.00  0.00    -0.314 A  
HETATM   25  C   UNL     1      -8.773  13.320  68.476  1.00  0.00    -0.059 A  
HETATM   26  C   UNL     1      -7.574  15.015  67.217  1.00  0.00    -0.194 A  
HETATM   27  C   UNL     1      -9.879  14.531  66.741  1.00  0.00    -0.271 A  
BRANCH  26  28
HETATM   28  O   UNL     1      -6.499  15.855  66.997  1.00  0.00    -0.291 OA 
BRANCH  28  29
HETATM   29  C   UNL     1      -6.268  16.737  68.099  1.00  0.00    -0.132 C  
BRANCH  29  30
HETATM   30  C   UNL     1      -6.007  18.202  67.722  1.00  0.00    -0.157 C  
BRANCH  30  31
HETATM   31  N   UNL     1      -7.281  18.983  67.721  1.00  0.00    -0.234 NA 
HETATM   32  C   UNL     1      -7.758  19.215  66.346  1.00  0.00    -0.276 C  
HETATM   33  C   UNL     1      -9.047  20.014  66.159  1.00  0.00    -0.357 C  
HETATM   34  C   UNL     1     -10.284  19.237  66.563  1.00  0.00    -0.522 C  
HETATM   35  C   UNL     1     -10.599  19.313  68.049  1.00  0.00    -0.431 C  
HETATM   36  C   UNL     1      -9.401  19.309  68.992  1.00  0.00    -0.354 C  
HETATM   37  C   UNL     1      -8.266  18.353  68.608  1.00  0.00    -0.294 C  
ENDBRANCH  30  31
ENDBRANCH  29  30
ENDBRANCH  28  29
ENDBRANCH  26  28
ENDBRANCH  21  22
ENDBRANCH   5  21
TORSDOF 7
ENDMDL
MODEL       39
REMARK 921   NORMALIZED FREE ENERGY PREDICTED BY IDOCK:   -6.12 KCAL/MOL
REMARK 922        TOTAL FREE ENERGY PREDICTED BY IDOCK:  -11.69 KCAL/MOL
REMARK 923 INTER-LIGAND FREE ENERGY PREDICTED BY IDOCK:   -9.54 KCAL/MOL
REMARK 924 INTRA-LIGAND FREE ENERGY PREDICTED BY IDOCK:   -2.15 KCAL/MOL
REMARK 927      BINDING AFFINITY PREDICTED BY RF-SCORE:    0.00 PKD
ROOT
HETATM    1  C   UNL     1     -11.093  19.201  67.821  1.00  0.00    -0.116 C  
HETATM    2  C   UNL     1      -9.919  18.274  67.839  1.00  0.00    -0.359 A  
HETATM    3  C   UNL     1      -9.772  17.001  68.408  1.00  0.00    -0.279 A  
HETATM    4  C   UNL     1      -6.415  18.515  65.551  1.00  0.00    -0.309 A  
HETATM    5  N   UNL     1      -8.478  16.560  68.047  1.00  0.00    -0.182 NA 
HETATM    6  O   UNL     1      -6.673  20.773  64.976  1.00  0.00    -0.469 OA 
HETATM    7  C   UNL     1      -7.939  17.435  67.107  1.00  0.00    -0.204 A  
HETATM    8  C   UNL     1      -7.132  19.684  65.657  1.00  0.00    -0.300 A  
HETATM    9  C   UNL     1      -8.726  18.583  67.121  1.00  0.00    -0.274 A  
HETATM   10  H   UNL     1      -5.870  20.742  64.469  1.00  0.00     0.000 HD 
HETATM   11  C   UNL     1      -6.834  17.374  66.238  1.00  0.00    -0.307 A  
HETATM   12  C   UNL     1      -8.306  19.729  66.398  1.00  0.00    -0.378 A  
ENDROOT
BRANCH   3  13
HETATM   13  C   UNL     1     -10.756  16.231  69.225  1.00  0.00    -0.307 A  
HETATM   14  C   UNL     1     -12.719  14.914  70.780  1.00  0.00    -0.363 A  
HETATM   15  H   UNL     1     -13.821  14.593  72.455  1.00  0.00     0.000 HD 
HETATM   16  C   UNL     1     -10.965  16.551  70.577  1.00  0.00    -0.072 A  
HETATM   17  C   UNL     1     -11.960  15.928  71.340  1.00  0.00    -0.515 A  
HETATM   18  O   UNL     1     -13.673  14.327  71.555  1.00  0.00    -0.365 OA 
HETATM   19  C   UNL     1     -11.550  15.204  68.687  1.00  0.00    -0.358 A  
HETATM   20  C   UNL     1     -12.503  14.525  69.465  1.00  0.00    -0.162 A  
ENDBRANCH   3  13
BRANCH   5  21
HETATM   21  C   UNL     1      -7.822  15.350  68.610  1.00  0.00    -0.142 C  
BRANCH  21  22
HETATM   22  C   UNL     1      -8.035  14.042  67.888  1.00  0.00    -0.158 A  
HETATM   23  C   UNL     1      -9.356  12.696  66.377  1.00  0.00    -0.198 A  
HETATM   24  C   UNL     1      -7.642  11.642  67.677  1.00  0.00    -0.128 A  
HETATM   25  C   UNL     1      -9.037  13.935  66.924  1.00  0.00    -0.257 A  
HETATM   26  C   UNL     1      -8.736  11.527  66.832  1.00  0.00    -0.181 A  
HETATM   27  C   UNL     1      -7.249  12.903  68.124  1.00  0.00    -0.114 A  
BRANCH  26  28
HETATM   28  O   UNL     1      -9.150  10.246  66.520  1.00  0.00    -0.146 OA 
BRANCH  28  29
HETATM   29  C   UNL     1      -9.707   9.569  67.650  1.00  0.00    -0.154 C  
BRANCH  29  30
HETATM   30  C   UNL     1     -11.087  10.069  68.099  1.00  0.00    -0.193 C  
BRANCH  30  31
HETATM   31  N   UNL     1     -11.201  10.040  69.589  1.00  0.00    -0.249 NA 
HETATM   32  C   UNL     1     -12.408  10.754  70.041  1.00  0.00    -0.298 C  
HETATM   33  C   UNL     1     -12.673  10.835  71.544  1.00  0.00    -0.536 C  
HETATM   34  C   UNL     1     -13.114   9.510  72.135  1.00  0.00    -0.522 C  
HETATM   35  C   UNL     1     -11.963   8.591  72.513  1.00  0.00    -0.401 C  
HETATM   36  C   UNL     1     -10.759   8.602  71.577  1.00  0.00    -0.352 C  
HETATM   37  C   UNL     1     -11.090   8.662  70.082  1.00  0.00    -0.192 C  
ENDBRANCH  30  31
ENDBRANCH  29  30
ENDBRANCH  28  29
ENDBRANCH  26  28
ENDBRANCH  21  22
ENDBRANCH   5  21
TORSDOF 7
ENDMDL
MODEL       40
REMARK 921   NORMALIZED FREE ENERGY PREDICTED BY IDOCK:   -6.08 KCAL/MOL
REMARK 922        TOTAL FREE ENERGY PREDICTED BY IDOCK:  -11.64 KCAL/MOL
REMARK 923 INTER-LIGAND FREE ENERGY PREDICTED BY IDOCK:   -9.50 KCAL/MOL
REMARK 924 INTRA-LIGAND FREE ENERGY PREDICTED BY IDOCK:   -2.14 KCAL/MOL
REMARK 927      BINDING AFFINITY PREDICTED BY RF-SCORE:    0.00 PKD
ROOT
HETATM    1  C   UNL     1     -14.132   7.784  71.706  1.00  0.00    -0.519 C  
HETATM    2  C   UNL     1     -12.639   7.830  71.801  1.00  0.00    -0.356 A  
HETATM    3  C   UNL     1     -11.743   8.882  71.564  1.00  0.00    -0.324 A  
HETATM    4  C   UNL     1     -10.087   5.014  73.569  1.00  0.00    -0.196 A  
HETATM    5  N   UNL     1     -10.461   8.382  71.887  1.00  0.00    -0.270 NA 
HETATM    6  O   UNL     1     -11.646   3.264  73.571  1.00  0.00    -0.162 OA 
HETATM    7  C   UNL     1     -10.593   7.143  72.510  1.00  0.00    -0.240 A  
HETATM    8  C   UNL     1     -11.341   4.551  73.244  1.00  0.00    -0.270 A  
HETATM    9  C   UNL     1     -11.898   6.712  72.287  1.00  0.00    -0.289 A  
HETATM   10  H   UNL     1     -11.010   2.689  73.982  1.00  0.00     0.000 HD 
HETATM   11  C   UNL     1      -9.719   6.321  73.244  1.00  0.00    -0.168 A  
HETATM   12  C   UNL     1     -12.271   5.391  72.644  1.00  0.00     0.129 A  
ENDROOT
BRANCH   3  13
HETATM   13  C   UNL     1     -12.041  10.262  71.080  1.00  0.00    -0.494 A  
HETATM   14  C   UNL     1     -12.508  12.939  70.290  1.00  0.00    -0.127 A  
HETATM   15  H   UNL     1     -13.227  14.823  70.528  1.00  0.00     0.000 HD 
HETATM   16  C   UNL     1     -12.821  11.137  71.856  1.00  0.00    -0.400 A  
HETATM   17  C   UNL     1     -13.023  12.472  71.487  1.00  0.00    -0.379 A  
HETATM   18  O   UNL     1     -12.731  14.242  69.962  1.00  0.00    -0.297 OA 
HETATM   19  C   UNL     1     -11.526  10.772  69.876  1.00  0.00    -0.398 A  
HETATM   20  C   UNL     1     -11.783  12.090  69.464  1.00  0.00    -0.408 A  
ENDBRANCH   3  13
BRANCH   5  21
HETATM   21  C   UNL     1      -9.189   9.091  71.586  1.00  0.00    -0.153 C  
BRANCH  21  22
HETATM   22  C   UNL     1      -8.703   9.074  70.157  1.00  0.00    -0.184 A  
HETATM   23  C   UNL     1      -7.686  10.233  68.296  1.00  0.00    -0.092 A  
HETATM   24  C   UNL     1      -8.729   8.110  67.915  1.00  0.00    -0.128 A  
HETATM   25  C   UNL     1      -7.989  10.161  69.653  1.00  0.00    -0.181 A  
HETATM   26  C   UNL     1      -8.151   9.262  67.402  1.00  0.00    -0.110 A  
HETATM   27  C   UNL     1      -8.917   7.990  69.291  1.00  0.00    -0.148 A  
BRANCH  26  28
HETATM   28  O   UNL     1      -8.101   9.374  66.026  1.00  0.00    -0.108 OA 
BRANCH  28  29
HETATM   29  C   UNL     1      -9.398   9.557  65.451  1.00  0.00    -0.261 C  
BRANCH  29  30
HETATM   30  C   UNL     1      -9.429  10.360  64.144  1.00  0.00    -0.300 C  
BRANCH  30  31
HETATM   31  N   UNL     1      -9.994  11.724  64.374  1.00  0.00    -0.260 NA 
HETATM   32  C   UNL     1     -11.273  11.893  63.662  1.00  0.00    -0.441 C  
HETATM   33  C   UNL     1     -11.985  13.240  63.776  1.00  0.00    -0.551 C  
HETATM   34  C   UNL     1     -12.602  13.464  65.143  1.00  0.00    -0.495 C  
HETATM   35  C   UNL     1     -11.633  14.029  66.170  1.00  0.00    -0.374 C  
HETATM   36  C   UNL     1     -10.200  13.513  66.097  1.00  0.00    -0.303 C  
HETATM   37  C   UNL     1     -10.056  12.015  65.811  1.00  0.00    -0.238 C  
ENDBRANCH  30  31
ENDBRANCH  29  30
ENDBRANCH  28  29
ENDBRANCH  26  28
ENDBRANCH  21  22
ENDBRANCH   5  21
TORSDOF 7
ENDMDL
MODEL       41
REMARK 921   NORMALIZED FREE ENERGY PREDICTED BY IDOCK:   -6.07 KCAL/MOL
REMARK 922        TOTAL FREE ENERGY PREDICTED BY IDOCK:  -11.62 KCAL/MOL
REMARK 923 INTER-LIGAND FREE ENERGY PREDICTED BY IDOCK:   -9.01 KCAL/MOL
REMARK 924 INTRA-LIGAND FREE ENERGY PREDICTED BY IDOCK:   -2.61 KCAL/MOL
REMARK 927      BINDING AFFINITY PREDICTED BY RF-SCORE:    0.00 PKD
ROOT
HETATM    1  C   UNL     1     -10.565   9.075  69.213  1.00  0.00    -0.226 C  
HETATM    2  C   UNL     1      -9.363   9.930  68.965  1.00  0.00    -0.175 A  
HETATM    3  C   UNL     1      -9.189  11.036  68.121  1.00  0.00    -0.165 A  
HETATM    4  C   UNL     1      -5.811  10.080  71.186  1.00  0.00    -0.045 A  
HETATM    5  N   UNL     1      -7.873  11.498  68.350  1.00  0.00    -0.130 NA 
HETATM    6  O   UNL     1      -6.127   8.020  72.260  1.00  0.00    -0.040 OA 
HETATM    7  C   UNL     1      -7.338  10.838  69.453  1.00  0.00    -0.128 A  
HETATM    8  C   UNL     1      -6.568   8.944  71.360  1.00  0.00    -0.081 A  
HETATM    9  C   UNL     1      -8.162   9.746  69.714  1.00  0.00    -0.182 A  
HETATM   10  H   UNL     1      -5.311   8.135  72.733  1.00  0.00     0.000 HD 
HETATM   11  C   UNL     1      -6.210  11.051  70.266  1.00  0.00    -0.139 A  
HETATM   12  C   UNL     1      -7.761   8.778  70.669  1.00  0.00    -0.096 A  
ENDROOT
BRANCH   3  13
HETATM   13  C   UNL     1     -10.169  11.638  67.169  1.00  0.00    -0.240 A  
HETATM   14  C   UNL     1     -12.114  12.632  65.371  1.00  0.00    -0.462 A  
HETATM   15  H   UNL     1     -13.136  12.680  63.617  1.00  0.00     0.000 HD 
HETATM   16  C   UNL     1     -10.283  11.147  65.857  1.00  0.00    -0.303 A  
HETATM   17  C   UNL     1     -11.267  11.610  64.977  1.00  0.00    -0.275 A  
HETATM   18  O   UNL     1     -13.055  13.061  64.484  1.00  0.00    -0.693 OA 
HETATM   19  C   UNL     1     -11.050  12.669  67.538  1.00  0.00    -0.313 A  
HETATM   20  C   UNL     1     -11.995  13.188  66.637  1.00  0.00    -0.451 A  
ENDBRANCH   3  13
BRANCH   5  21
HETATM   21  C   UNL     1      -7.193  12.525  67.516  1.00  0.00    -0.147 C  
BRANCH  21  22
HETATM   22  C   UNL     1      -7.612  13.963  67.703  1.00  0.00    -0.188 A  
HETATM   23  C   UNL     1      -7.943  15.855  69.170  1.00  0.00    -0.233 A  
HETATM   24  C   UNL     1      -8.833  15.937  66.947  1.00  0.00    -0.264 A  
HETATM   25  C   UNL     1      -7.409  14.592  68.931  1.00  0.00    -0.128 A  
HETATM   26  C   UNL     1      -8.752  16.486  68.218  1.00  0.00    -0.209 A  
HETATM   27  C   UNL     1      -8.190  14.729  66.679  1.00  0.00     0.092 A  
BRANCH  26  28
HETATM   28  O   UNL     1      -9.507  17.618  68.456  1.00  0.00    -0.281 OA 
BRANCH  28  29
HETATM   29  C   UNL     1     -10.599  17.363  69.344  1.00  0.00     0.006 C  
BRANCH  29  30
HETATM   30  C   UNL     1     -11.368  16.061  69.079  1.00  0.00    -0.363 C  
BRANCH  30  31
HETATM   31  N   UNL     1     -11.594  15.311  70.352  1.00  0.00    -0.282 NA 
HETATM   32  C   UNL     1     -11.678  16.230  71.500  1.00  0.00    -0.403 C  
HETATM   33  C   UNL     1     -11.892  15.628  72.887  1.00  0.00    -0.564 C  
HETATM   34  C   UNL     1     -13.297  15.094  73.085  1.00  0.00    -0.558 C  
HETATM   35  C   UNL     1     -13.493  13.675  72.575  1.00  0.00    -0.675 C  
HETATM   36  C   UNL     1     -12.755  13.315  71.290  1.00  0.00    -0.411 C  
HETATM   37  C   UNL     1     -12.740  14.405  70.213  1.00  0.00    -0.263 C  
ENDBRANCH  30  31
ENDBRANCH  29  30
ENDBRANCH  28  29
ENDBRANCH  26  28
ENDBRANCH  21  22
ENDBRANCH   5  21
TORSDOF 7
ENDMDL
MODEL       42
REMARK 921   NORMALIZED FREE ENERGY PREDICTED BY IDOCK:   -6.04 KCAL/MOL
REMARK 922        TOTAL FREE ENERGY PREDICTED BY IDOCK:  -11.57 KCAL/MOL
REMARK 923 INTER-LIGAND FREE ENERGY PREDICTED BY IDOCK:   -9.84 KCAL/MOL
REMARK 924 INTRA-LIGAND FREE ENERGY PREDICTED BY IDOCK:   -1.73 KCAL/MOL
REMARK 927      BINDING AFFINITY PREDICTED BY RF-SCORE:    0.00 PKD
ROOT
HETATM    1  C   UNL     1     -13.230   7.508  71.620  1.00  0.00    -0.404 C  
HETATM    2  C   UNL     1     -11.922   7.909  71.015  1.00  0.00    -0.268 A  
HETATM    3  C   UNL     1     -11.389   9.181  70.758  1.00  0.00    -0.280 A  
HETATM    4  C   UNL     1      -8.565   5.500  70.313  1.00  0.00    -0.126 A  
HETATM    5  N   UNL     1     -10.087   8.962  70.252  1.00  0.00    -0.181 NA 
HETATM    6  O   UNL     1      -9.714   3.462  70.454  1.00  0.00    -0.177 OA 
HETATM    7  C   UNL     1      -9.753   7.618  70.405  1.00  0.00    -0.179 A  
HETATM    8  C   UNL     1      -9.752   4.824  70.479  1.00  0.00    -0.211 A  
HETATM    9  C   UNL     1     -10.933   6.935  70.687  1.00  0.00    -0.304 A  
HETATM   10  H   UNL     1      -8.906   2.987  70.297  1.00  0.00     0.000 HD 
HETATM   11  C   UNL     1      -8.549   6.895  70.317  1.00  0.00    -0.140 A  
HETATM   12  C   UNL     1     -10.934   5.517  70.707  1.00  0.00    -0.193 A  
ENDROOT
BRANCH   3  13
HETATM   13  C   UNL     1     -12.027  10.513  70.968  1.00  0.00    -0.466 A  
HETATM   14  C   UNL     1     -13.157  13.049  71.518  1.00  0.00    -0.310 A  
HETATM   15  H   UNL     1     -14.323  14.353  72.548  1.00  0.00     0.000 HD 
HETATM   16  C   UNL     1     -12.994  10.690  71.973  1.00  0.00    -0.466 A  
HETATM   17  C   UNL     1     -13.528  11.949  72.273  1.00  0.00    -0.187 A  
HETATM   18  O   UNL     1     -13.703  14.256  71.835  1.00  0.00    -0.369 OA 
HETATM   19  C   UNL     1     -11.669  11.652  70.227  1.00  0.00    -0.355 A  
HETATM   20  C   UNL     1     -12.252  12.906  70.475  1.00  0.00    -0.395 A  
ENDBRANCH   3  13
BRANCH   5  21
HETATM   21  C   UNL     1      -9.237  10.024  69.651  1.00  0.00    -0.215 C  
BRANCH  21  22
HETATM   22  C   UNL     1      -9.345  10.243  68.162  1.00  0.00    -0.144 A  
HETATM   23  C   UNL     1      -9.156  11.725  66.262  1.00  0.00    -0.209 A  
HETATM   24  C   UNL     1     -10.225   9.600  65.977  1.00  0.00    -0.255 A  
HETATM   25  C   UNL     1      -8.905  11.442  67.602  1.00  0.00    -0.139 A  
HETATM   26  C   UNL     1      -9.914  10.854  65.472  1.00  0.00    -0.260 A  
HETATM   27  C   UNL     1      -9.859   9.276  67.283  1.00  0.00    -0.236 A  
BRANCH  26  28
HETATM   28  O   UNL     1     -10.406  11.158  64.217  1.00  0.00    -0.302 OA 
BRANCH  28  29
HETATM   29  C   UNL     1     -11.708  11.748  64.276  1.00  0.00    -0.245 C  
BRANCH  29  30
HETATM   30  C   UNL     1     -11.810  13.169  63.704  1.00  0.00    -0.488 C  
BRANCH  30  31
HETATM   31  N   UNL     1     -11.750  14.186  64.798  1.00  0.00    -0.388 NA 
HETATM   32  C   UNL     1     -12.133  13.595  66.091  1.00  0.00    -0.436 C  
HETATM   33  C   UNL     1     -12.141  14.502  67.321  1.00  0.00    -0.298 C  
HETATM   34  C   UNL     1     -10.746  14.870  67.788  1.00  0.00    -0.271 C  
HETATM   35  C   UNL     1     -10.150  16.065  67.063  1.00  0.00    -0.271 C  
HETATM   36  C   UNL     1     -10.468  16.178  65.577  1.00  0.00    -0.407 C  
HETATM   37  C   UNL     1     -10.445  14.857  64.798  1.00  0.00    -0.264 C  
ENDBRANCH  30  31
ENDBRANCH  29  30
ENDBRANCH  28  29
ENDBRANCH  26  28
ENDBRANCH  21  22
ENDBRANCH   5  21
TORSDOF 7
ENDMDL
MODEL       43
REMARK 921   NORMALIZED FREE ENERGY PREDICTED BY IDOCK:   -6.03 KCAL/MOL
REMARK 922        TOTAL FREE ENERGY PREDICTED BY IDOCK:  -11.57 KCAL/MOL
REMARK 923 INTER-LIGAND FREE ENERGY PREDICTED BY IDOCK:   -9.49 KCAL/MOL
REMARK 924 INTRA-LIGAND FREE ENERGY PREDICTED BY IDOCK:   -2.08 KCAL/MOL
REMARK 927      BINDING AFFINITY PREDICTED BY RF-SCORE:    0.00 PKD
ROOT
HETATM    1  C   UNL     1     -10.479   7.921  66.711  1.00  0.00    -0.317 C  
HETATM    2  C   UNL     1      -9.675   9.182  66.783  1.00  0.00    -0.271 A  
HETATM    3  C   UNL     1      -9.694  10.222  67.723  1.00  0.00    -0.156 A  
HETATM    4  C   UNL     1      -6.241  10.170  64.593  1.00  0.00    -0.130 A  
HETATM    5  N   UNL     1      -8.668  11.115  67.336  1.00  0.00    -0.132 NA 
HETATM    6  O   UNL     1      -6.569   8.565  62.917  1.00  0.00    -0.090 OA 
HETATM    7  C   UNL     1      -7.904  10.530  66.329  1.00  0.00    -0.141 A  
HETATM    8  C   UNL     1      -7.013   9.166  64.057  1.00  0.00    -0.089 A  
HETATM    9  C   UNL     1      -8.626   9.439  65.851  1.00  0.00    -0.155 A  
HETATM   10  H   UNL     1      -5.770   8.843  62.485  1.00  0.00     0.000 HD 
HETATM   11  C   UNL     1      -6.656  10.828  65.752  1.00  0.00    -0.061 A  
HETATM   12  C   UNL     1      -8.182   8.760  64.689  1.00  0.00    -0.166 A  
ENDROOT
BRANCH   3  13
HETATM   13  C   UNL     1     -10.589  10.386  68.906  1.00  0.00    -0.241 A  
HETATM   14  C   UNL     1     -12.408  10.613  71.062  1.00  0.00    -0.403 A  
HETATM   15  H   UNL     1     -14.109  11.252  71.967  1.00  0.00     0.000 HD 
HETATM   16  C   UNL     1     -11.730  11.203  68.828  1.00  0.00    -0.394 A  
HETATM   17  C   UNL     1     -12.652  11.289  69.879  1.00  0.00    -0.129 A  
HETATM   18  O   UNL     1     -13.323  10.726  72.064  1.00  0.00    -0.447 OA 
HETATM   19  C   UNL     1     -10.377   9.708  70.118  1.00  0.00    -0.315 A  
HETATM   20  C   UNL     1     -11.260   9.844  71.202  1.00  0.00    -0.404 A  
ENDBRANCH   3  13
BRANCH   5  21
HETATM   21  C   UNL     1      -8.469  12.464  67.929  1.00  0.00    -0.166 C  
BRANCH  21  22
HETATM   22  C   UNL     1      -8.824  13.658  67.079  1.00  0.00    -0.233 A  
HETATM   23  C   UNL     1      -8.439  15.966  66.476  1.00  0.00    -0.348 A  
HETATM   24  C   UNL     1     -10.408  14.866  65.667  1.00  0.00    -0.370 A  
HETATM   25  C   UNL     1      -8.030  14.803  67.120  1.00  0.00    -0.205 A  
HETATM   26  C   UNL     1      -9.683  16.037  65.839  1.00  0.00    -0.343 A  
HETATM   27  C   UNL     1      -9.928  13.676  66.210  1.00  0.00    -0.305 A  
BRANCH  26  28
HETATM   28  O   UNL     1     -10.268  17.203  65.383  1.00  0.00    -0.605 OA 
BRANCH  28  29
HETATM   29  C   UNL     1     -10.632  18.079  66.454  1.00  0.00    -0.250 C  
BRANCH  29  30
HETATM   30  C   UNL     1     -10.330  19.565  66.216  1.00  0.00    -0.506 C  
BRANCH  30  31
HETATM   31  N   UNL     1      -9.092  19.977  66.946  1.00  0.00    -0.344 NA 
HETATM   32  C   UNL     1      -8.928  19.201  68.188  1.00  0.00    -0.322 C  
HETATM   33  C   UNL     1      -7.717  19.505  69.069  1.00  0.00    -0.332 C  
HETATM   34  C   UNL     1      -6.415  19.010  68.469  1.00  0.00    -0.266 C  
HETATM   35  C   UNL     1      -5.785  19.979  67.482  1.00  0.00    -0.197 C  
HETATM   36  C   UNL     1      -6.749  20.748  66.585  1.00  0.00    -0.339 C  
HETATM   37  C   UNL     1      -7.933  19.937  66.047  1.00  0.00    -0.314 C  
ENDBRANCH  30  31
ENDBRANCH  29  30
ENDBRANCH  28  29
ENDBRANCH  26  28
ENDBRANCH  21  22
ENDBRANCH   5  21
TORSDOF 7
ENDMDL
MODEL       44
REMARK 921   NORMALIZED FREE ENERGY PREDICTED BY IDOCK:   -5.99 KCAL/MOL
REMARK 922        TOTAL FREE ENERGY PREDICTED BY IDOCK:  -11.51 KCAL/MOL
REMARK 923 INTER-LIGAND FREE ENERGY PREDICTED BY IDOCK:   -9.45 KCAL/MOL
REMARK 924 INTRA-LIGAND FREE ENERGY PREDICTED BY IDOCK:   -2.05 KCAL/MOL
REMARK 927      BINDING AFFINITY PREDICTED BY RF-SCORE:    0.00 PKD
ROOT
HETATM    1  C   UNL     1     -12.227  12.847  68.651  1.00  0.00    -0.003 C  
HETATM    2  C   UNL     1     -11.332  12.060  67.746  1.00  0.00    -0.370 A  
HETATM    3  C   UNL     1     -10.487  10.975  68.018  1.00  0.00    -0.189 A  
HETATM    4  C   UNL     1     -11.260  12.074  63.555  1.00  0.00    -0.526 A  
HETATM    5  N   UNL     1      -9.946  10.581  66.772  1.00  0.00    -0.196 NA 
HETATM    6  O   UNL     1     -12.413  14.101  63.314  1.00  0.00    -1.146 OA 
HETATM    7  C   UNL     1     -10.607  11.256  65.749  1.00  0.00    -0.248 A  
HETATM    8  C   UNL     1     -11.861  13.165  64.138  1.00  0.00    -0.429 A  
HETATM    9  C   UNL     1     -11.315  12.299  66.339  1.00  0.00    -0.405 A  
HETATM   10  H   UNL     1     -12.361  14.025  62.368  1.00  0.00     0.000 HD 
HETATM   11  C   UNL     1     -10.668  11.094  64.352  1.00  0.00    -0.388 A  
HETATM   12  C   UNL     1     -11.936  13.276  65.521  1.00  0.00    -0.445 A  
ENDROOT
BRANCH   3  13
HETATM   13  C   UNL     1     -10.197  10.333  69.333  1.00  0.00    -0.255 A  
HETATM   14  C   UNL     1      -9.732   8.975  71.772  1.00  0.00    -0.241 A  
HETATM   15  H   UNL     1     -10.287   8.087  73.512  1.00  0.00     0.000 HD 
HETATM   16  C   UNL     1     -11.239  10.055  70.235  1.00  0.00    -0.379 A  
HETATM   17  C   UNL     1     -11.019   9.352  71.426  1.00  0.00    -0.443 A  
HETATM   18  O   UNL     1      -9.557   8.298  72.941  1.00  0.00    -0.270 OA 
HETATM   19  C   UNL     1      -8.906   9.929  69.714  1.00  0.00    -0.229 A  
HETATM   20  C   UNL     1      -8.666   9.285  70.939  1.00  0.00    -0.234 A  
ENDBRANCH   3  13
BRANCH   5  21
HETATM   21  C   UNL     1      -8.837   9.602  66.617  1.00  0.00    -0.138 C  
BRANCH  21  22
HETATM   22  C   UNL     1      -9.210   8.167  66.336  1.00  0.00    -0.250 A  
HETATM   23  C   UNL     1     -10.601   6.250  66.818  1.00  0.00    -0.335 A  
HETATM   24  C   UNL     1      -8.652   5.959  65.455  1.00  0.00    -0.150 A  
HETATM   25  C   UNL     1     -10.343   7.613  66.931  1.00  0.00    -0.388 A  
HETATM   26  C   UNL     1      -9.698   5.397  66.174  1.00  0.00    -0.145 A  
HETATM   27  C   UNL     1      -8.473   7.341  65.472  1.00  0.00    -0.119 A  
BRANCH  26  28
HETATM   28  O   UNL     1      -9.752   4.018  66.217  1.00  0.00    -0.195 OA 
BRANCH  28  29
HETATM   29  C   UNL     1      -9.658   3.515  67.553  1.00  0.00    -0.127 C  
BRANCH  29  30
HETATM   30  C   UNL     1      -8.327   3.793  68.266  1.00  0.00    -0.090 C  
BRANCH  30  31
HETATM   31  N   UNL     1      -8.552   4.574  69.520  1.00  0.00    -0.080 NA 
HETATM   32  C   UNL     1      -9.987   4.656  69.842  1.00  0.00    -0.226 C  
HETATM   33  C   UNL     1     -10.398   5.436  71.090  1.00  0.00    -0.304 C  
HETATM   34  C   UNL     1     -10.049   4.713  72.376  1.00  0.00    -0.239 C  
HETATM   35  C   UNL     1      -8.623   4.952  72.848  1.00  0.00    -0.118 C  
HETATM   36  C   UNL     1      -7.561   5.046  71.758  1.00  0.00    -0.104 C  
HETATM   37  C   UNL     1      -7.714   4.049  70.604  1.00  0.00    -0.048 C  
ENDBRANCH  30  31
ENDBRANCH  29  30
ENDBRANCH  28  29
ENDBRANCH  26  28
ENDBRANCH  21  22
ENDBRANCH   5  21
TORSDOF 7
ENDMDL
MODEL       45
REMARK 921   NORMALIZED FREE ENERGY PREDICTED BY IDOCK:   -5.94 KCAL/MOL
REMARK 922        TOTAL FREE ENERGY PREDICTED BY IDOCK:  -11.44 KCAL/MOL
REMARK 923 INTER-LIGAND FREE ENERGY PREDICTED BY IDOCK:   -9.42 KCAL/MOL
REMARK 924 INTRA-LIGAND FREE ENERGY PREDICTED BY IDOCK:   -2.02 KCAL/MOL
REMARK 927      BINDING AFFINITY PREDICTED BY RF-SCORE:    0.00 PKD
ROOT
HETATM    1  C   UNL     1      -6.473  16.101  67.011  1.00  0.00    -0.109 C  
HETATM    2  C   UNL     1      -7.967  16.014  67.054  1.00  0.00    -0.262 A  
HETATM    3  C   UNL     1      -8.810  14.910  67.248  1.00  0.00    -0.201 A  
HETATM    4  C   UNL     1     -10.720  19.160  67.348  1.00  0.00    -0.578 A  
HETATM    5  N   UNL     1     -10.126  15.425  67.273  1.00  0.00    -0.236 NA 
HETATM    6  O   UNL     1      -9.226  20.835  66.674  1.00  0.00    -0.606 OA 
HETATM    7  C   UNL     1     -10.075  16.817  67.316  1.00  0.00    -0.281 A  
HETATM    8  C   UNL     1      -9.465  19.514  66.912  1.00  0.00    -0.344 A  
HETATM    9  C   UNL     1      -8.775  17.188  66.987  1.00  0.00    -0.244 A  
HETATM   10  H   UNL     1      -9.906  21.491  66.774  1.00  0.00     0.000 HD 
HETATM   11  C   UNL     1     -11.022  17.820  67.594  1.00  0.00    -0.100 A  
HETATM   12  C   UNL     1      -8.471  18.555  66.765  1.00  0.00    -0.290 A  
ENDROOT
BRANCH   3  13
HETATM   13  C   UNL     1      -8.435  13.475  67.409  1.00  0.00    -0.203 A  
HETATM   14  C   UNL     1      -7.599  10.778  67.598  1.00  0.00    -0.096 A  
HETATM   15  H   UNL     1      -7.287   8.900  66.890  1.00  0.00     0.000 HD 
HETATM   16  C   UNL     1      -8.623  12.566  66.353  1.00  0.00     0.115 A  
HETATM   17  C   UNL     1      -8.178  11.241  66.429  1.00  0.00    -0.150 A  
HETATM   18  O   UNL     1      -7.185   9.481  67.636  1.00  0.00    -0.081 OA 
HETATM   19  C   UNL     1      -7.837  12.972  68.577  1.00  0.00    -0.105 A  
HETATM   20  C   UNL     1      -7.450  11.626  68.686  1.00  0.00    -0.117 A  
ENDBRANCH   3  13
BRANCH   5  21
HETATM   21  C   UNL     1     -11.352  14.583  67.247  1.00  0.00    -0.350 C  
BRANCH  21  22
HETATM   22  C   UNL     1     -11.569  13.634  68.400  1.00  0.00    -0.377 A  
HETATM   23  C   UNL     1     -12.002  11.392  69.191  1.00  0.00    -0.395 A  
HETATM   24  C   UNL     1     -12.184  13.222  70.727  1.00  0.00    -0.390 A  
HETATM   25  C   UNL     1     -11.633  12.261  68.168  1.00  0.00    -0.396 A  
HETATM   26  C   UNL     1     -12.388  11.879  70.445  1.00  0.00    -0.251 A  
HETATM   27  C   UNL     1     -11.694  14.065  69.731  1.00  0.00    -0.375 A  
BRANCH  26  28
HETATM   28  O   UNL     1     -12.987  11.120  71.432  1.00  0.00    -0.408 OA 
BRANCH  28  29
HETATM   29  C   UNL     1     -12.234   9.943  71.740  1.00  0.00    -0.341 C  
BRANCH  29  30
HETATM   30  C   UNL     1     -12.998   8.620  71.592  1.00  0.00    -0.344 C  
BRANCH  30  31
HETATM   31  N   UNL     1     -12.095   7.456  71.848  1.00  0.00    -0.298 NA 
HETATM   32  C   UNL     1     -11.710   6.798  70.588  1.00  0.00    -0.386 C  
HETATM   33  C   UNL     1     -10.798   5.575  70.666  1.00  0.00    -0.257 C  
HETATM   34  C   UNL     1      -9.370   5.931  71.032  1.00  0.00    -0.178 C  
HETATM   35  C   UNL     1      -9.130   6.052  72.529  1.00  0.00    -0.135 C  
HETATM   36  C   UNL     1     -10.262   6.669  73.343  1.00  0.00    -0.275 C  
HETATM   37  C   UNL     1     -10.964   7.865  72.690  1.00  0.00    -0.378 C  
ENDBRANCH  30  31
ENDBRANCH  29  30
ENDBRANCH  28  29
ENDBRANCH  26  28
ENDBRANCH  21  22
ENDBRANCH   5  21
TORSDOF 7
ENDMDL
MODEL       46
REMARK 921   NORMALIZED FREE ENERGY PREDICTED BY IDOCK:   -5.93 KCAL/MOL
REMARK 922        TOTAL FREE ENERGY PREDICTED BY IDOCK:  -11.42 KCAL/MOL
REMARK 923 INTER-LIGAND FREE ENERGY PREDICTED BY IDOCK:   -8.93 KCAL/MOL
REMARK 924 INTRA-LIGAND FREE ENERGY PREDICTED BY IDOCK:   -2.49 KCAL/MOL
REMARK 927      BINDING AFFINITY PREDICTED BY RF-SCORE:    0.00 PKD
ROOT
HETATM    1  C   UNL     1     -10.657   6.958  73.790  1.00  0.00    -0.333 C  
HETATM    2  C   UNL     1     -10.717   6.457  72.381  1.00  0.00    -0.255 A  
HETATM    3  C   UNL     1     -11.020   7.128  71.188  1.00  0.00    -0.248 A  
HETATM    4  C   UNL     1      -9.297   2.808  70.885  1.00  0.00    -0.219 A  
HETATM    5  N   UNL     1     -10.846   6.180  70.153  1.00  0.00    -0.297 NA 
HETATM    6  O   UNL     1      -9.174   1.740  72.968  1.00  0.00    -0.068 OA 
HETATM    7  C   UNL     1     -10.243   5.037  70.672  1.00  0.00    -0.235 A  
HETATM    8  C   UNL     1      -9.499   2.849  72.245  1.00  0.00    -0.119 A  
HETATM    9  C   UNL     1     -10.339   5.119  72.059  1.00  0.00    -0.274 A  
HETATM   10  H   UNL     1      -8.847   0.951  72.552  1.00  0.00     0.000 HD 
HETATM   11  C   UNL     1      -9.626   3.911  70.096  1.00  0.00    -0.267 A  
HETATM   12  C   UNL     1      -9.978   4.002  72.854  1.00  0.00    -0.203 A  
ENDROOT
BRANCH   3  13
HETATM   13  C   UNL     1     -11.436   8.549  71.003  1.00  0.00    -0.313 A  
HETATM   14  C   UNL     1     -12.200  11.268  70.823  1.00  0.00    -0.380 A  
HETATM   15  H   UNL     1     -13.384  12.870  71.212  1.00  0.00     0.000 HD 
HETATM   16  C   UNL     1     -12.635   9.020  71.567  1.00  0.00    -0.400 A  
HETATM   17  C   UNL     1     -12.998  10.371  71.511  1.00  0.00    -0.562 A  
HETATM   18  O   UNL     1     -12.589  12.572  70.785  1.00  0.00    -0.304 OA 
HETATM   19  C   UNL     1     -10.647   9.489  70.319  1.00  0.00    -0.317 A  
HETATM   20  C   UNL     1     -11.039  10.832  70.199  1.00  0.00    -0.298 A  
ENDBRANCH   3  13
BRANCH   5  21
HETATM   21  C   UNL     1     -11.261   6.400  68.742  1.00  0.00    -0.274 C  
BRANCH  21  22
HETATM   22  C   UNL     1     -10.279   7.088  67.826  1.00  0.00    -0.227 A  
HETATM   23  C   UNL     1      -7.989   7.557  67.214  1.00  0.00    -0.118 A  
HETATM   24  C   UNL     1      -9.746   8.839  66.211  1.00  0.00    -0.342 A  
HETATM   25  C   UNL     1      -8.917   6.807  67.930  1.00  0.00    -0.113 A  
HETATM   26  C   UNL     1      -8.390   8.648  66.436  1.00  0.00    -0.113 A  
HETATM   27  C   UNL     1     -10.670   8.003  66.836  1.00  0.00    -0.201 A  
BRANCH  26  28
HETATM   28  O   UNL     1      -7.531   9.580  65.887  1.00  0.00    -0.097 OA 
BRANCH  28  29
HETATM   29  C   UNL     1      -8.097  10.894  65.872  1.00  0.00    -0.120 C  
BRANCH  29  30
HETATM   30  C   UNL     1      -7.911  11.703  67.163  1.00  0.00    -0.163 C  
BRANCH  30  31
HETATM   31  N   UNL     1      -9.181  12.392  67.544  1.00  0.00    -0.177 NA 
HETATM   32  C   UNL     1      -8.917  13.754  68.038  1.00  0.00    -0.187 C  
HETATM   33  C   UNL     1     -10.109  14.599  68.487  1.00  0.00    -0.238 C  
HETATM   34  C   UNL     1     -10.960  15.077  67.327  1.00  0.00    -0.326 C  
HETATM   35  C   UNL     1     -12.004  14.068  66.874  1.00  0.00    -0.479 C  
HETATM   36  C   UNL     1     -11.582  12.603  66.907  1.00  0.00    -0.438 C  
HETATM   37  C   UNL     1     -10.149  12.322  66.443  1.00  0.00    -0.226 C  
ENDBRANCH  30  31
ENDBRANCH  29  30
ENDBRANCH  28  29
ENDBRANCH  26  28
ENDBRANCH  21  22
ENDBRANCH   5  21
TORSDOF 7
ENDMDL
MODEL       47
REMARK 921   NORMALIZED FREE ENERGY PREDICTED BY IDOCK:   -5.93 KCAL/MOL
REMARK 922        TOTAL FREE ENERGY PREDICTED BY IDOCK:  -11.42 KCAL/MOL
REMARK 923 INTER-LIGAND FREE ENERGY PREDICTED BY IDOCK:   -9.38 KCAL/MOL
REMARK 924 INTRA-LIGAND FREE ENERGY PREDICTED BY IDOCK:   -2.04 KCAL/MOL
REMARK 927      BINDING AFFINITY PREDICTED BY RF-SCORE:    0.00 PKD
ROOT
HETATM    1  C   UNL     1      -6.782   8.560  71.071  1.00  0.00    -0.054 C  
HETATM    2  C   UNL     1      -8.054   8.421  70.295  1.00  0.00    -0.104 A  
HETATM    3  C   UNL     1      -8.344   8.727  68.958  1.00  0.00    -0.129 A  
HETATM    4  C   UNL     1     -11.511   6.312  71.379  1.00  0.00    -0.352 A  
HETATM    5  N   UNL     1      -9.680   8.317  68.745  1.00  0.00    -0.154 NA 
HETATM    6  O   UNL     1     -10.999   6.194  73.664  1.00  0.00    -0.430 OA 
HETATM    7  C   UNL     1     -10.118   7.584  69.846  1.00  0.00    -0.193 A  
HETATM    8  C   UNL     1     -10.665   6.632  72.417  1.00  0.00    -0.223 A  
HETATM    9  C   UNL     1      -9.206   7.807  70.873  1.00  0.00    -0.155 A  
HETATM   10  H   UNL     1     -11.801   5.710  73.825  1.00  0.00     0.000 HD 
HETATM   11  C   UNL     1     -11.224   6.747  70.085  1.00  0.00    -0.387 A  
HETATM   12  C   UNL     1      -9.493   7.339  72.180  1.00  0.00    -0.157 A  
ENDROOT
BRANCH   3  13
HETATM   13  C   UNL     1      -7.453   9.350  67.936  1.00  0.00    -0.084 A  
HETATM   14  C   UNL     1      -5.884  10.500  65.880  1.00  0.00    -0.120 A  
HETATM   15  H   UNL     1      -4.822  10.472  64.150  1.00  0.00     0.000 HD 
HETATM   16  C   UNL     1      -6.895   8.571  66.907  1.00  0.00    -0.069 A  
HETATM   17  C   UNL     1      -6.150   9.141  65.868  1.00  0.00    -0.052 A  
HETATM   18  O   UNL     1      -5.150  11.017  64.856  1.00  0.00    -0.231 OA 
HETATM   19  C   UNL     1      -7.170  10.726  67.912  1.00  0.00    -0.087 A  
HETATM   20  C   UNL     1      -6.364  11.295  66.911  1.00  0.00    -0.125 A  
ENDBRANCH   3  13
BRANCH   5  21
HETATM   21  C   UNL     1     -10.468   8.643  67.527  1.00  0.00    -0.266 C  
BRANCH  21  22
HETATM   22  C   UNL     1     -10.737  10.100  67.240  1.00  0.00    -0.316 A  
HETATM   23  C   UNL     1     -10.306  12.067  65.904  1.00  0.00    -0.278 A  
HETATM   24  C   UNL     1     -11.517  12.299  67.958  1.00  0.00    -0.378 A  
HETATM   25  C   UNL     1     -10.211  10.691  66.092  1.00  0.00    -0.308 A  
HETATM   26  C   UNL     1     -10.861  12.892  66.889  1.00  0.00    -0.257 A  
HETATM   27  C   UNL     1     -11.524  10.910  68.074  1.00  0.00    -0.356 A  
BRANCH  26  28
HETATM   28  O   UNL     1     -10.785  14.271  66.892  1.00  0.00    -0.285 OA 
BRANCH  28  29
HETATM   29  C   UNL     1     -11.547  14.851  67.955  1.00  0.00    -0.344 C  
BRANCH  29  30
HETATM   30  C   UNL     1     -10.723  15.438  69.109  1.00  0.00    -0.246 C  
BRANCH  30  31
HETATM   31  N   UNL     1     -11.330  15.085  70.427  1.00  0.00    -0.266 NA 
HETATM   32  C   UNL     1     -11.487  16.279  71.275  1.00  0.00    -0.311 C  
HETATM   33  C   UNL     1     -12.082  16.096  72.670  1.00  0.00    -0.652 C  
HETATM   34  C   UNL     1     -13.569  15.800  72.641  1.00  0.00    -0.630 C  
HETATM   35  C   UNL     1     -13.899  14.330  72.442  1.00  0.00    -0.619 C  
HETATM   36  C   UNL     1     -12.988  13.558  71.494  1.00  0.00    -0.440 C  
HETATM   37  C   UNL     1     -12.564  14.314  70.230  1.00  0.00    -0.319 C  
ENDBRANCH  30  31
ENDBRANCH  29  30
ENDBRANCH  28  29
ENDBRANCH  26  28
ENDBRANCH  21  22
ENDBRANCH   5  21
TORSDOF 7
ENDMDL
MODEL       48
REMARK 921   NORMALIZED FREE ENERGY PREDICTED BY IDOCK:   -5.93 KCAL/MOL
REMARK 922        TOTAL FREE ENERGY PREDICTED BY IDOCK:  -11.42 KCAL/MOL
REMARK 923 INTER-LIGAND FREE ENERGY PREDICTED BY IDOCK:  -10.70 KCAL/MOL
REMARK 924 INTRA-LIGAND FREE ENERGY PREDICTED BY IDOCK:   -0.71 KCAL/MOL
REMARK 927      BINDING AFFINITY PREDICTED BY RF-SCORE:    0.00 PKD
ROOT
HETATM    1  C   UNL     1     -13.393   9.155  72.006  1.00  0.00    -0.507 C  
HETATM    2  C   UNL     1     -12.325   9.555  71.036  1.00  0.00    -0.363 A  
HETATM    3  C   UNL     1     -11.872  10.825  70.653  1.00  0.00    -0.360 A  
HETATM    4  C   UNL     1      -9.395   7.120  69.290  1.00  0.00    -0.146 A  
HETATM    5  N   UNL     1     -10.792  10.602  69.767  1.00  0.00    -0.269 NA 
HETATM    6  O   UNL     1     -10.486   5.094  69.736  1.00  0.00    -0.285 OA 
HETATM    7  C   UNL     1     -10.455   9.251  69.784  1.00  0.00    -0.222 A  
HETATM    8  C   UNL     1     -10.487   6.456  69.799  1.00  0.00    -0.215 A  
HETATM    9  C   UNL     1     -11.504   8.576  70.401  1.00  0.00    -0.135 A  
HETATM   10  H   UNL     1      -9.774   4.614  69.330  1.00  0.00     0.000 HD 
HETATM   11  C   UNL     1      -9.351   8.515  69.316  1.00  0.00    -0.154 A  
HETATM   12  C   UNL     1     -11.527   7.158  70.393  1.00  0.00    -0.317 A  
ENDROOT
BRANCH   3  13
HETATM   13  C   UNL     1     -12.388  12.160  71.075  1.00  0.00    -0.331 A  
HETATM   14  C   UNL     1     -13.310  14.657  72.035  1.00  0.00    -0.365 A  
HETATM   15  H   UNL     1     -14.474  15.868  73.176  1.00  0.00     0.000 HD 
HETATM   16  C   UNL     1     -13.473  12.256  71.963  1.00  0.00    -0.418 A  
HETATM   17  C   UNL     1     -13.909  13.487  72.469  1.00  0.00    -0.624 A  
HETATM   18  O   UNL     1     -13.766  15.836  72.544  1.00  0.00    -0.528 OA 
HETATM   19  C   UNL     1     -11.800  13.367  70.662  1.00  0.00    -0.163 A  
HETATM   20  C   UNL     1     -12.276  14.611  71.110  1.00  0.00    -0.405 A  
ENDBRANCH   3  13
BRANCH   5  21
HETATM   21  C   UNL     1     -10.147  11.668  68.955  1.00  0.00    -0.092 C  
BRANCH  21  22
HETATM   22  C   UNL     1     -10.835  12.083  67.677  1.00  0.00    -0.273 A  
HETATM   23  C   UNL     1     -10.822  12.230  65.266  1.00  0.00    -0.332 A  
HETATM   24  C   UNL     1     -12.481  13.444  66.495  1.00  0.00    -0.255 A  
HETATM   25  C   UNL     1     -10.297  11.712  66.446  1.00  0.00    -0.266 A  
HETATM   26  C   UNL     1     -11.844  13.185  65.290  1.00  0.00    -0.365 A  
HETATM   27  C   UNL     1     -12.027  12.824  67.658  1.00  0.00    -0.331 A  
BRANCH  26  28
HETATM   28  O   UNL     1     -12.260  13.919  64.196  1.00  0.00    -0.540 OA 
BRANCH  28  29
HETATM   29  C   UNL     1     -12.266  15.324  64.460  1.00  0.00    -0.194 C  
BRANCH  29  30
HETATM   30  C   UNL     1     -10.883  15.959  64.661  1.00  0.00    -0.211 C  
BRANCH  30  31
HETATM   31  N   UNL     1     -10.774  16.571  66.021  1.00  0.00    -0.235 NA 
HETATM   32  C   UNL     1      -9.827  15.821  66.864  1.00  0.00    -0.236 C  
HETATM   33  C   UNL     1      -9.606  16.302  68.297  1.00  0.00    -0.218 C  
HETATM   34  C   UNL     1      -8.805  17.588  68.368  1.00  0.00    -0.276 C  
HETATM   35  C   UNL     1      -9.645  18.845  68.207  1.00  0.00    -0.401 C  
HETATM   36  C   UNL     1     -10.795  18.762  67.209  1.00  0.00    -0.408 C  
HETATM   37  C   UNL     1     -10.487  18.006  65.912  1.00  0.00    -0.264 C  
ENDBRANCH  30  31
ENDBRANCH  29  30
ENDBRANCH  28  29
ENDBRANCH  26  28
ENDBRANCH  21  22
ENDBRANCH   5  21
TORSDOF 7
ENDMDL
MODEL       49
REMARK 921   NORMALIZED FREE ENERGY PREDICTED BY IDOCK:   -5.91 KCAL/MOL
REMARK 922        TOTAL FREE ENERGY PREDICTED BY IDOCK:  -11.39 KCAL/MOL
REMARK 923 INTER-LIGAND FREE ENERGY PREDICTED BY IDOCK:   -8.54 KCAL/MOL
REMARK 924 INTRA-LIGAND FREE ENERGY PREDICTED BY IDOCK:   -2.85 KCAL/MOL
REMARK 927      BINDING AFFINITY PREDICTED BY RF-SCORE:    0.00 PKD
ROOT
HETATM    1  C   UNL     1      -7.574  14.510  67.110  1.00  0.00    -0.045 C  
HETATM    2  C   UNL     1      -8.887  14.054  67.663  1.00  0.00    -0.190 A  
HETATM    3  C   UNL     1      -9.463  12.776  67.704  1.00  0.00    -0.190 A  
HETATM    4  C   UNL     1     -11.501  16.170  70.165  1.00  0.00    -0.309 A  
HETATM    5  N   UNL     1     -10.678  12.919  68.414  1.00  0.00    -0.248 NA 
HETATM    6  O   UNL     1     -10.597  18.283  69.703  1.00  0.00    -0.193 OA 
HETATM    7  C   UNL     1     -10.734  14.192  68.979  1.00  0.00    -0.231 A  
HETATM    8  C   UNL     1     -10.594  16.939  69.473  1.00  0.00    -0.239 A  
HETATM    9  C   UNL     1      -9.742  14.953  68.367  1.00  0.00    -0.209 A  
HETATM   10  H   UNL     1     -11.220  18.686  70.297  1.00  0.00     0.000 HD 
HETATM   11  C   UNL     1     -11.549  14.791  69.956  1.00  0.00    -0.332 A  
HETATM   12  C   UNL     1      -9.684  16.350  68.605  1.00  0.00    -0.239 A  
ENDROOT
BRANCH   3  13
HETATM   13  C   UNL     1      -8.934  11.502  67.137  1.00  0.00    -0.166 A  
HETATM   14  C   UNL     1      -7.861   9.176  65.932  1.00  0.00    -0.105 A  
HETATM   15  H   UNL     1      -7.687   7.785  64.463  1.00  0.00     0.000 HD 
HETATM   16  C   UNL     1      -9.438  10.996  65.926  1.00  0.00    -0.244 A  
HETATM   17  C   UNL     1      -8.886   9.868  65.308  1.00  0.00    -0.210 A  
HETATM   18  O   UNL     1      -7.355   8.079  65.304  1.00  0.00    -0.066 OA 
HETATM   19  C   UNL     1      -7.889  10.779  67.738  1.00  0.00    -0.109 A  
HETATM   20  C   UNL     1      -7.376   9.606  67.160  1.00  0.00    -0.087 A  
ENDBRANCH   3  13
BRANCH   5  21
HETATM   21  C   UNL     1     -11.715  11.859  68.514  1.00  0.00    -0.330 C  
BRANCH  21  22
HETATM   22  C   UNL     1     -11.714  10.998  69.754  1.00  0.00    -0.410 A  
HETATM   23  C   UNL     1     -10.668   9.271  71.081  1.00  0.00    -0.403 A  
HETATM   24  C   UNL     1     -12.892   9.972  71.630  1.00  0.00    -0.543 A  
HETATM   25  C   UNL     1     -10.612  10.194  70.041  1.00  0.00    -0.338 A  
HETATM   26  C   UNL     1     -11.846   9.078  71.810  1.00  0.00    -0.372 A  
HETATM   27  C   UNL     1     -12.779  10.975  70.668  1.00  0.00    -0.375 A  
BRANCH  26  28
HETATM   28  O   UNL     1     -12.063   8.036  72.691  1.00  0.00    -0.328 OA 
BRANCH  28  29
HETATM   29  C   UNL     1     -12.362   6.811  72.015  1.00  0.00    -0.271 C  
BRANCH  29  30
HETATM   30  C   UNL     1     -11.287   5.720  72.130  1.00  0.00    -0.258 C  
BRANCH  30  31
HETATM   31  N   UNL     1     -10.585   5.529  70.824  1.00  0.00    -0.261 NA 
HETATM   32  C   UNL     1     -11.365   6.105  69.715  1.00  0.00    -0.382 C  
HETATM   33  C   UNL     1     -10.799   5.985  68.301  1.00  0.00    -0.366 C  
HETATM   34  C   UNL     1      -9.607   6.892  68.067  1.00  0.00    -0.125 C  
HETATM   35  C   UNL     1      -8.282   6.296  68.515  1.00  0.00    -0.112 C  
HETATM   36  C   UNL     1      -8.318   5.462  69.791  1.00  0.00    -0.100 C  
HETATM   37  C   UNL     1      -9.204   6.015  70.913  1.00  0.00    -0.154 C  
ENDBRANCH  30  31
ENDBRANCH  29  30
ENDBRANCH  28  29
ENDBRANCH  26  28
ENDBRANCH  21  22
ENDBRANCH   5  21
TORSDOF 7
ENDMDL
MODEL       50
REMARK 921   NORMALIZED FREE ENERGY PREDICTED BY IDOCK:   -5.91 KCAL/MOL
REMARK 922        TOTAL FREE ENERGY PREDICTED BY IDOCK:  -11.39 KCAL/MOL
REMARK 923 INTER-LIGAND FREE ENERGY PREDICTED BY IDOCK:   -9.65 KCAL/MOL
REMARK 924 INTRA-LIGAND FREE ENERGY PREDICTED BY IDOCK:   -1.74 KCAL/MOL
REMARK 927      BINDING AFFINITY PREDICTED BY RF-SCORE:    0.00 PKD
ROOT
HETATM    1  C   UNL     1      -8.080   9.505  68.959  1.00  0.00    -0.101 C  
HETATM    2  C   UNL     1      -9.402   9.954  69.496  1.00  0.00    -0.236 A  
HETATM    3  C   UNL     1     -10.351  10.837  68.961  1.00  0.00    -0.215 A  
HETATM    4  C   UNL     1     -11.575   8.312  72.683  1.00  0.00    -0.419 A  
HETATM    5  N   UNL     1     -11.444  10.824  69.858  1.00  0.00    -0.294 NA 
HETATM    6  O   UNL     1      -9.763   7.160  73.624  1.00  0.00    -0.214 OA 
HETATM    7  C   UNL     1     -11.265   9.803  70.788  1.00  0.00    -0.348 A  
HETATM    8  C   UNL     1     -10.235   8.000  72.659  1.00  0.00    -0.316 A  
HETATM    9  C   UNL     1      -9.937   9.396  70.696  1.00  0.00    -0.349 A  
HETATM   10  H   UNL     1     -10.327   6.821  74.310  1.00  0.00     0.000 HD 
HETATM   11  C   UNL     1     -12.107   9.178  71.727  1.00  0.00    -0.446 A  
HETATM   12  C   UNL     1      -9.412   8.495  71.656  1.00  0.00    -0.316 A  
ENDROOT
BRANCH   3  13
HETATM   13  C   UNL     1     -10.267  11.638  67.705  1.00  0.00    -0.206 A  
HETATM   14  C   UNL     1     -10.260  13.225  65.362  1.00  0.00    -0.293 A  
HETATM   15  H   UNL     1     -10.949  13.820  63.547  1.00  0.00     0.000 HD 
HETATM   16  C   UNL     1     -11.153  11.392  66.642  1.00  0.00    -0.333 A  
HETATM   17  C   UNL     1     -11.177  12.197  65.497  1.00  0.00    -0.381 A  
HETATM   18  O   UNL     1     -10.310  13.983  64.231  1.00  0.00    -0.253 OA 
HETATM   19  C   UNL     1      -9.355  12.694  67.537  1.00  0.00    -0.188 A  
HETATM   20  C   UNL     1      -9.327  13.463  66.362  1.00  0.00    -0.185 A  
ENDBRANCH   3  13
BRANCH   5  21
HETATM   21  C   UNL     1     -12.587  11.773  69.793  1.00  0.00     0.157 C  
BRANCH  21  22
HETATM   22  C   UNL     1     -12.272  13.248  69.852  1.00  0.00    -0.313 A  
HETATM   23  C   UNL     1     -11.801  15.319  68.699  1.00  0.00    -0.329 A  
HETATM   24  C   UNL     1     -11.436  15.196  71.063  1.00  0.00    -0.372 A  
HETATM   25  C   UNL     1     -12.256  14.003  68.680  1.00  0.00    -0.218 A  
HETATM   26  C   UNL     1     -11.285  15.886  69.869  1.00  0.00    -0.348 A  
HETATM   27  C   UNL     1     -12.008  13.924  71.054  1.00  0.00    -0.262 A  
BRANCH  26  28
HETATM   28  O   UNL     1     -10.604  17.086  69.926  1.00  0.00    -0.182 OA 
BRANCH  28  29
HETATM   29  C   UNL     1     -10.288  17.590  68.626  1.00  0.00    -0.369 C  
BRANCH  29  30
HETATM   30  C   UNL     1     -10.191  19.119  68.521  1.00  0.00    -0.367 C  
BRANCH  30  31
HETATM   31  N   UNL     1      -8.881  19.526  67.927  1.00  0.00    -0.316 NA 
HETATM   32  C   UNL     1      -7.759  19.122  68.793  1.00  0.00    -0.355 C  
HETATM   33  C   UNL     1      -6.342  19.475  68.343  1.00  0.00    -0.277 C  
HETATM   34  C   UNL     1      -5.872  18.635  67.172  1.00  0.00    -0.158 C  
HETATM   35  C   UNL     1      -6.303  19.173  65.817  1.00  0.00    -0.260 C  
HETATM   36  C   UNL     1      -7.695  19.792  65.751  1.00  0.00    -0.268 C  
HETATM   37  C   UNL     1      -8.780  19.054  66.542  1.00  0.00    -0.322 C  
ENDBRANCH  30  31
ENDBRANCH  29  30
ENDBRANCH  28  29
ENDBRANCH  26  28
ENDBRANCH  21  22
ENDBRANCH   5  21
TORSDOF 7
ENDMDL
MODEL       51
REMARK 921   NORMALIZED FREE ENERGY PREDICTED BY IDOCK:   -5.90 KCAL/MOL
REMARK 922        TOTAL FREE ENERGY PREDICTED BY IDOCK:  -11.38 KCAL/MOL
REMARK 923 INTER-LIGAND FREE ENERGY PREDICTED BY IDOCK:   -9.54 KCAL/MOL
REMARK 924 INTRA-LIGAND FREE ENERGY PREDICTED BY IDOCK:   -1.83 KCAL/MOL
REMARK 927      BINDING AFFINITY PREDICTED BY RF-SCORE:    0.00 PKD
ROOT
HETATM    1  C   UNL     1     -12.897   9.899  71.956  1.00  0.00    -0.488 C  
HETATM    2  C   UNL     1     -11.979  10.431  70.901  1.00  0.00    -0.478 A  
HETATM    3  C   UNL     1     -11.035   9.774  70.098  1.00  0.00    -0.291 A  
HETATM    4  C   UNL     1     -12.086  14.194  69.057  1.00  0.00    -0.348 A  
HETATM    5  N   UNL     1     -10.517  10.756  69.223  1.00  0.00    -0.219 NA 
HETATM    6  O   UNL     1     -13.412  15.214  70.698  1.00  0.00    -0.664 OA 
HETATM    7  C   UNL     1     -11.275  11.919  69.336  1.00  0.00    -0.211 A  
HETATM    8  C   UNL     1     -12.751  14.107  70.258  1.00  0.00    -0.229 A  
HETATM    9  C   UNL     1     -12.041  11.797  70.491  1.00  0.00    -0.439 A  
HETATM   10  H   UNL     1     -13.395  16.031  70.214  1.00  0.00     0.000 HD 
HETATM   11  C   UNL     1     -11.381  13.094  68.567  1.00  0.00    -0.321 A  
HETATM   12  C   UNL     1     -12.776  12.912  70.967  1.00  0.00    -0.338 A  
ENDROOT
BRANCH   3  13
HETATM   13  C   UNL     1     -10.638   8.336  70.124  1.00  0.00    -0.233 A  
HETATM   14  C   UNL     1      -9.948   5.599  70.332  1.00  0.00    -0.206 A  
HETATM   15  H   UNL     1      -8.937   4.016  71.103  1.00  0.00     0.000 HD 
HETATM   16  C   UNL     1      -9.614   7.894  70.979  1.00  0.00    -0.177 A  
HETATM   17  C   UNL     1      -9.294   6.538  71.112  1.00  0.00    -0.167 A  
HETATM   18  O   UNL     1      -9.605   4.290  70.485  1.00  0.00    -0.164 OA 
HETATM   19  C   UNL     1     -11.285   7.355  69.353  1.00  0.00     0.034 A  
HETATM   20  C   UNL     1     -10.923   6.000  69.429  1.00  0.00    -0.455 A  
ENDBRANCH   3  13
BRANCH   5  21
HETATM   21  C   UNL     1      -9.338  10.548  68.340  1.00  0.00    -0.158 C  
BRANCH  21  22
HETATM   22  C   UNL     1      -8.324  11.662  68.258  1.00  0.00    -0.159 A  
HETATM   23  C   UNL     1      -6.472  12.860  69.244  1.00  0.00    -0.104 A  
HETATM   24  C   UNL     1      -7.588  13.803  67.345  1.00  0.00    -0.153 A  
HETATM   25  C   UNL     1      -7.306  11.747  69.207  1.00  0.00     0.060 A  
HETATM   26  C   UNL     1      -6.679  13.945  68.384  1.00  0.00    -0.099 A  
HETATM   27  C   UNL     1      -8.334  12.630  67.241  1.00  0.00    -0.189 A  
BRANCH  26  28
HETATM   28  O   UNL     1      -6.058  15.173  68.504  1.00  0.00    -0.088 OA 
BRANCH  28  29
HETATM   29  C   UNL     1      -6.807  16.079  69.319  1.00  0.00    -0.201 C  
BRANCH  29  30
HETATM   30  C   UNL     1      -6.885  17.520  68.795  1.00  0.00    -0.233 C  
BRANCH  30  31
HETATM   31  N   UNL     1      -8.262  17.832  68.306  1.00  0.00    -0.276 NA 
HETATM   32  C   UNL     1      -8.662  19.198  68.686  1.00  0.00    -0.359 C  
HETATM   33  C   UNL     1     -10.053  19.679  68.277  1.00  0.00    -0.560 C  
HETATM   34  C   UNL     1     -10.167  19.952  66.790  1.00  0.00    -0.603 C  
HETATM   35  C   UNL     1     -10.485  18.718  65.960  1.00  0.00    -0.483 C  
HETATM   36  C   UNL     1      -9.827  17.418  66.410  1.00  0.00    -0.311 C  
HETATM   37  C   UNL     1      -8.371  17.544  66.871  1.00  0.00    -0.232 C  
ENDBRANCH  30  31
ENDBRANCH  29  30
ENDBRANCH  28  29
ENDBRANCH  26  28
ENDBRANCH  21  22
ENDBRANCH   5  21
TORSDOF 7
ENDMDL
MODEL       52
REMARK 921   NORMALIZED FREE ENERGY PREDICTED BY IDOCK:   -5.88 KCAL/MOL
REMARK 922        TOTAL FREE ENERGY PREDICTED BY IDOCK:  -11.36 KCAL/MOL
REMARK 923 INTER-LIGAND FREE ENERGY PREDICTED BY IDOCK:   -9.30 KCAL/MOL
REMARK 924 INTRA-LIGAND FREE ENERGY PREDICTED BY IDOCK:   -2.06 KCAL/MOL
REMARK 927      BINDING AFFINITY PREDICTED BY RF-SCORE:    0.00 PKD
ROOT
HETATM    1  C   UNL     1      -7.265   7.893  69.136  1.00  0.00    -0.081 C  
HETATM    2  C   UNL     1      -8.135   9.101  68.985  1.00  0.00    -0.102 A  
HETATM    3  C   UNL     1      -9.391   9.393  69.536  1.00  0.00    -0.180 A  
HETATM    4  C   UNL     1      -7.107  12.827  67.364  1.00  0.00    -0.134 A  
HETATM    5  N   UNL     1      -9.703  10.707  69.118  1.00  0.00    -0.206 NA 
HETATM    6  O   UNL     1      -5.203  12.064  66.229  1.00  0.00    -0.440 OA 
HETATM    7  C   UNL     1      -8.582  11.279  68.520  1.00  0.00    -0.156 A  
HETATM    8  C   UNL     1      -6.283  11.783  67.012  1.00  0.00    -0.152 A  
HETATM    9  C   UNL     1      -7.687  10.245  68.259  1.00  0.00    -0.092 A  
HETATM   10  H   UNL     1      -5.034  12.943  65.909  1.00  0.00     0.000 HD 
HETATM   11  C   UNL     1      -8.234  12.592  68.152  1.00  0.00    -0.170 A  
HETATM   12  C   UNL     1      -6.531  10.499  67.480  1.00  0.00    -0.058 A  
ENDROOT
BRANCH   3  13
HETATM   13  C   UNL     1     -10.249   8.529  70.398  1.00  0.00    -0.215 A  
HETATM   14  C   UNL     1     -11.764   6.761  72.007  1.00  0.00    -0.306 A  
HETATM   15  H   UNL     1     -12.898   5.114  72.356  1.00  0.00     0.000 HD 
HETATM   16  C   UNL     1     -10.938   7.434  69.848  1.00  0.00    -0.239 A  
HETATM   17  C   UNL     1     -11.658   6.536  70.645  1.00  0.00    -0.442 A  
HETATM   18  O   UNL     1     -12.478   5.870  72.749  1.00  0.00     0.053 OA 
HETATM   19  C   UNL     1     -10.372   8.722  71.784  1.00  0.00    -0.413 A  
HETATM   20  C   UNL     1     -11.150   7.866  72.582  1.00  0.00    -0.447 A  
ENDBRANCH   3  13
BRANCH   5  21
HETATM   21  C   UNL     1     -11.034  11.346  69.297  1.00  0.00    -0.229 C  
BRANCH  21  22
HETATM   22  C   UNL     1     -11.568  12.177  68.157  1.00  0.00    -0.397 A  
HETATM   23  C   UNL     1     -11.960  12.442  65.787  1.00  0.00    -0.437 A  
HETATM   24  C   UNL     1     -12.241  14.333  67.231  1.00  0.00    -0.287 A  
HETATM   25  C   UNL     1     -11.633  11.636  66.873  1.00  0.00    -0.246 A  
HETATM   26  C   UNL     1     -12.156  13.819  65.945  1.00  0.00    -0.433 A  
HETATM   27  C   UNL     1     -12.034  13.491  68.322  1.00  0.00    -0.377 A  
BRANCH  26  28
HETATM   28  O   UNL     1     -12.251  14.724  64.906  1.00  0.00    -0.375 OA 
BRANCH  28  29
HETATM   29  C   UNL     1     -10.986  15.309  64.583  1.00  0.00    -0.304 C  
BRANCH  29  30
HETATM   30  C   UNL     1     -10.915  16.836  64.726  1.00  0.00    -0.025 C  
BRANCH  30  31
HETATM   31  N   UNL     1     -10.475  17.219  66.102  1.00  0.00    -0.318 NA 
HETATM   32  C   UNL     1      -9.247  16.501  66.484  1.00  0.00    -0.272 C  
HETATM   33  C   UNL     1      -8.665  16.763  67.872  1.00  0.00    -0.203 C  
HETATM   34  C   UNL     1      -8.021  18.131  67.990  1.00  0.00    -0.269 C  
HETATM   35  C   UNL     1      -8.999  19.245  68.326  1.00  0.00    -0.381 C  
HETATM   36  C   UNL     1     -10.377  19.146  67.681  1.00  0.00    -0.521 C  
HETATM   37  C   UNL     1     -10.387  18.680  66.221  1.00  0.00    -0.444 C  
ENDBRANCH  30  31
ENDBRANCH  29  30
ENDBRANCH  28  29
ENDBRANCH  26  28
ENDBRANCH  21  22
ENDBRANCH   5  21
TORSDOF 7
ENDMDL
MODEL       53
REMARK 921   NORMALIZED FREE ENERGY PREDICTED BY IDOCK:   -5.88 KCAL/MOL
REMARK 922        TOTAL FREE ENERGY PREDICTED BY IDOCK:  -11.36 KCAL/MOL
REMARK 923 INTER-LIGAND FREE ENERGY PREDICTED BY IDOCK:   -9.41 KCAL/MOL
REMARK 924 INTRA-LIGAND FREE ENERGY PREDICTED BY IDOCK:   -1.95 KCAL/MOL
REMARK 927      BINDING AFFINITY PREDICTED BY RF-SCORE:    0.00 PKD
ROOT
HETATM    1  C   UNL     1      -6.615   9.116  71.190  1.00  0.00    -0.088 C  
HETATM    2  C   UNL     1      -7.940   9.043  70.498  1.00  0.00    -0.150 A  
HETATM    3  C   UNL     1      -8.288   9.316  69.167  1.00  0.00    -0.127 A  
HETATM    4  C   UNL     1     -11.468   7.249  71.876  1.00  0.00    -0.302 A  
HETATM    5  N   UNL     1      -9.662   9.000  69.052  1.00  0.00    -0.164 NA 
HETATM    6  O   UNL     1     -10.826   7.186  74.130  1.00  0.00    -0.532 OA 
HETATM    7  C   UNL     1     -10.083   8.348  70.208  1.00  0.00    -0.189 A  
HETATM    8  C   UNL     1     -10.539   7.545  72.847  1.00  0.00    -0.337 A  
HETATM    9  C   UNL     1      -9.095   8.543  71.169  1.00  0.00    -0.238 A  
HETATM   10  H   UNL     1     -11.650   6.771  74.359  1.00  0.00     0.000 HD 
HETATM   11  C   UNL     1     -11.231   7.608  70.549  1.00  0.00    -0.275 A  
HETATM   12  C   UNL     1      -9.335   8.151  72.511  1.00  0.00    -0.329 A  
ENDROOT
BRANCH   3  13
HETATM   13  C   UNL     1      -7.418   9.826  68.067  1.00  0.00    -0.082 A  
HETATM   14  C   UNL     1      -5.889  10.742  65.870  1.00  0.00    -0.142 A  
HETATM   15  H   UNL     1      -4.814  10.517  64.162  1.00  0.00     0.000 HD 
HETATM   16  C   UNL     1      -6.820   8.935  67.160  1.00  0.00    -0.074 A  
HETATM   17  C   UNL     1      -6.094   9.385  66.051  1.00  0.00    -0.063 A  
HETATM   18  O   UNL     1      -5.171  11.141  64.783  1.00  0.00    -0.225 OA 
HETATM   19  C   UNL     1      -7.196  11.196  67.848  1.00  0.00    -0.090 A  
HETATM   20  C   UNL     1      -6.410  11.654  66.778  1.00  0.00    -0.114 A  
ENDBRANCH   3  13
BRANCH   5  21
HETATM   21  C   UNL     1     -10.498   9.335  67.868  1.00  0.00    -0.236 C  
BRANCH  21  22
HETATM   22  C   UNL     1     -11.114  10.711  67.818  1.00  0.00    -0.385 A  
HETATM   23  C   UNL     1     -11.680  12.688  66.548  1.00  0.00    -0.463 A  
HETATM   24  C   UNL     1     -11.853  12.751  68.936  1.00  0.00    -0.351 A  
HETATM   25  C   UNL     1     -11.273  11.357  66.592  1.00  0.00    -0.298 A  
HETATM   26  C   UNL     1     -11.864  13.424  67.723  1.00  0.00    -0.358 A  
HETATM   27  C   UNL     1     -11.567  11.387  68.962  1.00  0.00    -0.383 A  
BRANCH  26  28
HETATM   28  O   UNL     1     -12.035  14.794  67.773  1.00  0.00    -0.334 OA 
BRANCH  28  29
HETATM   29  C   UNL     1     -10.788  15.495  67.759  1.00  0.00    -0.309 C  
BRANCH  29  30
HETATM   30  C   UNL     1     -10.384  16.088  66.402  1.00  0.00    -0.305 C  
BRANCH  30  31
HETATM   31  N   UNL     1      -9.536  17.304  66.587  1.00  0.00    -0.256 NA 
HETATM   32  C   UNL     1     -10.236  18.513  66.119  1.00  0.00    -0.398 C  
HETATM   33  C   UNL     1      -9.504  19.851  66.221  1.00  0.00    -0.505 C  
HETATM   34  C   UNL     1      -9.388  20.349  67.649  1.00  0.00    -0.453 C  
HETATM   35  C   UNL     1      -8.197  19.780  68.403  1.00  0.00    -0.296 C  
HETATM   36  C   UNL     1      -7.850  18.324  68.114  1.00  0.00    -0.299 C  
HETATM   37  C   UNL     1      -9.049  17.380  67.969  1.00  0.00    -0.259 C  
ENDBRANCH  30  31
ENDBRANCH  29  30
ENDBRANCH  28  29
ENDBRANCH  26  28
ENDBRANCH  21  22
ENDBRANCH   5  21
TORSDOF 7
ENDMDL
MODEL       54
REMARK 921   NORMALIZED FREE ENERGY PREDICTED BY IDOCK:   -5.85 KCAL/MOL
REMARK 922        TOTAL FREE ENERGY PREDICTED BY IDOCK:  -11.31 KCAL/MOL
REMARK 923 INTER-LIGAND FREE ENERGY PREDICTED BY IDOCK:   -9.23 KCAL/MOL
REMARK 924 INTRA-LIGAND FREE ENERGY PREDICTED BY IDOCK:   -2.07 KCAL/MOL
REMARK 927      BINDING AFFINITY PREDICTED BY RF-SCORE:    0.00 PKD
ROOT
HETATM    1  C   UNL     1      -7.998   7.873  69.390  1.00  0.00    -0.117 C  
HETATM    2  C   UNL     1      -9.241   8.699  69.489  1.00  0.00    -0.150 A  
HETATM    3  C   UNL     1      -9.859   9.533  68.546  1.00  0.00    -0.158 A  
HETATM    4  C   UNL     1     -12.202   8.547  72.453  1.00  0.00    -0.432 A  
HETATM    5  N   UNL     1     -11.048   9.997  69.155  1.00  0.00    -0.215 NA 
HETATM    6  O   UNL     1     -10.882   7.430  74.036  1.00  0.00    -0.558 OA 
HETATM    7  C   UNL     1     -11.261   9.297  70.341  1.00  0.00    -0.247 A  
HETATM    8  C   UNL     1     -10.988   8.003  72.804  1.00  0.00    -0.382 A  
HETATM    9  C   UNL     1     -10.070   8.647  70.650  1.00  0.00    -0.237 A  
HETATM   10  H   UNL     1     -11.608   7.429  74.649  1.00  0.00     0.000 HD 
HETATM   11  C   UNL     1     -12.360   9.158  71.208  1.00  0.00    -0.382 A  
HETATM   12  C   UNL     1      -9.927   8.005  71.906  1.00  0.00    -0.255 A  
ENDROOT
BRANCH   3  13
HETATM   13  C   UNL     1      -9.396   9.877  67.170  1.00  0.00    -0.170 A  
HETATM   14  C   UNL     1      -8.385  10.425  64.584  1.00  0.00    -0.155 A  
HETATM   15  H   UNL     1      -7.024  11.149  63.262  1.00  0.00     0.000 HD 
HETATM   16  C   UNL     1      -8.215  10.614  66.979  1.00  0.00    -0.124 A  
HETATM   17  C   UNL     1      -7.691  10.855  65.703  1.00  0.00     0.012 A  
HETATM   18  O   UNL     1      -7.848  10.685  63.360  1.00  0.00    -0.076 OA 
HETATM   19  C   UNL     1     -10.070   9.450  66.013  1.00  0.00    -0.302 A  
HETATM   20  C   UNL     1      -9.588   9.748  64.727  1.00  0.00    -0.284 A  
ENDBRANCH   3  13
BRANCH   5  21
HETATM   21  C   UNL     1     -11.908  11.072  68.593  1.00  0.00    -0.247 C  
BRANCH  21  22
HETATM   22  C   UNL     1     -11.220  12.287  68.020  1.00  0.00    -0.321 A  
HETATM   23  C   UNL     1     -10.710  13.676  66.110  1.00  0.00    -0.286 A  
HETATM   24  C   UNL     1      -9.498  14.013  68.149  1.00  0.00    -0.215 A  
HETATM   25  C   UNL     1     -11.463  12.666  66.701  1.00  0.00    -0.409 A  
HETATM   26  C   UNL     1      -9.649  14.278  66.796  1.00  0.00    -0.280 A  
HETATM   27  C   UNL     1     -10.341  13.089  68.766  1.00  0.00    -0.146 A  
BRANCH  26  28
HETATM   28  O   UNL     1      -8.711  15.110  66.217  1.00  0.00    -0.251 OA 
BRANCH  28  29
HETATM   29  C   UNL     1      -7.806  15.657  67.181  1.00  0.00    -0.217 C  
BRANCH  29  30
HETATM   30  C   UNL     1      -7.031  16.900  66.721  1.00  0.00    -0.235 C  
BRANCH  30  31
HETATM   31  N   UNL     1      -7.764  18.148  67.094  1.00  0.00    -0.216 NA 
HETATM   32  C   UNL     1      -8.841  18.436  66.132  1.00  0.00    -0.098 C  
HETATM   33  C   UNL     1      -9.686  19.690  66.354  1.00  0.00    -0.503 C  
HETATM   34  C   UNL     1     -10.634  19.559  67.529  1.00  0.00    -0.599 C  
HETATM   35  C   UNL     1     -10.003  19.896  68.870  1.00  0.00    -0.430 C  
HETATM   36  C   UNL     1      -8.553  19.465  69.058  1.00  0.00    -0.248 C  
HETATM   37  C   UNL     1      -8.200  18.084  68.494  1.00  0.00    -0.303 C  
ENDBRANCH  30  31
ENDBRANCH  29  30
ENDBRANCH  28  29
ENDBRANCH  26  28
ENDBRANCH  21  22
ENDBRANCH   5  21
TORSDOF 7
ENDMDL
MODEL       55
REMARK 921   NORMALIZED FREE ENERGY PREDICTED BY IDOCK:   -5.81 KCAL/MOL
REMARK 922        TOTAL FREE ENERGY PREDICTED BY IDOCK:  -11.26 KCAL/MOL
REMARK 923 INTER-LIGAND FREE ENERGY PREDICTED BY IDOCK:   -9.12 KCAL/MOL
REMARK 924 INTRA-LIGAND FREE ENERGY PREDICTED BY IDOCK:   -2.14 KCAL/MOL
REMARK 927      BINDING AFFINITY PREDICTED BY RF-SCORE:    0.00 PKD
ROOT
HETATM    1  C   UNL     1     -10.973   6.456  67.060  1.00  0.00    -0.463 C  
HETATM    2  C   UNL     1      -9.769   7.340  66.975  1.00  0.00    -0.235 A  
HETATM    3  C   UNL     1      -9.420   8.478  67.717  1.00  0.00    -0.145 A  
HETATM    4  C   UNL     1      -6.187   6.619  64.920  1.00  0.00    -0.038 A  
HETATM    5  N   UNL     1      -8.137   8.861  67.262  1.00  0.00    -0.104 NA 
HETATM    6  O   UNL     1      -7.057   4.947  63.526  1.00  0.00    -0.046 OA 
HETATM    7  C   UNL     1      -7.626   7.864  66.433  1.00  0.00    -0.091 A  
HETATM    8  C   UNL     1      -7.265   5.871  64.507  1.00  0.00    -0.063 A  
HETATM    9  C   UNL     1      -8.688   7.030  66.097  1.00  0.00    -0.155 A  
HETATM   10  H   UNL     1      -6.207   4.839  63.115  1.00  0.00     0.000 HD 
HETATM   11  C   UNL     1      -6.349   7.588  65.911  1.00  0.00    -0.042 A  
HETATM   12  C   UNL     1      -8.508   6.030  65.107  1.00  0.00    -0.112 A  
ENDROOT
BRANCH   3  13
HETATM   13  C   UNL     1     -10.206   9.168  68.780  1.00  0.00    -0.228 A  
HETATM   14  C   UNL     1     -11.839  10.397  70.738  1.00  0.00    -0.368 A  
HETATM   15  H   UNL     1     -13.331  11.615  71.381  1.00  0.00     0.000 HD 
HETATM   16  C   UNL     1     -11.161  10.143  68.442  1.00  0.00    -0.238 A  
HETATM   17  C   UNL     1     -11.996  10.726  69.402  1.00  0.00    -0.353 A  
HETATM   18  O   UNL     1     -12.665  10.991  71.644  1.00  0.00    -0.402 OA 
HETATM   19  C   UNL     1     -10.080   8.853  70.144  1.00  0.00    -0.212 A  
HETATM   20  C   UNL     1     -10.865   9.485  71.122  1.00  0.00    -0.425 A  
ENDBRANCH   3  13
BRANCH   5  21
HETATM   21  C   UNL     1      -7.470  10.139  67.626  1.00  0.00    -0.090 C  
BRANCH  21  22
HETATM   22  C   UNL     1      -8.235  11.417  67.387  1.00  0.00    -0.145 A  
HETATM   23  C   UNL     1      -9.058  13.531  68.219  1.00  0.00    -0.189 A  
HETATM   24  C   UNL     1      -9.890  12.700  66.132  1.00  0.00    -0.265 A  
HETATM   25  C   UNL     1      -8.223  12.426  68.350  1.00  0.00    -0.144 A  
HETATM   26  C   UNL     1      -9.976  13.620  67.167  1.00  0.00    -0.247 A  
HETATM   27  C   UNL     1      -8.962  11.663  66.211  1.00  0.00    -0.194 A  
BRANCH  26  28
HETATM   28  O   UNL     1     -10.993  14.552  67.088  1.00  0.00    -0.290 OA 
BRANCH  28  29
HETATM   29  C   UNL     1     -11.755  14.623  68.296  1.00  0.00    -0.328 C  
BRANCH  29  30
HETATM   30  C   UNL     1     -11.482  15.853  69.173  1.00  0.00    -0.377 C  
BRANCH  30  31
HETATM   31  N   UNL     1     -12.281  15.791  70.435  1.00  0.00    -0.387 NA 
HETATM   32  C   UNL     1     -13.126  14.585  70.468  1.00  0.00    -0.174 C  
HETATM   33  C   UNL     1     -14.023  14.371  71.686  1.00  0.00    -0.506 C  
HETATM   34  C   UNL     1     -13.244  13.981  72.928  1.00  0.00    -0.502 C  
HETATM   35  C   UNL     1     -12.687  15.165  73.701  1.00  0.00    -0.683 C  
HETATM   36  C   UNL     1     -12.179  16.335  72.866  1.00  0.00    -0.610 C  
HETATM   37  C   UNL     1     -11.404  15.951  71.601  1.00  0.00    -0.273 C  
ENDBRANCH  30  31
ENDBRANCH  29  30
ENDBRANCH  28  29
ENDBRANCH  26  28
ENDBRANCH  21  22
ENDBRANCH   5  21
TORSDOF 7
ENDMDL
MODEL       56
REMARK 921   NORMALIZED FREE ENERGY PREDICTED BY IDOCK:   -5.79 KCAL/MOL
REMARK 922        TOTAL FREE ENERGY PREDICTED BY IDOCK:  -11.23 KCAL/MOL
REMARK 923 INTER-LIGAND FREE ENERGY PREDICTED BY IDOCK:   -9.85 KCAL/MOL
REMARK 924 INTRA-LIGAND FREE ENERGY PREDICTED BY IDOCK:   -1.38 KCAL/MOL
REMARK 927      BINDING AFFINITY PREDICTED BY RF-SCORE:    0.00 PKD
ROOT
HETATM    1  C   UNL     1     -12.894   7.529  71.694  1.00  0.00    -0.392 C  
HETATM    2  C   UNL     1     -12.045   8.516  70.957  1.00  0.00    -0.231 A  
HETATM    3  C   UNL     1     -11.060   8.320  69.978  1.00  0.00    -0.147 A  
HETATM    4  C   UNL     1     -12.518  12.676  70.762  1.00  0.00    -0.357 A  
HETATM    5  N   UNL     1     -10.646   9.611  69.578  1.00  0.00    -0.218 NA 
HETATM    6  O   UNL     1     -13.903  12.837  72.647  1.00  0.00    -0.699 OA 
HETATM    7  C   UNL     1     -11.503  10.561  70.129  1.00  0.00    -0.325 A  
HETATM    8  C   UNL     1     -13.153  12.059  71.816  1.00  0.00    -0.355 A  
HETATM    9  C   UNL     1     -12.236   9.921  71.124  1.00  0.00    -0.468 A  
HETATM   10  H   UNL     1     -13.968  13.777  72.528  1.00  0.00     0.000 HD 
HETATM   11  C   UNL     1     -11.726  11.929  69.889  1.00  0.00    -0.383 A  
HETATM   12  C   UNL     1     -13.059  10.684  71.989  1.00  0.00    -0.501 A  
ENDROOT
BRANCH   3  13
HETATM   13  C   UNL     1     -10.535   7.032  69.437  1.00  0.00    -0.227 A  
HETATM   14  C   UNL     1      -9.477   4.678  68.278  1.00  0.00    -0.147 A  
HETATM   15  H   UNL     1      -9.331   3.241  66.850  1.00  0.00     0.000 HD 
HETATM   16  C   UNL     1     -11.068   6.484  68.257  1.00  0.00    -0.332 A  
HETATM   17  C   UNL     1     -10.524   5.341  67.661  1.00  0.00    -0.176 A  
HETATM   18  O   UNL     1      -8.978   3.565  67.671  1.00  0.00    -0.115 OA 
HETATM   19  C   UNL     1      -9.468   6.337  70.032  1.00  0.00    -0.167 A  
HETATM   20  C   UNL     1      -8.961   5.150  69.477  1.00  0.00    -0.128 A  
ENDBRANCH   3  13
BRANCH   5  21
HETATM   21  C   UNL     1      -9.468   9.877  68.709  1.00  0.00    -0.157 C  
BRANCH  21  22
HETATM   22  C   UNL     1      -9.564  11.030  67.740  1.00  0.00    -0.180 A  
HETATM   23  C   UNL     1      -9.108  13.344  67.217  1.00  0.00    -0.222 A  
HETATM   24  C   UNL     1     -10.612  12.111  65.819  1.00  0.00    -0.295 A  
HETATM   25  C   UNL     1      -8.892  12.221  68.010  1.00  0.00    -0.182 A  
HETATM   26  C   UNL     1     -10.053  13.327  66.185  1.00  0.00    -0.293 A  
HETATM   27  C   UNL     1     -10.293  10.963  66.543  1.00  0.00    -0.299 A  
BRANCH  26  28
HETATM   28  O   UNL     1     -10.499  14.445  65.508  1.00  0.00    -0.310 OA 
BRANCH  28  29
HETATM   29  C   UNL     1      -9.600  15.550  65.639  1.00  0.00    -0.293 C  
BRANCH  29  30
HETATM   30  C   UNL     1     -10.193  16.803  66.298  1.00  0.00    -0.332 C  
BRANCH  30  31
HETATM   31  N   UNL     1      -9.112  17.763  66.677  1.00  0.00    -0.259 NA 
HETATM   32  C   UNL     1      -9.110  18.013  68.128  1.00  0.00    -0.276 C  
HETATM   33  C   UNL     1      -8.075  18.986  68.689  1.00  0.00    -0.397 C  
HETATM   34  C   UNL     1      -6.670  18.415  68.685  1.00  0.00    -0.265 C  
HETATM   35  C   UNL     1      -5.938  18.591  67.364  1.00  0.00    -0.165 C  
HETATM   36  C   UNL     1      -6.783  18.445  66.103  1.00  0.00    -0.279 C  
HETATM   37  C   UNL     1      -7.822  17.318  66.135  1.00  0.00    -0.270 C  
ENDBRANCH  30  31
ENDBRANCH  29  30
ENDBRANCH  28  29
ENDBRANCH  26  28
ENDBRANCH  21  22
ENDBRANCH   5  21
TORSDOF 7
ENDMDL
MODEL       57
REMARK 921   NORMALIZED FREE ENERGY PREDICTED BY IDOCK:   -5.74 KCAL/MOL
REMARK 922        TOTAL FREE ENERGY PREDICTED BY IDOCK:  -11.15 KCAL/MOL
REMARK 923 INTER-LIGAND FREE ENERGY PREDICTED BY IDOCK:   -9.14 KCAL/MOL
REMARK 924 INTRA-LIGAND FREE ENERGY PREDICTED BY IDOCK:   -2.02 KCAL/MOL
REMARK 927      BINDING AFFINITY PREDICTED BY RF-SCORE:    0.00 PKD
ROOT
HETATM    1  C   UNL     1      -9.803   8.229  65.873  1.00  0.00     0.120 C  
HETATM    2  C   UNL     1      -9.651   9.258  66.948  1.00  0.00    -0.229 A  
HETATM    3  C   UNL     1     -10.062  10.598  66.992  1.00  0.00    -0.211 A  
HETATM    4  C   UNL     1      -8.516   8.659  70.939  1.00  0.00    -0.195 A  
HETATM    5  N   UNL     1      -9.727  11.066  68.283  1.00  0.00    -0.170 NA 
HETATM    6  O   UNL     1      -7.569   6.543  70.591  1.00  0.00    -0.097 OA 
HETATM    7  C   UNL     1      -9.330   9.990  69.074  1.00  0.00    -0.181 A  
HETATM    8  C   UNL     1      -8.179   7.646  70.071  1.00  0.00    -0.125 A  
HETATM    9  C   UNL     1      -9.094   8.919  68.218  1.00  0.00    -0.140 A  
HETATM   10  H   UNL     1      -7.353   6.481  71.514  1.00  0.00     0.000 HD 
HETATM   11  C   UNL     1      -9.130   9.816  70.456  1.00  0.00    -0.069 A  
HETATM   12  C   UNL     1      -8.494   7.737  68.721  1.00  0.00    -0.129 A  
ENDROOT
BRANCH   3  13
HETATM   13  C   UNL     1     -10.727  11.399  65.923  1.00  0.00    -0.311 A  
HETATM   14  C   UNL     1     -11.943  13.059  63.981  1.00  0.00    -0.456 A  
HETATM   15  H   UNL     1     -13.310  14.404  63.314  1.00  0.00     0.000 HD 
HETATM   16  C   UNL     1     -11.898  12.124  66.199  1.00  0.00    -0.327 A  
HETATM   17  C   UNL     1     -12.482  12.975  65.253  1.00  0.00    -0.555 A  
HETATM   18  O   UNL     1     -12.543  13.893  63.086  1.00  0.00    -0.775 OA 
HETATM   19  C   UNL     1     -10.202  11.514  64.624  1.00  0.00    -0.334 A  
HETATM   20  C   UNL     1     -10.822  12.312  63.647  1.00  0.00    -0.522 A  
ENDBRANCH   3  13
BRANCH   5  21
HETATM   21  C   UNL     1      -9.793  12.493  68.696  1.00  0.00    -0.075 C  
BRANCH  21  22
HETATM   22  C   UNL     1      -8.835  13.454  68.035  1.00  0.00    -0.183 A  
HETATM   23  C   UNL     1      -6.578  14.269  67.751  1.00  0.00    -0.189 A  
HETATM   24  C   UNL     1      -8.398  15.552  66.866  1.00  0.00    -0.290 A  
HETATM   25  C   UNL     1      -7.461  13.296  68.209  1.00  0.00    -0.126 A  
HETATM   26  C   UNL     1      -7.049  15.455  67.176  1.00  0.00    -0.100 A  
HETATM   27  C   UNL     1      -9.259  14.514  67.218  1.00  0.00    -0.213 A  
BRANCH  26  28
HETATM   28  O   UNL     1      -6.268  16.563  66.910  1.00  0.00    -0.213 OA 
BRANCH  28  29
HETATM   29  C   UNL     1      -6.143  17.421  68.048  1.00  0.00    -0.150 C  
BRANCH  29  30
HETATM   30  C   UNL     1      -6.147  18.925  67.739  1.00  0.00    -0.201 C  
BRANCH  30  31
HETATM   31  N   UNL     1      -7.546  19.430  67.589  1.00  0.00    -0.253 NA 
HETATM   32  C   UNL     1      -7.938  19.489  66.170  1.00  0.00    -0.330 C  
HETATM   33  C   UNL     1      -9.338  20.000  65.834  1.00  0.00    -0.243 C  
HETATM   34  C   UNL     1     -10.428  19.011  66.197  1.00  0.00    -0.541 C  
HETATM   35  C   UNL     1     -10.879  19.097  67.646  1.00  0.00    -0.467 C  
HETATM   36  C   UNL     1      -9.790  19.385  68.674  1.00  0.00    -0.522 C  
HETATM   37  C   UNL     1      -8.460  18.660  68.441  1.00  0.00    -0.338 C  
ENDBRANCH  30  31
ENDBRANCH  29  30
ENDBRANCH  28  29
ENDBRANCH  26  28
ENDBRANCH  21  22
ENDBRANCH   5  21
TORSDOF 7
ENDMDL
MODEL       58
REMARK 921   NORMALIZED FREE ENERGY PREDICTED BY IDOCK:   -5.70 KCAL/MOL
REMARK 922        TOTAL FREE ENERGY PREDICTED BY IDOCK:  -11.10 KCAL/MOL
REMARK 923 INTER-LIGAND FREE ENERGY PREDICTED BY IDOCK:  -10.08 KCAL/MOL
REMARK 924 INTRA-LIGAND FREE ENERGY PREDICTED BY IDOCK:   -1.02 KCAL/MOL
REMARK 927      BINDING AFFINITY PREDICTED BY RF-SCORE:    0.00 PKD
ROOT
HETATM    1  C   UNL     1     -12.594  13.820  65.715  1.00  0.00    -0.525 C  
HETATM    2  C   UNL     1     -11.531  12.956  66.318  1.00  0.00    -0.395 A  
HETATM    3  C   UNL     1     -11.108  12.827  67.649  1.00  0.00    -0.258 A  
HETATM    4  C   UNL     1      -9.527   9.730  64.545  1.00  0.00    -0.269 A  
HETATM    5  N   UNL     1     -10.128  11.807  67.648  1.00  0.00    -0.191 NA 
HETATM    6  O   UNL     1     -10.071  10.308  62.339  1.00  0.00    -0.714 OA 
HETATM    7  C   UNL     1     -10.114  11.183  66.403  1.00  0.00    -0.226 A  
HETATM    8  C   UNL     1     -10.133  10.601  63.669  1.00  0.00    -0.245 A  
HETATM    9  C   UNL     1     -10.824  12.000  65.529  1.00  0.00    -0.336 A  
HETATM   10  H   UNL     1      -9.602   9.548  62.017  1.00  0.00     0.000 HD 
HETATM   11  C   UNL     1      -9.548   9.990  65.916  1.00  0.00    -0.283 A  
HETATM   12  C   UNL     1     -10.819  11.714  64.140  1.00  0.00    -0.433 A  
ENDROOT
BRANCH   3  13
HETATM   13  C   UNL     1     -11.574  13.583  68.847  1.00  0.00    -0.364 A  
HETATM   14  C   UNL     1     -12.593  15.074  71.027  1.00  0.00    -0.350 A  
HETATM   15  H   UNL     1     -13.110  16.778  72.001  1.00  0.00     0.000 HD 
HETATM   16  C   UNL     1     -11.553  14.988  68.857  1.00  0.00    -0.349 A  
HETATM   17  C   UNL     1     -12.089  15.730  69.916  1.00  0.00    -0.315 A  
HETATM   18  O   UNL     1     -13.099  15.829  72.041  1.00  0.00    -0.445 OA 
HETATM   19  C   UNL     1     -12.100  12.951  69.987  1.00  0.00    -0.357 A  
HETATM   20  C   UNL     1     -12.576  13.687  71.085  1.00  0.00    -0.452 A  
ENDBRANCH   3  13
BRANCH   5  21
HETATM   21  C   UNL     1      -9.260  11.485  68.812  1.00  0.00    -0.067 C  
BRANCH  21  22
HETATM   22  C   UNL     1      -9.682  10.341  69.700  1.00  0.00    -0.216 A  
HETATM   23  C   UNL     1     -11.440   9.140  70.845  1.00  0.00    -0.357 A  
HETATM   24  C   UNL     1      -9.157   8.644  71.375  1.00  0.00    -0.295 A  
HETATM   25  C   UNL     1     -11.037  10.077  69.898  1.00  0.00    -0.336 A  
HETATM   26  C   UNL     1     -10.506   8.500  71.666  1.00  0.00    -0.275 A  
HETATM   27  C   UNL     1      -8.765   9.492  70.341  1.00  0.00    -0.265 A  
BRANCH  26  28
HETATM   28  O   UNL     1     -10.825   7.742  72.776  1.00  0.00    -0.317 OA 
BRANCH  28  29
HETATM   29  C   UNL     1     -11.465   6.512  72.425  1.00  0.00    -0.271 C  
BRANCH  29  30
HETATM   30  C   UNL     1     -10.721   5.657  71.391  1.00  0.00    -0.244 C  
BRANCH  30  31
HETATM   31  N   UNL     1     -10.562   4.254  71.880  1.00  0.00     0.013 NA 
HETATM   32  C   UNL     1      -9.386   3.610  71.269  1.00  0.00    -0.144 C  
HETATM   33  C   UNL     1      -9.083   2.161  71.648  1.00  0.00    -0.149 C  
HETATM   34  C   UNL     1      -8.549   2.023  73.060  1.00  0.00    -0.062 C  
HETATM   35  C   UNL     1      -9.633   1.945  74.123  1.00  0.00    -0.094 C  
HETATM   36  C   UNL     1     -10.862   2.818  73.896  1.00  0.00    -0.285 C  
HETATM   37  C   UNL     1     -10.579   4.221  73.347  1.00  0.00    -0.208 C  
ENDBRANCH  30  31
ENDBRANCH  29  30
ENDBRANCH  28  29
ENDBRANCH  26  28
ENDBRANCH  21  22
ENDBRANCH   5  21
TORSDOF 7
ENDMDL
MODEL       59
REMARK 921   NORMALIZED FREE ENERGY PREDICTED BY IDOCK:   -5.70 KCAL/MOL
REMARK 922        TOTAL FREE ENERGY PREDICTED BY IDOCK:  -11.09 KCAL/MOL
REMARK 923 INTER-LIGAND FREE ENERGY PREDICTED BY IDOCK:   -8.70 KCAL/MOL
REMARK 924 INTRA-LIGAND FREE ENERGY PREDICTED BY IDOCK:   -2.39 KCAL/MOL
REMARK 927      BINDING AFFINITY PREDICTED BY RF-SCORE:    0.00 PKD
ROOT
HETATM    1  C   UNL     1     -10.987   6.607  67.212  1.00  0.00    -0.456 C  
HETATM    2  C   UNL     1      -9.966   7.679  67.427  1.00  0.00    -0.252 A  
HETATM    3  C   UNL     1      -9.772   8.548  68.510  1.00  0.00    -0.163 A  
HETATM    4  C   UNL     1      -6.462   8.373  65.234  1.00  0.00    -0.055 A  
HETATM    5  N   UNL     1      -8.610   9.295  68.208  1.00  0.00    -0.124 NA 
HETATM    6  O   UNL     1      -7.118   7.129  63.358  1.00  0.00    -0.058 OA 
HETATM    7  C   UNL     1      -7.991   8.747  67.087  1.00  0.00    -0.096 A  
HETATM    8  C   UNL     1      -7.418   7.616  64.595  1.00  0.00    -0.096 A  
HETATM    9  C   UNL     1      -8.910   7.888  66.491  1.00  0.00    -0.175 A  
HETATM   10  H   UNL     1      -6.292   7.326  62.931  1.00  0.00     0.000 HD 
HETATM   11  C   UNL     1      -6.723   8.907  66.497  1.00  0.00    -0.075 A  
HETATM   12  C   UNL     1      -8.625   7.329  65.220  1.00  0.00    -0.002 A  
ENDROOT
BRANCH   3  13
HETATM   13  C   UNL     1     -10.594   8.683  69.749  1.00  0.00    -0.224 A  
HETATM   14  C   UNL     1     -12.291   8.909  72.002  1.00  0.00    -0.390 A  
HETATM   15  H   UNL     1     -13.759   9.764  73.114  1.00  0.00     0.000 HD 
HETATM   16  C   UNL     1     -11.471   9.769  69.907  1.00  0.00    -0.190 A  
HETATM   17  C   UNL     1     -12.339   9.866  71.002  1.00  0.00    -0.451 A  
HETATM   18  O   UNL     1     -13.146   9.041  73.054  1.00  0.00    -0.295 OA 
HETATM   19  C   UNL     1     -10.578   7.727  70.778  1.00  0.00    -0.220 A  
HETATM   20  C   UNL     1     -11.395   7.853  71.914  1.00  0.00    -0.324 A  
ENDBRANCH   3  13
BRANCH   5  21
HETATM   21  C   UNL     1      -8.155  10.480  68.982  1.00  0.00    -0.143 C  
BRANCH  21  22
HETATM   22  C   UNL     1      -8.450  11.843  68.408  1.00  0.00    -0.155 A  
HETATM   23  C   UNL     1      -7.842  14.170  68.165  1.00  0.00    -0.142 A  
HETATM   24  C   UNL     1     -10.017  13.456  67.458  1.00  0.00    -0.230 A  
HETATM   25  C   UNL     1      -7.514  12.869  68.536  1.00  0.00    -0.123 A  
HETATM   26  C   UNL     1      -9.132  14.490  67.728  1.00  0.00    -0.190 A  
HETATM   27  C   UNL     1      -9.635  12.141  67.716  1.00  0.00    -0.195 A  
BRANCH  26  28
HETATM   28  O   UNL     1      -9.610  15.776  67.565  1.00  0.00    -0.221 OA 
BRANCH  28  29
HETATM   29  C   UNL     1      -9.761  16.458  68.813  1.00  0.00    -0.250 C  
BRANCH  29  30
HETATM   30  C   UNL     1     -11.199  16.542  69.346  1.00  0.00    -0.188 C  
BRANCH  30  31
HETATM   31  N   UNL     1     -11.431  15.514  70.406  1.00  0.00    -0.311 NA 
HETATM   32  C   UNL     1     -11.686  16.148  71.711  1.00  0.00    -0.488 C  
HETATM   33  C   UNL     1     -11.930  15.240  72.915  1.00  0.00    -0.519 C  
HETATM   34  C   UNL     1     -13.283  14.557  72.870  1.00  0.00    -0.612 C  
HETATM   35  C   UNL     1     -13.297  13.273  72.056  1.00  0.00    -0.582 C  
HETATM   36  C   UNL     1     -12.442  13.268  70.794  1.00  0.00    -0.403 C  
HETATM   37  C   UNL     1     -12.466  14.566  69.978  1.00  0.00    -0.298 C  
ENDBRANCH  30  31
ENDBRANCH  29  30
ENDBRANCH  28  29
ENDBRANCH  26  28
ENDBRANCH  21  22
ENDBRANCH   5  21
TORSDOF 7
ENDMDL
MODEL       60
REMARK 921   NORMALIZED FREE ENERGY PREDICTED BY IDOCK:   -5.64 KCAL/MOL
REMARK 922        TOTAL FREE ENERGY PREDICTED BY IDOCK:  -11.01 KCAL/MOL
REMARK 923 INTER-LIGAND FREE ENERGY PREDICTED BY IDOCK:   -9.78 KCAL/MOL
REMARK 924 INTRA-LIGAND FREE ENERGY PREDICTED BY IDOCK:   -1.24 KCAL/MOL
REMARK 927      BINDING AFFINITY PREDICTED BY RF-SCORE:    0.00 PKD
ROOT
HETATM    1  C   UNL     1     -11.538  16.399  64.464  1.00  0.00     0.021 C  
HETATM    2  C   UNL     1     -10.695  15.311  65.052  1.00  0.00    -0.461 A  
HETATM    3  C   UNL     1      -9.714  15.358  66.053  1.00  0.00    -0.338 A  
HETATM    4  C   UNL     1     -11.181  11.169  64.631  1.00  0.00    -0.052 A  
HETATM    5  N   UNL     1      -9.306  14.021  66.261  1.00  0.00    -0.224 NA 
HETATM    6  O   UNL     1     -12.557  11.292  62.738  1.00  0.00    -0.912 OA 
HETATM    7  C   UNL     1     -10.163  13.165  65.573  1.00  0.00    -0.287 A  
HETATM    8  C   UNL     1     -11.809  11.936  63.677  1.00  0.00    -0.473 A  
HETATM    9  C   UNL     1     -10.889  13.947  64.680  1.00  0.00    -0.420 A  
HETATM   10  H   UNL     1     -12.624  10.344  62.717  1.00  0.00     0.000 HD 
HETATM   11  C   UNL     1     -10.391  11.777  65.608  1.00  0.00    -0.293 A  
HETATM   12  C   UNL     1     -11.710  13.321  63.708  1.00  0.00    -0.475 A  
ENDROOT
BRANCH   3  13
HETATM   13  C   UNL     1      -9.189  16.551  66.780  1.00  0.00    -0.256 A  
HETATM   14  C   UNL     1      -8.176  18.714  68.298  1.00  0.00    -0.323 A  
HETATM   15  H   UNL     1      -8.221  20.083  69.796  1.00  0.00     0.000 HD 
HETATM   16  C   UNL     1      -9.932  17.137  67.819  1.00  0.00    -0.290 A  
HETATM   17  C   UNL     1      -9.419  18.182  68.596  1.00  0.00    -0.328 A  
HETATM   18  O   UNL     1      -7.715  19.735  69.072  1.00  0.00    -0.314 OA 
HETATM   19  C   UNL     1      -7.928  17.110  66.510  1.00  0.00    -0.324 A  
HETATM   20  C   UNL     1      -7.436  18.205  67.239  1.00  0.00    -0.223 A  
ENDBRANCH   3  13
BRANCH   5  21
HETATM   21  C   UNL     1      -8.133  13.626  67.087  1.00  0.00    -0.077 C  
BRANCH  21  22
HETATM   22  C   UNL     1      -8.131  12.236  67.674  1.00  0.00    -0.165 A  
HETATM   23  C   UNL     1      -7.507   9.909  67.498  1.00  0.00    -0.091 A  
HETATM   24  C   UNL     1      -9.068  10.568  69.191  1.00  0.00    -0.177 A  
HETATM   25  C   UNL     1      -7.383  11.227  67.070  1.00  0.00    -0.136 A  
HETATM   26  C   UNL     1      -8.432   9.556  68.486  1.00  0.00    -0.119 A  
HETATM   27  C   UNL     1      -8.842  11.897  68.836  1.00  0.00     0.165 A  
BRANCH  26  28
HETATM   28  O   UNL     1      -8.787   8.259  68.803  1.00  0.00    -0.136 OA 
BRANCH  28  29
HETATM   29  C   UNL     1      -8.937   8.071  70.213  1.00  0.00    -0.147 C  
BRANCH  29  30
HETATM   30  C   UNL     1     -10.081   7.136  70.632  1.00  0.00    -0.191 C  
BRANCH  30  31
HETATM   31  N   UNL     1     -11.377   7.879  70.687  1.00  0.00    -0.273 NA 
HETATM   32  C   UNL     1     -12.433   7.055  71.302  1.00  0.00    -0.386 C  
HETATM   33  C   UNL     1     -13.832   7.657  71.425  1.00  0.00    -0.413 C  
HETATM   34  C   UNL     1     -13.916   8.736  72.487  1.00  0.00    -0.430 C  
HETATM   35  C   UNL     1     -13.501  10.114  71.998  1.00  0.00    -0.418 C  
HETATM   36  C   UNL     1     -12.337  10.156  71.014  1.00  0.00    -0.474 C  
HETATM   37  C   UNL     1     -11.186   9.191  71.317  1.00  0.00    -0.337 C  
ENDBRANCH  30  31
ENDBRANCH  29  30
ENDBRANCH  28  29
ENDBRANCH  26  28
ENDBRANCH  21  22
ENDBRANCH   5  21
TORSDOF 7
ENDMDL
MODEL       61
REMARK 921   NORMALIZED FREE ENERGY PREDICTED BY IDOCK:   -5.64 KCAL/MOL
REMARK 922        TOTAL FREE ENERGY PREDICTED BY IDOCK:  -11.01 KCAL/MOL
REMARK 923 INTER-LIGAND FREE ENERGY PREDICTED BY IDOCK:   -7.88 KCAL/MOL
REMARK 924 INTRA-LIGAND FREE ENERGY PREDICTED BY IDOCK:   -3.13 KCAL/MOL
REMARK 927      BINDING AFFINITY PREDICTED BY RF-SCORE:    0.00 PKD
ROOT
HETATM    1  C   UNL     1      -8.970   9.197  64.331  1.00  0.00    -0.104 C  
HETATM    2  C   UNL     1      -8.726   9.047  65.800  1.00  0.00    -0.197 A  
HETATM    3  C   UNL     1      -8.635   7.896  66.595  1.00  0.00    -0.135 A  
HETATM    4  C   UNL     1      -7.405  11.968  68.500  1.00  0.00    -0.111 A  
HETATM    5  N   UNL     1      -8.314   8.346  67.896  1.00  0.00    -0.130 NA 
HETATM    6  O   UNL     1      -7.943  13.798  67.138  1.00  0.00    -0.312 OA 
HETATM    7  C   UNL     1      -8.001   9.703  67.850  1.00  0.00    -0.098 A  
HETATM    8  C   UNL     1      -7.942  12.448  67.328  1.00  0.00    -0.178 A  
HETATM    9  C   UNL     1      -8.437  10.180  66.618  1.00  0.00    -0.127 A  
HETATM   10  H   UNL     1      -7.614  14.395  67.799  1.00  0.00     0.000 HD 
HETATM   11  C   UNL     1      -7.391  10.595  68.751  1.00  0.00    -0.100 A  
HETATM   12  C   UNL     1      -8.423  11.574  66.361  1.00  0.00    -0.138 A  
ENDROOT
BRANCH   3  13
HETATM   13  C   UNL     1      -8.822   6.472  66.190  1.00  0.00    -0.160 A  
HETATM   14  C   UNL     1      -9.287   3.826  65.300  1.00  0.00    -0.158 A  
HETATM   15  H   UNL     1     -10.419   2.171  64.980  1.00  0.00     0.000 HD 
HETATM   16  C   UNL     1     -10.053   5.827  66.399  1.00  0.00    -0.182 A  
HETATM   17  C   UNL     1     -10.300   4.532  65.928  1.00  0.00    -0.289 A  
HETATM   18  O   UNL     1      -9.563   2.566  64.862  1.00  0.00    -0.118 OA 
HETATM   19  C   UNL     1      -7.820   5.729  65.542  1.00  0.00    -0.102 A  
HETATM   20  C   UNL     1      -8.037   4.404  65.129  1.00  0.00    -0.102 A  
ENDBRANCH   3  13
BRANCH   5  21
HETATM   21  C   UNL     1      -8.326   7.480  69.105  1.00  0.00    -0.135 C  
BRANCH  21  22
HETATM   22  C   UNL     1      -9.438   7.693  70.103  1.00  0.00    -0.161 A  
HETATM   23  C   UNL     1     -11.742   7.355  70.748  1.00  0.00    -0.305 A  
HETATM   24  C   UNL     1     -10.414   8.934  71.965  1.00  0.00    -0.383 A  
HETATM   25  C   UNL     1     -10.657   7.037  69.937  1.00  0.00    -0.249 A  
HETATM   26  C   UNL     1     -11.659   8.383  71.692  1.00  0.00    -0.289 A  
HETATM   27  C   UNL     1      -9.305   8.520  71.230  1.00  0.00    -0.261 A  
BRANCH  26  28
HETATM   28  O   UNL     1     -12.737   8.919  72.369  1.00  0.00    -0.388 OA 
BRANCH  28  29
HETATM   29  C   UNL     1     -13.460   9.862  71.571  1.00  0.00    -0.312 C  
BRANCH  29  30
HETATM   30  C   UNL     1     -13.102  11.335  71.811  1.00  0.00    -0.422 C  
BRANCH  30  31
HETATM   31  N   UNL     1     -12.207  11.845  70.728  1.00  0.00    -0.363 NA 
HETATM   32  C   UNL     1     -12.267  10.976  69.540  1.00  0.00    -0.282 C  
HETATM   33  C   UNL     1     -11.398  11.344  68.338  1.00  0.00    -0.346 C  
HETATM   34  C   UNL     1     -11.908  12.564  67.595  1.00  0.00    -0.381 C  
HETATM   35  C   UNL     1     -11.436  13.884  68.184  1.00  0.00    -0.346 C  
HETATM   36  C   UNL     1     -11.343  13.947  69.704  1.00  0.00    -0.259 C  
HETATM   37  C   UNL     1     -12.486  13.261  70.461  1.00  0.00    -0.260 C  
ENDBRANCH  30  31
ENDBRANCH  29  30
ENDBRANCH  28  29
ENDBRANCH  26  28
ENDBRANCH  21  22
ENDBRANCH   5  21
TORSDOF 7
ENDMDL
MODEL       62
REMARK 921   NORMALIZED FREE ENERGY PREDICTED BY IDOCK:   -5.63 KCAL/MOL
REMARK 922        TOTAL FREE ENERGY PREDICTED BY IDOCK:  -11.01 KCAL/MOL
REMARK 923 INTER-LIGAND FREE ENERGY PREDICTED BY IDOCK:   -9.45 KCAL/MOL
REMARK 924 INTRA-LIGAND FREE ENERGY PREDICTED BY IDOCK:   -1.55 KCAL/MOL
REMARK 927      BINDING AFFINITY PREDICTED BY RF-SCORE:    0.00 PKD
ROOT
HETATM    1  C   UNL     1     -10.680   7.730  66.973  1.00  0.00    -0.316 C  
HETATM    2  C   UNL     1      -9.591   8.729  67.209  1.00  0.00    -0.214 A  
HETATM    3  C   UNL     1      -9.426  10.031  66.714  1.00  0.00    -0.168 A  
HETATM    4  C   UNL     1      -6.586   8.618  70.128  1.00  0.00    -0.038 A  
HETATM    5  N   UNL     1      -8.260  10.537  67.331  1.00  0.00    -0.117 NA 
HETATM    6  O   UNL     1      -6.793   6.327  70.581  1.00  0.00    -0.058 OA 
HETATM    7  C   UNL     1      -7.852   9.661  68.335  1.00  0.00    -0.085 A  
HETATM    8  C   UNL     1      -7.186   7.411  69.854  1.00  0.00    -0.081 A  
HETATM    9  C   UNL     1      -8.540   8.467  68.138  1.00  0.00    -0.139 A  
HETATM   10  H   UNL     1      -6.107   6.388  71.236  1.00  0.00     0.000 HD 
HETATM   11  C   UNL     1      -6.942   9.756  69.404  1.00  0.00    -0.059 A  
HETATM   12  C   UNL     1      -8.190   7.322  68.897  1.00  0.00    -0.125 A  
ENDROOT
BRANCH   3  13
HETATM   13  C   UNL     1     -10.285  10.769  65.742  1.00  0.00    -0.319 A  
HETATM   14  C   UNL     1     -11.850  12.315  63.962  1.00  0.00    -0.444 A  
HETATM   15  H   UNL     1     -13.295  13.658  63.484  1.00  0.00     0.000 HD 
HETATM   16  C   UNL     1     -11.352  11.565  66.195  1.00  0.00    -0.200 A  
HETATM   17  C   UNL     1     -12.105  12.359  65.322  1.00  0.00    -0.451 A  
HETATM   18  O   UNL     1     -12.608  13.097  63.144  1.00  0.00    -0.654 OA 
HETATM   19  C   UNL     1     -10.050  10.754  64.357  1.00  0.00    -0.419 A  
HETATM   20  C   UNL     1     -10.846  11.495  63.467  1.00  0.00    -0.473 A  
ENDBRANCH   3  13
BRANCH   5  21
HETATM   21  C   UNL     1      -7.593  11.808  66.940  1.00  0.00    -0.119 C  
BRANCH  21  22
HETATM   22  C   UNL     1      -8.240  13.098  67.379  1.00  0.00    -0.187 A  
HETATM   23  C   UNL     1      -9.401  15.138  66.807  1.00  0.00    -0.268 A  
HETATM   24  C   UNL     1      -8.522  14.883  69.021  1.00  0.00    -0.178 A  
HETATM   25  C   UNL     1      -8.949  13.869  66.459  1.00  0.00    -0.097 A  
HETATM   26  C   UNL     1      -9.094  15.696  68.053  1.00  0.00    -0.183 A  
HETATM   27  C   UNL     1      -8.184  13.569  68.701  1.00  0.00    -0.040 A  
BRANCH  26  28
HETATM   28  O   UNL     1      -9.296  17.020  68.393  1.00  0.00    -0.248 OA 
BRANCH  28  29
HETATM   29  C   UNL     1     -10.422  17.190  69.257  1.00  0.00    -0.267 C  
BRANCH  29  30
HETATM   30  C   UNL     1     -11.458  16.058  69.215  1.00  0.00    -0.350 C  
BRANCH  30  31
HETATM   31  N   UNL     1     -12.217  15.986  70.500  1.00  0.00    -0.262 NA 
HETATM   32  C   UNL     1     -13.388  15.101  70.375  1.00  0.00    -0.042 C  
HETATM   33  C   UNL     1     -14.288  14.924  71.596  1.00  0.00    -0.660 C  
HETATM   34  C   UNL     1     -13.645  14.085  72.683  1.00  0.00    -0.623 C  
HETATM   35  C   UNL     1     -12.742  14.875  73.617  1.00  0.00    -0.600 C  
HETATM   36  C   UNL     1     -11.917  15.984  72.975  1.00  0.00    -0.597 C  
HETATM   37  C   UNL     1     -11.315  15.647  71.607  1.00  0.00    -0.368 C  
ENDBRANCH  30  31
ENDBRANCH  29  30
ENDBRANCH  28  29
ENDBRANCH  26  28
ENDBRANCH  21  22
ENDBRANCH   5  21
TORSDOF 7
ENDMDL
MODEL       63
REMARK 921   NORMALIZED FREE ENERGY PREDICTED BY IDOCK:   -5.60 KCAL/MOL
REMARK 922        TOTAL FREE ENERGY PREDICTED BY IDOCK:  -10.95 KCAL/MOL
REMARK 923 INTER-LIGAND FREE ENERGY PREDICTED BY IDOCK:   -9.73 KCAL/MOL
REMARK 924 INTRA-LIGAND FREE ENERGY PREDICTED BY IDOCK:   -1.22 KCAL/MOL
REMARK 927      BINDING AFFINITY PREDICTED BY RF-SCORE:    0.00 PKD
ROOT
HETATM    1  C   UNL     1     -10.042   7.234  72.065  1.00  0.00    -0.207 C  
HETATM    2  C   UNL     1     -10.067   7.510  70.595  1.00  0.00    -0.187 A  
HETATM    3  C   UNL     1     -10.661   8.555  69.874  1.00  0.00    -0.224 A  
HETATM    4  C   UNL     1      -7.735   5.727  67.603  1.00  0.00    -0.097 A  
HETATM    5  N   UNL     1     -10.296   8.354  68.523  1.00  0.00    -0.209 NA 
HETATM    6  O   UNL     1      -7.115   3.860  68.879  1.00  0.00    -0.049 OA 
HETATM    7  C   UNL     1      -9.331   7.352  68.451  1.00  0.00    -0.144 A  
HETATM    8  C   UNL     1      -7.823   5.021  68.780  1.00  0.00    -0.078 A  
HETATM    9  C   UNL     1      -9.328   6.700  69.681  1.00  0.00    -0.143 A  
HETATM   10  H   UNL     1      -6.600   3.527  68.153  1.00  0.00     0.000 HD 
HETATM   11  C   UNL     1      -8.451   6.914  67.444  1.00  0.00    -0.121 A  
HETATM   12  C   UNL     1      -8.577   5.508  69.841  1.00  0.00    -0.120 A  
ENDROOT
BRANCH   3  13
HETATM   13  C   UNL     1     -11.505   9.673  70.389  1.00  0.00    -0.325 A  
HETATM   14  C   UNL     1     -13.033  11.770  71.520  1.00  0.00    -0.341 A  
HETATM   15  H   UNL     1     -14.431  12.555  72.765  1.00  0.00     0.000 HD 
HETATM   16  C   UNL     1     -12.533   9.423  71.314  1.00  0.00    -0.416 A  
HETATM   17  C   UNL     1     -13.266  10.460  71.903  1.00  0.00    -0.535 A  
HETATM   18  O   UNL     1     -13.771  12.750  72.110  1.00  0.00    -0.483 OA 
HETATM   19  C   UNL     1     -11.290  11.015  70.028  1.00  0.00    -0.358 A  
HETATM   20  C   UNL     1     -12.068  12.055  70.563  1.00  0.00    -0.402 A  
ENDBRANCH   3  13
BRANCH   5  21
HETATM   21  C   UNL     1     -10.877   9.108  67.381  1.00  0.00    -0.070 C  
BRANCH  21  22
HETATM   22  C   UNL     1     -10.277  10.454  67.057  1.00  0.00    -0.277 A  
HETATM   23  C   UNL     1      -8.417  11.989  67.208  1.00  0.00    -0.175 A  
HETATM   24  C   UNL     1     -10.533  12.800  66.431  1.00  0.00    -0.265 A  
HETATM   25  C   UNL     1      -8.936  10.705  67.342  1.00  0.00    -0.138 A  
HETATM   26  C   UNL     1      -9.240  13.065  66.859  1.00  0.00    -0.236 A  
HETATM   27  C   UNL     1     -11.007  11.489  66.450  1.00  0.00    -0.336 A  
BRANCH  26  28
HETATM   28  O   UNL     1      -8.869  14.394  66.930  1.00  0.00    -0.228 OA 
BRANCH  28  29
HETATM   29  C   UNL     1      -9.930  15.272  66.546  1.00  0.00    -0.265 C  
BRANCH  29  30
HETATM   30  C   UNL     1     -10.727  15.885  67.706  1.00  0.00    -0.320 C  
BRANCH  30  31
HETATM   31  N   UNL     1     -10.763  17.375  67.594  1.00  0.00    -0.347 NA 
HETATM   32  C   UNL     1     -10.051  18.007  68.719  1.00  0.00    -0.381 C  
HETATM   33  C   UNL     1     -10.003  19.533  68.771  1.00  0.00    -0.547 C  
HETATM   34  C   UNL     1      -9.083  20.128  67.723  1.00  0.00    -0.403 C  
HETATM   35  C   UNL     1      -9.738  20.318  66.364  1.00  0.00    -0.488 C  
HETATM   36  C   UNL     1     -10.721  19.234  65.934  1.00  0.00    -0.463 C  
HETATM   37  C   UNL     1     -10.301  17.798  66.267  1.00  0.00    -0.358 C  
ENDBRANCH  30  31
ENDBRANCH  29  30
ENDBRANCH  28  29
ENDBRANCH  26  28
ENDBRANCH  21  22
ENDBRANCH   5  21
TORSDOF 7
ENDMDL
MODEL       64
REMARK 921   NORMALIZED FREE ENERGY PREDICTED BY IDOCK:   -5.59 KCAL/MOL
REMARK 922        TOTAL FREE ENERGY PREDICTED BY IDOCK:  -10.94 KCAL/MOL
REMARK 923 INTER-LIGAND FREE ENERGY PREDICTED BY IDOCK:   -8.97 KCAL/MOL
REMARK 924 INTRA-LIGAND FREE ENERGY PREDICTED BY IDOCK:   -1.96 KCAL/MOL
REMARK 927      BINDING AFFINITY PREDICTED BY RF-SCORE:    0.00 PKD
ROOT
HETATM    1  C   UNL     1     -10.235  14.075  66.656  1.00  0.00    -0.275 C  
HETATM    2  C   UNL     1     -10.790  13.032  67.573  1.00  0.00    -0.264 A  
HETATM    3  C   UNL     1     -10.592  11.644  67.600  1.00  0.00    -0.203 A  
HETATM    4  C   UNL     1     -12.788  13.605  71.213  1.00  0.00    -0.424 A  
HETATM    5  N   UNL     1     -11.299  11.171  68.730  1.00  0.00    -0.250 NA 
HETATM    6  O   UNL     1     -13.318  15.857  70.829  1.00  0.00    -0.704 OA 
HETATM    7  C   UNL     1     -11.728  12.256  69.491  1.00  0.00    -0.332 A  
HETATM    8  C   UNL     1     -12.756  14.699  70.379  1.00  0.00    -0.316 A  
HETATM    9  C   UNL     1     -11.593  13.391  68.697  1.00  0.00    -0.362 A  
HETATM   10  H   UNL     1     -13.746  15.907  71.676  1.00  0.00     0.000 HD 
HETATM   11  C   UNL     1     -12.240  12.392  70.795  1.00  0.00    -0.336 A  
HETATM   12  C   UNL     1     -12.130  14.626  69.141  1.00  0.00    -0.283 A  
ENDROOT
BRANCH   3  13
HETATM   13  C   UNL     1      -9.799  10.802  66.657  1.00  0.00    -0.241 A  
HETATM   14  C   UNL     1      -8.360   9.067  64.946  1.00  0.00    -0.169 A  
HETATM   15  H   UNL     1      -6.962   7.658  64.517  1.00  0.00     0.000 HD 
HETATM   16  C   UNL     1      -8.720  10.032  67.122  1.00  0.00    -0.132 A  
HETATM   17  C   UNL     1      -8.029   9.146  66.288  1.00  0.00    -0.103 A  
HETATM   18  O   UNL     1      -7.660   8.198  64.165  1.00  0.00    -0.112 OA 
HETATM   19  C   UNL     1     -10.113  10.692  65.291  1.00  0.00    -0.363 A  
HETATM   20  C   UNL     1      -9.380   9.856  64.432  1.00  0.00    -0.326 A  
ENDBRANCH   3  13
BRANCH   5  21
HETATM   21  C   UNL     1     -11.536   9.733  69.024  1.00  0.00     0.133 C  
BRANCH  21  22
HETATM   22  C   UNL     1     -11.190   9.238  70.406  1.00  0.00    -0.290 A  
HETATM   23  C   UNL     1      -9.519   8.506  71.991  1.00  0.00    -0.364 A  
HETATM   24  C   UNL     1     -11.835   8.174  72.507  1.00  0.00    -0.438 A  
HETATM   25  C   UNL     1      -9.854   9.120  70.788  1.00  0.00    -0.334 A  
HETATM   26  C   UNL     1     -10.502   7.931  72.804  1.00  0.00    -0.346 A  
HETATM   27  C   UNL     1     -12.161   8.900  71.362  1.00  0.00    -0.374 A  
BRANCH  26  28
HETATM   28  O   UNL     1     -10.246   7.106  73.883  1.00  0.00    -0.346 OA 
BRANCH  28  29
HETATM   29  C   UNL     1     -10.468   5.728  73.574  1.00  0.00    -0.256 C  
BRANCH  29  30
HETATM   30  C   UNL     1      -9.212   4.930  73.198  1.00  0.00    -0.118 C  
BRANCH  30  31
HETATM   31  N   UNL     1      -9.020   4.912  71.716  1.00  0.00    -0.134 NA 
HETATM   32  C   UNL     1      -8.261   3.722  71.294  1.00  0.00    -0.071 C  
HETATM   33  C   UNL     1      -7.960   3.552  69.806  1.00  0.00    -0.056 C  
HETATM   34  C   UNL     1      -9.188   3.179  68.998  1.00  0.00    -0.225 C  
HETATM   35  C   UNL     1     -10.026   4.371  68.566  1.00  0.00    -0.070 C  
HETATM   36  C   UNL     1     -10.140   5.512  69.571  1.00  0.00    -0.305 C  
HETATM   37  C   UNL     1     -10.308   5.085  71.033  1.00  0.00    -0.184 C  
ENDBRANCH  30  31
ENDBRANCH  29  30
ENDBRANCH  28  29
ENDBRANCH  26  28
ENDBRANCH  21  22
ENDBRANCH   5  21
TORSDOF 7
ENDMDL
MODEL       65
REMARK 921   NORMALIZED FREE ENERGY PREDICTED BY IDOCK:   -5.57 KCAL/MOL
REMARK 922        TOTAL FREE ENERGY PREDICTED BY IDOCK:  -10.91 KCAL/MOL
REMARK 923 INTER-LIGAND FREE ENERGY PREDICTED BY IDOCK:   -9.14 KCAL/MOL
REMARK 924 INTRA-LIGAND FREE ENERGY PREDICTED BY IDOCK:   -1.77 KCAL/MOL
REMARK 927      BINDING AFFINITY PREDICTED BY RF-SCORE:    0.00 PKD
ROOT
HETATM    1  C   UNL     1      -9.066   5.456  70.960  1.00  0.00    -0.167 C  
HETATM    2  C   UNL     1      -9.291   6.330  69.767  1.00  0.00    -0.152 A  
HETATM    3  C   UNL     1     -10.209   7.369  69.559  1.00  0.00    -0.204 A  
HETATM    4  C   UNL     1      -6.821   6.788  66.411  1.00  0.00    -0.061 A  
HETATM    5  N   UNL     1      -9.918   7.895  68.279  1.00  0.00    -0.174 NA 
HETATM    6  O   UNL     1      -5.605   4.813  66.752  1.00  0.00    -0.013 OA 
HETATM    7  C   UNL     1      -8.725   7.347  67.816  1.00  0.00    -0.126 A  
HETATM    8  C   UNL     1      -6.611   5.644  67.146  1.00  0.00    -0.056 A  
HETATM    9  C   UNL     1      -8.438   6.251  68.625  1.00  0.00    -0.122 A  
HETATM   10  H   UNL     1      -5.081   4.994  65.980  1.00  0.00     0.000 HD 
HETATM   11  C   UNL     1      -7.847   7.666  66.763  1.00  0.00    -0.107 A  
HETATM   12  C   UNL     1      -7.377   5.379  68.275  1.00  0.00    -0.072 A  
ENDROOT
BRANCH   3  13
HETATM   13  C   UNL     1     -11.281   7.856  70.475  1.00  0.00    -0.259 A  
HETATM   14  C   UNL     1     -13.362   8.889  72.090  1.00  0.00    -0.440 A  
HETATM   15  H   UNL     1     -14.316  10.334  73.151  1.00  0.00     0.000 HD 
HETATM   16  C   UNL     1     -11.233   9.160  70.999  1.00  0.00    -0.380 A  
HETATM   17  C   UNL     1     -12.278   9.687  71.768  1.00  0.00    -0.464 A  
HETATM   18  O   UNL     1     -14.355   9.435  72.846  1.00  0.00    -0.369 OA 
HETATM   19  C   UNL     1     -12.400   7.078  70.816  1.00  0.00    -0.307 A  
HETATM   20  C   UNL     1     -13.420   7.576  71.645  1.00  0.00    -0.429 A  
ENDBRANCH   3  13
BRANCH   5  21
HETATM   21  C   UNL     1     -10.780   8.874  67.564  1.00  0.00    -0.152 C  
BRANCH  21  22
HETATM   22  C   UNL     1     -10.571  10.338  67.867  1.00  0.00    -0.282 A  
HETATM   23  C   UNL     1     -11.449  12.588  67.947  1.00  0.00    -0.369 A  
HETATM   24  C   UNL     1      -9.089  12.251  68.187  1.00  0.00    -0.196 A  
HETATM   25  C   UNL     1     -11.654  11.215  67.840  1.00  0.00    -0.328 A  
HETATM   26  C   UNL     1     -10.156  13.120  68.009  1.00  0.00    -0.232 A  
HETATM   27  C   UNL     1      -9.318  10.877  68.203  1.00  0.00    -0.165 A  
BRANCH  26  28
HETATM   28  O   UNL     1      -9.852  14.461  67.882  1.00  0.00    -0.217 OA 
BRANCH  28  29
HETATM   29  C   UNL     1     -10.618  15.094  66.853  1.00  0.00    -0.297 C  
BRANCH  29  30
HETATM   30  C   UNL     1      -9.802  15.656  65.680  1.00  0.00    -0.333 C  
BRANCH  30  31
HETATM   31  N   UNL     1      -9.539  17.115  65.870  1.00  0.00    -0.529 NA 
HETATM   32  C   UNL     1     -10.655  17.766  66.579  1.00  0.00    -0.220 C  
HETATM   33  C   UNL     1     -10.557  19.267  66.845  1.00  0.00    -0.557 C  
HETATM   34  C   UNL     1      -9.544  19.609  67.920  1.00  0.00    -0.459 C  
HETATM   35  C   UNL     1      -8.119  19.733  67.405  1.00  0.00    -0.332 C  
HETATM   36  C   UNL     1      -7.712  18.753  66.310  1.00  0.00    -0.295 C  
HETATM   37  C   UNL     1      -8.224  17.319  66.489  1.00  0.00    -0.276 C  
ENDBRANCH  30  31
ENDBRANCH  29  30
ENDBRANCH  28  29
ENDBRANCH  26  28
ENDBRANCH  21  22
ENDBRANCH   5  21
TORSDOF 7
ENDMDL
MODEL       66
REMARK 921   NORMALIZED FREE ENERGY PREDICTED BY IDOCK:   -5.54 KCAL/MOL
REMARK 922        TOTAL FREE ENERGY PREDICTED BY IDOCK:  -10.87 KCAL/MOL
REMARK 923 INTER-LIGAND FREE ENERGY PREDICTED BY IDOCK:   -9.04 KCAL/MOL
REMARK 924 INTRA-LIGAND FREE ENERGY PREDICTED BY IDOCK:   -1.83 KCAL/MOL
REMARK 927      BINDING AFFINITY PREDICTED BY RF-SCORE:    0.00 PKD
ROOT
HETATM    1  C   UNL     1      -7.619   8.057  69.756  1.00  0.00    -0.092 C  
HETATM    2  C   UNL     1      -8.994   8.647  69.767  1.00  0.00    -0.145 A  
HETATM    3  C   UNL     1      -9.709   9.311  68.759  1.00  0.00    -0.157 A  
HETATM    4  C   UNL     1     -12.010   8.091  72.624  1.00  0.00    -0.334 A  
HETATM    5  N   UNL     1     -10.987   9.578  69.300  1.00  0.00    -0.190 NA 
HETATM    6  O   UNL     1     -10.585   7.305  74.310  1.00  0.00    -0.535 OA 
HETATM    7  C   UNL     1     -11.125   8.905  70.511  1.00  0.00    -0.251 A  
HETATM    8  C   UNL     1     -10.735   7.793  73.047  1.00  0.00    -0.384 A  
HETATM    9  C   UNL     1      -9.851   8.496  70.897  1.00  0.00    -0.234 A  
HETATM   10  H   UNL     1     -11.325   7.198  74.896  1.00  0.00     0.000 HD 
HETATM   11  C   UNL     1     -12.219   8.607  71.344  1.00  0.00    -0.348 A  
HETATM   12  C   UNL     1      -9.653   7.948  72.190  1.00  0.00    -0.255 A  
ENDROOT
BRANCH   3  13
HETATM   13  C   UNL     1      -9.253   9.672  67.385  1.00  0.00    -0.148 A  
HETATM   14  C   UNL     1      -8.240  10.281  64.814  1.00  0.00    -0.163 A  
HETATM   15  H   UNL     1      -6.980  11.191  63.507  1.00  0.00     0.000 HD 
HETATM   16  C   UNL     1      -8.227  10.614  67.198  1.00  0.00    -0.121 A  
HETATM   17  C   UNL     1      -7.698  10.891  65.932  1.00  0.00    -0.073 A  
HETATM   18  O   UNL     1      -7.703  10.581  63.599  1.00  0.00    -0.092 OA 
HETATM   19  C   UNL     1      -9.774   9.067  66.228  1.00  0.00    -0.345 A  
HETATM   20  C   UNL     1      -9.296   9.391  64.948  1.00  0.00    -0.218 A  
ENDBRANCH   3  13
BRANCH   5  21
HETATM   21  C   UNL     1     -12.001  10.453  68.652  1.00  0.00     0.287 C  
BRANCH  21  22
HETATM   22  C   UNL     1     -11.735  11.938  68.642  1.00  0.00    -0.380 A  
HETATM   23  C   UNL     1     -11.740  14.055  69.807  1.00  0.00    -0.375 A  
HETATM   24  C   UNL     1     -11.437  14.037  67.431  1.00  0.00    -0.373 A  
HETATM   25  C   UNL     1     -11.813  12.666  69.829  1.00  0.00    -0.379 A  
HETATM   26  C   UNL     1     -11.664  14.753  68.597  1.00  0.00    -0.325 A  
HETATM   27  C   UNL     1     -11.386  12.644  67.480  1.00  0.00    -0.361 A  
BRANCH  26  28
HETATM   28  O   UNL     1     -11.823  16.119  68.467  1.00  0.00    -0.300 OA 
BRANCH  28  29
HETATM   29  C   UNL     1     -10.651  16.839  68.859  1.00  0.00    -0.350 C  
BRANCH  29  30
HETATM   30  C   UNL     1      -9.712  17.239  67.713  1.00  0.00    -0.270 C  
BRANCH  30  31
HETATM   31  N   UNL     1      -8.976  18.497  68.045  1.00  0.00    -0.294 NA 
HETATM   32  C   UNL     1      -7.829  18.221  68.927  1.00  0.00    -0.195 C  
HETATM   33  C   UNL     1      -6.972  19.402  69.380  1.00  0.00    -0.330 C  
HETATM   34  C   UNL     1      -6.108  19.962  68.266  1.00  0.00    -0.281 C  
HETATM   35  C   UNL     1      -6.821  20.976  67.386  1.00  0.00    -0.434 C  
HETATM   36  C   UNL     1      -8.291  20.696  67.092  1.00  0.00    -0.292 C  
HETATM   37  C   UNL     1      -8.637  19.228  66.818  1.00  0.00    -0.307 C  
ENDBRANCH  30  31
ENDBRANCH  29  30
ENDBRANCH  28  29
ENDBRANCH  26  28
ENDBRANCH  21  22
ENDBRANCH   5  21
TORSDOF 7
ENDMDL
MODEL       67
REMARK 921   NORMALIZED FREE ENERGY PREDICTED BY IDOCK:   -5.51 KCAL/MOL
REMARK 922        TOTAL FREE ENERGY PREDICTED BY IDOCK:  -10.83 KCAL/MOL
REMARK 923 INTER-LIGAND FREE ENERGY PREDICTED BY IDOCK:   -8.69 KCAL/MOL
REMARK 924 INTRA-LIGAND FREE ENERGY PREDICTED BY IDOCK:   -2.14 KCAL/MOL
REMARK 927      BINDING AFFINITY PREDICTED BY RF-SCORE:    0.00 PKD
ROOT
HETATM    1  C   UNL     1      -8.797   4.773  71.558  1.00  0.00    -0.151 C  
HETATM    2  C   UNL     1      -9.156   5.125  70.148  1.00  0.00    -0.167 A  
HETATM    3  C   UNL     1     -10.010   6.118  69.646  1.00  0.00    -0.168 A  
HETATM    4  C   UNL     1      -7.282   3.852  66.622  1.00  0.00    -0.068 A  
HETATM    5  N   UNL     1      -9.905   6.045  68.238  1.00  0.00    -0.127 NA 
HETATM    6  O   UNL     1      -6.188   2.020  67.594  1.00  0.00    -0.024 OA 
HETATM    7  C   UNL     1      -8.859   5.191  67.897  1.00  0.00    -0.102 A  
HETATM    8  C   UNL     1      -7.039   3.075  67.732  1.00  0.00    -0.050 A  
HETATM    9  C   UNL     1      -8.525   4.477  69.044  1.00  0.00    -0.090 A  
HETATM   10  H   UNL     1      -5.794   1.803  66.757  1.00  0.00     0.000 HD 
HETATM   11  C   UNL     1      -8.156   4.936  66.705  1.00  0.00    -0.107 A  
HETATM   12  C   UNL     1      -7.615   3.394  68.956  1.00  0.00    -0.052 A  
ENDROOT
BRANCH   3  13
HETATM   13  C   UNL     1     -10.862   7.078  70.406  1.00  0.00    -0.283 A  
HETATM   14  C   UNL     1     -12.470   9.006  71.713  1.00  0.00    -0.368 A  
HETATM   15  H   UNL     1     -12.841  10.810  72.568  1.00  0.00     0.000 HD 
HETATM   16  C   UNL     1     -10.335   8.304  70.848  1.00  0.00    -0.225 A  
HETATM   17  C   UNL     1     -11.135   9.275  71.462  1.00  0.00    -0.443 A  
HETATM   18  O   UNL     1     -13.214   9.973  72.318  1.00  0.00    -0.427 OA 
HETATM   19  C   UNL     1     -12.222   6.842  70.670  1.00  0.00    -0.311 A  
HETATM   20  C   UNL     1     -13.015   7.783  71.348  1.00  0.00    -0.322 A  
ENDBRANCH   3  13
BRANCH   5  21
HETATM   21  C   UNL     1     -10.797   6.775  67.297  1.00  0.00    -0.373 C  
BRANCH  21  22
HETATM   22  C   UNL     1     -10.449   8.208  66.978  1.00  0.00    -0.396 A  
HETATM   23  C   UNL     1     -10.843  10.567  67.325  1.00  0.00    -0.338 A  
HETATM   24  C   UNL     1      -9.464   9.875  65.492  1.00  0.00    -0.313 A  
HETATM   25  C   UNL     1     -11.020   9.243  67.717  1.00  0.00    -0.072 A  
HETATM   26  C   UNL     1     -10.157  10.883  66.147  1.00  0.00    -0.239 A  
HETATM   27  C   UNL     1      -9.545   8.567  65.965  1.00  0.00    -0.236 A  
BRANCH  26  28
HETATM   28  O   UNL     1     -10.135  12.135  65.563  1.00  0.00    -0.241 OA 
BRANCH  28  29
HETATM   29  C   UNL     1     -11.010  13.054  66.222  1.00  0.00    -0.284 C  
BRANCH  29  30
HETATM   30  C   UNL     1     -10.316  14.217  66.944  1.00  0.00    -0.268 C  
BRANCH  30  31
HETATM   31  N   UNL     1     -10.708  14.255  68.386  1.00  0.00    -0.244 NA 
HETATM   32  C   UNL     1     -10.772  15.641  68.881  1.00  0.00    -0.238 C  
HETATM   33  C   UNL     1     -11.145  15.864  70.345  1.00  0.00    -0.382 C  
HETATM   34  C   UNL     1     -12.609  15.590  70.626  1.00  0.00    -0.493 C  
HETATM   35  C   UNL     1     -12.921  14.127  70.898  1.00  0.00    -0.374 C  
HETATM   36  C   UNL     1     -12.139  13.109  70.075  1.00  0.00    -0.375 C  
HETATM   37  C   UNL     1     -11.932  13.475  68.601  1.00  0.00    -0.343 C  
ENDBRANCH  30  31
ENDBRANCH  29  30
ENDBRANCH  28  29
ENDBRANCH  26  28
ENDBRANCH  21  22
ENDBRANCH   5  21
TORSDOF 7
ENDMDL
MODEL       68
REMARK 921   NORMALIZED FREE ENERGY PREDICTED BY IDOCK:   -5.50 KCAL/MOL
REMARK 922        TOTAL FREE ENERGY PREDICTED BY IDOCK:  -10.81 KCAL/MOL
REMARK 923 INTER-LIGAND FREE ENERGY PREDICTED BY IDOCK:   -8.53 KCAL/MOL
REMARK 924 INTRA-LIGAND FREE ENERGY PREDICTED BY IDOCK:   -2.28 KCAL/MOL
REMARK 927      BINDING AFFINITY PREDICTED BY RF-SCORE:    0.00 PKD
ROOT
HETATM    1  C   UNL     1      -9.784   4.171  69.557  1.00  0.00    -0.254 C  
HETATM    2  C   UNL     1      -9.497   5.626  69.358  1.00  0.00    -0.169 A  
HETATM    3  C   UNL     1      -8.918   6.300  68.272  1.00  0.00    -0.115 A  
HETATM    4  C   UNL     1     -10.893   8.860  71.629  1.00  0.00    -0.420 A  
HETATM    5  N   UNL     1      -8.967   7.675  68.597  1.00  0.00    -0.133 NA 
HETATM    6  O   UNL     1     -11.496   7.581  73.499  1.00  0.00    -0.608 OA 
HETATM    7  C   UNL     1      -9.748   7.852  69.737  1.00  0.00    -0.176 A  
HETATM    8  C   UNL     1     -10.951   7.634  72.251  1.00  0.00    -0.279 A  
HETATM    9  C   UNL     1      -9.912   6.597  70.317  1.00  0.00    -0.191 A  
HETATM   10  H   UNL     1     -11.800   8.364  73.944  1.00  0.00     0.000 HD 
HETATM   11  C   UNL     1     -10.332   8.972  70.356  1.00  0.00    -0.253 A  
HETATM   12  C   UNL     1     -10.507   6.490  71.600  1.00  0.00    -0.241 A  
ENDROOT
BRANCH   3  13
HETATM   13  C   UNL     1      -8.362   5.723  67.013  1.00  0.00    -0.108 A  
HETATM   14  C   UNL     1      -7.282   4.483  64.711  1.00  0.00    -0.063 A  
HETATM   15  H   UNL     1      -5.810   3.613  63.616  1.00  0.00     0.000 HD 
HETATM   16  C   UNL     1      -6.998   5.399  66.919  1.00  0.00    -0.065 A  
HETATM   17  C   UNL     1      -6.467   4.752  65.797  1.00  0.00    -0.040 A  
HETATM   18  O   UNL     1      -6.727   3.859  63.635  1.00  0.00    -0.040 OA 
HETATM   19  C   UNL     1      -9.161   5.428  65.896  1.00  0.00    -0.165 A  
HETATM   20  C   UNL     1      -8.622   4.843  64.738  1.00  0.00    -0.149 A  
ENDBRANCH   3  13
BRANCH   5  21
HETATM   21  C   UNL     1      -8.274   8.740  67.824  1.00  0.00    -0.111 C  
BRANCH  21  22
HETATM   22  C   UNL     1      -8.994   9.313  66.628  1.00  0.00    -0.165 A  
HETATM   23  C   UNL     1      -9.000   9.862  64.275  1.00  0.00    -0.278 A  
HETATM   24  C   UNL     1     -10.736  10.734  65.676  1.00  0.00    -0.142 A  
HETATM   25  C   UNL     1      -8.436   9.192  65.356  1.00  0.00    -0.163 A  
HETATM   26  C   UNL     1     -10.088  10.725  64.450  1.00  0.00    -0.353 A  
HETATM   27  C   UNL     1     -10.236   9.961  66.723  1.00  0.00    -0.301 A  
BRANCH  26  28
HETATM   28  O   UNL     1     -10.558  11.600  63.491  1.00  0.00    -0.372 OA 
BRANCH  28  29
HETATM   29  C   UNL     1     -11.865  12.092  63.803  1.00  0.00    -0.500 C  
BRANCH  29  30
HETATM   30  C   UNL     1     -12.050  13.608  63.646  1.00  0.00    -0.342 C  
BRANCH  30  31
HETATM   31  N   UNL     1     -11.731  14.315  64.923  1.00  0.00    -0.377 NA 
HETATM   32  C   UNL     1     -12.363  13.644  66.072  1.00  0.00    -0.445 C  
HETATM   33  C   UNL     1     -12.152  14.246  67.460  1.00  0.00    -0.347 C  
HETATM   34  C   UNL     1     -10.745  14.036  67.984  1.00  0.00    -0.253 C  
HETATM   35  C   UNL     1      -9.751  15.086  67.514  1.00  0.00    -0.215 C  
HETATM   36  C   UNL     1      -9.925  15.583  66.083  1.00  0.00    -0.332 C  
HETATM   37  C   UNL     1     -10.282  14.506  65.052  1.00  0.00    -0.365 C  
ENDBRANCH  30  31
ENDBRANCH  29  30
ENDBRANCH  28  29
ENDBRANCH  26  28
ENDBRANCH  21  22
ENDBRANCH   5  21
TORSDOF 7
ENDMDL
MODEL       69
REMARK 921   NORMALIZED FREE ENERGY PREDICTED BY IDOCK:   -5.50 KCAL/MOL
REMARK 922        TOTAL FREE ENERGY PREDICTED BY IDOCK:  -10.81 KCAL/MOL
REMARK 923 INTER-LIGAND FREE ENERGY PREDICTED BY IDOCK:   -8.66 KCAL/MOL
REMARK 924 INTRA-LIGAND FREE ENERGY PREDICTED BY IDOCK:   -2.16 KCAL/MOL
REMARK 927      BINDING AFFINITY PREDICTED BY RF-SCORE:    0.00 PKD
ROOT
HETATM    1  C   UNL     1     -11.136   6.680  67.326  1.00  0.00    -0.418 C  
HETATM    2  C   UNL     1      -9.942   7.583  67.343  1.00  0.00    -0.246 A  
HETATM    3  C   UNL     1      -9.645   8.685  68.157  1.00  0.00    -0.147 A  
HETATM    4  C   UNL     1      -6.259   7.014  65.425  1.00  0.00    -0.037 A  
HETATM    5  N   UNL     1      -8.348   9.106  67.784  1.00  0.00    -0.116 NA 
HETATM    6  O   UNL     1      -7.039   5.406  63.907  1.00  0.00    -0.046 OA 
HETATM    7  C   UNL     1      -7.785   8.161  66.930  1.00  0.00    -0.096 A  
HETATM    8  C   UNL     1      -7.306   6.274  64.923  1.00  0.00    -0.075 A  
HETATM    9  C   UNL     1      -8.817   7.332  66.502  1.00  0.00    -0.156 A  
HETATM   10  H   UNL     1      -6.169   5.329  63.532  1.00  0.00     0.000 HD 
HETATM   11  C   UNL     1      -6.480   7.928  66.455  1.00  0.00    -0.051 A  
HETATM   12  C   UNL     1      -8.577   6.387  65.472  1.00  0.00    -0.115 A  
ENDROOT
BRANCH   3  13
HETATM   13  C   UNL     1     -10.490   9.310  69.217  1.00  0.00    -0.228 A  
HETATM   14  C   UNL     1     -12.231  10.425  71.149  1.00  0.00    -0.394 A  
HETATM   15  H   UNL     1     -13.728  11.639  71.785  1.00  0.00     0.000 HD 
HETATM   16  C   UNL     1     -11.383  10.347  68.897  1.00  0.00    -0.278 A  
HETATM   17  C   UNL     1     -12.271  10.876  69.841  1.00  0.00    -0.408 A  
HETATM   18  O   UNL     1     -13.106  10.968  72.040  1.00  0.00    -0.496 OA 
HETATM   19  C   UNL     1     -10.482   8.871  70.552  1.00  0.00    -0.257 A  
HETATM   20  C   UNL     1     -11.321   9.445  71.521  1.00  0.00    -0.464 A  
ENDBRANCH   3  13
BRANCH   5  21
HETATM   21  C   UNL     1      -7.717  10.372  68.244  1.00  0.00    -0.096 C  
BRANCH  21  22
HETATM   22  C   UNL     1      -8.226  11.661  67.646  1.00  0.00    -0.141 A  
HETATM   23  C   UNL     1      -8.522  14.053  67.816  1.00  0.00    -0.184 A  
HETATM   24  C   UNL     1      -9.693  12.855  66.103  1.00  0.00    -0.250 A  
HETATM   25  C   UNL     1      -7.921  12.878  68.255  1.00  0.00    -0.151 A  
HETATM   26  C   UNL     1      -9.495  14.032  66.811  1.00  0.00    -0.282 A  
HETATM   27  C   UNL     1      -8.992  11.708  66.471  1.00  0.00    -0.191 A  
BRANCH  26  28
HETATM   28  O   UNL     1     -10.304  15.101  66.478  1.00  0.00    -0.269 OA 
BRANCH  28  29
HETATM   29  C   UNL     1     -11.304  15.352  67.470  1.00  0.00    -0.269 C  
BRANCH  29  30
HETATM   30  C   UNL     1     -11.099  16.626  68.300  1.00  0.00    -0.295 C  
BRANCH  30  31
HETATM   31  N   UNL     1     -10.139  17.550  67.623  1.00  0.00    -0.314 NA 
HETATM   32  C   UNL     1     -10.805  18.798  67.212  1.00  0.00    -0.340 C  
HETATM   33  C   UNL     1      -9.970  19.853  66.488  1.00  0.00    -0.591 C  
HETATM   34  C   UNL     1      -8.994  20.561  67.407  1.00  0.00    -0.420 C  
HETATM   35  C   UNL     1      -7.677  19.823  67.591  1.00  0.00    -0.317 C  
HETATM   36  C   UNL     1      -7.762  18.302  67.657  1.00  0.00    -0.230 C  
HETATM   37  C   UNL     1      -8.945  17.745  68.455  1.00  0.00    -0.287 C  
ENDBRANCH  30  31
ENDBRANCH  29  30
ENDBRANCH  28  29
ENDBRANCH  26  28
ENDBRANCH  21  22
ENDBRANCH   5  21
TORSDOF 7
ENDMDL
MODEL       70
REMARK 921   NORMALIZED FREE ENERGY PREDICTED BY IDOCK:   -5.50 KCAL/MOL
REMARK 922        TOTAL FREE ENERGY PREDICTED BY IDOCK:  -10.81 KCAL/MOL
REMARK 923 INTER-LIGAND FREE ENERGY PREDICTED BY IDOCK:   -8.78 KCAL/MOL
REMARK 924 INTRA-LIGAND FREE ENERGY PREDICTED BY IDOCK:   -2.03 KCAL/MOL
REMARK 927      BINDING AFFINITY PREDICTED BY RF-SCORE:    0.00 PKD
ROOT
HETATM    1  C   UNL     1      -8.197   5.460  70.470  1.00  0.00    -0.110 C  
HETATM    2  C   UNL     1      -8.636   6.223  69.260  1.00  0.00    -0.124 A  
HETATM    3  C   UNL     1      -9.664   7.163  69.100  1.00  0.00    -0.158 A  
HETATM    4  C   UNL     1      -6.618   6.641  65.610  1.00  0.00    -0.050 A  
HETATM    5  N   UNL     1      -9.571   7.617  67.764  1.00  0.00    -0.142 NA 
HETATM    6  O   UNL     1      -5.195   4.806  65.925  1.00  0.00    -0.008 OA 
HETATM    7  C   UNL     1      -8.392   7.139  67.196  1.00  0.00    -0.118 A  
HETATM    8  C   UNL     1      -6.222   5.576  66.385  1.00  0.00    -0.034 A  
HETATM    9  C   UNL     1      -7.916   6.133  68.032  1.00  0.00    -0.110 A  
HETATM   10  H   UNL     1      -4.782   4.974  65.086  1.00  0.00     0.000 HD 
HETATM   11  C   UNL     1      -7.674   7.453  66.028  1.00  0.00    -0.095 A  
HETATM   12  C   UNL     1      -6.826   5.330  67.611  1.00  0.00    -0.060 A  
ENDROOT
BRANCH   3  13
HETATM   13  C   UNL     1     -10.665   7.624  70.106  1.00  0.00    -0.245 A  
HETATM   14  C   UNL     1     -12.607   8.622  71.906  1.00  0.00    -0.359 A  
HETATM   15  H   UNL     1     -13.419  10.011  73.144  1.00  0.00     0.000 HD 
HETATM   16  C   UNL     1     -10.507   8.862  70.753  1.00  0.00    -0.283 A  
HETATM   17  C   UNL     1     -11.483   9.375  71.615  1.00  0.00    -0.463 A  
HETATM   18  O   UNL     1     -13.531   9.152  72.754  1.00  0.00    -0.424 OA 
HETATM   19  C   UNL     1     -11.821   6.889  70.418  1.00  0.00    -0.351 A  
HETATM   20  C   UNL     1     -12.772   7.366  71.336  1.00  0.00    -0.408 A  
ENDBRANCH   3  13
BRANCH   5  21
HETATM   21  C   UNL     1     -10.595   8.466  67.098  1.00  0.00    -0.256 C  
BRANCH  21  22
HETATM   22  C   UNL     1     -10.475   9.961  67.264  1.00  0.00    -0.319 A  
HETATM   23  C   UNL     1     -11.349  12.027  68.162  1.00  0.00    -0.349 A  
HETATM   24  C   UNL     1      -9.601  12.118  66.527  1.00  0.00    -0.235 A  
HETATM   25  C   UNL     1     -11.335  10.636  68.130  1.00  0.00    -0.354 A  
HETATM   26  C   UNL     1     -10.562  12.777  67.281  1.00  0.00    -0.233 A  
HETATM   27  C   UNL     1      -9.509  10.729  66.594  1.00  0.00    -0.201 A  
BRANCH  26  28
HETATM   28  O   UNL     1     -10.683  14.138  67.082  1.00  0.00    -0.277 OA 
BRANCH  28  29
HETATM   29  C   UNL     1     -10.380  14.886  68.263  1.00  0.00    -0.232 C  
BRANCH  29  30
HETATM   30  C   UNL     1     -11.561  15.652  68.875  1.00  0.00    -0.383 C  
BRANCH  30  31
HETATM   31  N   UNL     1     -11.846  15.166  70.260  1.00  0.00    -0.287 NA 
HETATM   32  C   UNL     1     -11.432  16.160  71.265  1.00  0.00    -0.375 C  
HETATM   33  C   UNL     1     -11.638  15.818  72.740  1.00  0.00    -0.405 C  
HETATM   34  C   UNL     1     -13.096  15.860  73.154  1.00  0.00    -0.673 C  
HETATM   35  C   UNL     1     -13.851  14.570  72.877  1.00  0.00    -0.201 C  
HETATM   36  C   UNL     1     -13.485  13.839  71.590  1.00  0.00    -0.409 C  
HETATM   37  C   UNL     1     -13.245  14.736  70.371  1.00  0.00    -0.048 C  
ENDBRANCH  30  31
ENDBRANCH  29  30
ENDBRANCH  28  29
ENDBRANCH  26  28
ENDBRANCH  21  22
ENDBRANCH   5  21
TORSDOF 7
ENDMDL
MODEL       71
REMARK 921   NORMALIZED FREE ENERGY PREDICTED BY IDOCK:   -5.45 KCAL/MOL
REMARK 922        TOTAL FREE ENERGY PREDICTED BY IDOCK:  -10.75 KCAL/MOL
REMARK 923 INTER-LIGAND FREE ENERGY PREDICTED BY IDOCK:   -8.47 KCAL/MOL
REMARK 924 INTRA-LIGAND FREE ENERGY PREDICTED BY IDOCK:   -2.28 KCAL/MOL
REMARK 927      BINDING AFFINITY PREDICTED BY RF-SCORE:    0.00 PKD
ROOT
HETATM    1  C   UNL     1     -10.305  16.826  66.328  1.00  0.00    -0.316 C  
HETATM    2  C   UNL     1      -9.512  15.634  66.763  1.00  0.00    -0.261 A  
HETATM    3  C   UNL     1      -9.619  14.285  66.396  1.00  0.00    -0.298 A  
HETATM    4  C   UNL     1      -5.885  15.586  68.864  1.00  0.00    -0.102 A  
HETATM    5  N   UNL     1      -8.561  13.617  67.055  1.00  0.00    -0.193 NA 
HETATM    6  O   UNL     1      -6.054  17.784  69.661  1.00  0.00    -0.242 OA 
HETATM    7  C   UNL     1      -7.705  14.559  67.623  1.00  0.00    -0.179 A  
HETATM    8  C   UNL     1      -6.604  16.756  68.955  1.00  0.00    -0.205 A  
HETATM    9  C   UNL     1      -8.379  15.777  67.618  1.00  0.00    -0.170 A  
HETATM   10  H   UNL     1      -5.218  17.695  70.102  1.00  0.00     0.000 HD 
HETATM   11  C   UNL     1      -6.408  14.497  68.165  1.00  0.00    -0.145 A  
HETATM   12  C   UNL     1      -7.827  16.885  68.309  1.00  0.00    -0.208 A  
ENDROOT
BRANCH   3  13
HETATM   13  C   UNL     1     -10.621  13.647  65.494  1.00  0.00    -0.300 A  
HETATM   14  C   UNL     1     -12.443  12.286  63.810  1.00  0.00    -0.515 A  
HETATM   15  H   UNL     1     -12.977  11.225  62.163  1.00  0.00     0.000 HD 
HETATM   16  C   UNL     1     -10.232  13.132  64.246  1.00  0.00    -0.283 A  
HETATM   17  C   UNL     1     -11.120  12.427  63.426  1.00  0.00    -0.465 A  
HETATM   18  O   UNL     1     -13.279  11.599  62.983  1.00  0.00    -0.411 OA 
HETATM   19  C   UNL     1     -11.969  13.478  65.855  1.00  0.00    -0.444 A  
HETATM   20  C   UNL     1     -12.884  12.832  65.007  1.00  0.00    -0.312 A  
ENDBRANCH   3  13
BRANCH   5  21
HETATM   21  C   UNL     1      -8.418  12.138  67.117  1.00  0.00    -0.182 C  
BRANCH  21  22
HETATM   22  C   UNL     1      -9.104  11.420  68.252  1.00  0.00    -0.179 A  
HETATM   23  C   UNL     1      -9.000   9.825  70.065  1.00  0.00    -0.255 A  
HETATM   24  C   UNL     1     -11.139  10.636  69.352  1.00  0.00    -0.315 A  
HETATM   25  C   UNL     1      -8.360  10.625  69.123  1.00  0.00    -0.140 A  
HETATM   26  C   UNL     1     -10.396   9.742  70.109  1.00  0.00    -0.282 A  
HETATM   27  C   UNL     1     -10.483  11.524  68.500  1.00  0.00    -0.228 A  
BRANCH  26  28
HETATM   28  O   UNL     1     -11.105   8.809  70.841  1.00  0.00    -0.247 OA 
BRANCH  28  29
HETATM   29  C   UNL     1     -10.560   7.493  70.712  1.00  0.00    -0.220 C  
BRANCH  29  30
HETATM   30  C   UNL     1     -10.844   6.794  69.375  1.00  0.00    -0.271 C  
BRANCH  30  31
HETATM   31  N   UNL     1      -9.727   7.023  68.410  1.00  0.00    -0.138 NA 
HETATM   32  C   UNL     1      -8.927   5.799  68.226  1.00  0.00    -0.115 C  
HETATM   33  C   UNL     1      -7.730   5.860  67.279  1.00  0.00    -0.101 C  
HETATM   34  C   UNL     1      -8.137   5.932  65.820  1.00  0.00    -0.121 C  
HETATM   35  C   UNL     1      -8.435   7.342  65.334  1.00  0.00    -0.096 C  
HETATM   36  C   UNL     1      -9.135   8.262  66.329  1.00  0.00    -0.235 C  
HETATM   37  C   UNL     1     -10.240   7.606  67.165  1.00  0.00    -0.290 C  
ENDBRANCH  30  31
ENDBRANCH  29  30
ENDBRANCH  28  29
ENDBRANCH  26  28
ENDBRANCH  21  22
ENDBRANCH   5  21
TORSDOF 7
ENDMDL
MODEL       72
REMARK 921   NORMALIZED FREE ENERGY PREDICTED BY IDOCK:   -5.45 KCAL/MOL
REMARK 922        TOTAL FREE ENERGY PREDICTED BY IDOCK:  -10.74 KCAL/MOL
REMARK 923 INTER-LIGAND FREE ENERGY PREDICTED BY IDOCK:   -8.00 KCAL/MOL
REMARK 924 INTRA-LIGAND FREE ENERGY PREDICTED BY IDOCK:   -2.75 KCAL/MOL
REMARK 927      BINDING AFFINITY PREDICTED BY RF-SCORE:    0.00 PKD
ROOT
HETATM    1  C   UNL     1     -12.036  12.859  66.440  1.00  0.00    -0.462 C  
HETATM    2  C   UNL     1     -10.592  13.123  66.730  1.00  0.00    -0.267 A  
HETATM    3  C   UNL     1      -9.488  12.258  66.721  1.00  0.00    -0.222 A  
HETATM    4  C   UNL     1      -8.673  16.833  67.074  1.00  0.00    -0.226 A  
HETATM    5  N   UNL     1      -8.359  13.065  66.993  1.00  0.00    -0.142 NA 
HETATM    6  O   UNL     1     -10.634  18.073  67.409  1.00  0.00    -0.386 OA 
HETATM    7  C   UNL     1      -8.730  14.407  66.947  1.00  0.00    -0.193 A  
HETATM    8  C   UNL     1     -10.041  16.861  67.222  1.00  0.00    -0.286 A  
HETATM    9  C   UNL     1     -10.121  14.446  66.982  1.00  0.00    -0.256 A  
HETATM   10  H   UNL     1     -10.126  18.874  67.466  1.00  0.00     0.000 HD 
HETATM   11  C   UNL     1      -8.014  15.617  66.894  1.00  0.00    -0.278 A  
HETATM   12  C   UNL     1     -10.784  15.690  67.139  1.00  0.00    -0.314 A  
ENDROOT
BRANCH   3  13
HETATM   13  C   UNL     1      -9.465  10.787  66.473  1.00  0.00    -0.197 A  
HETATM   14  C   UNL     1      -9.252   8.000  66.030  1.00  0.00    -0.120 A  
HETATM   15  H   UNL     1      -8.621   6.343  65.041  1.00  0.00     0.000 HD 
HETATM   16  C   UNL     1      -8.817  10.265  65.339  1.00  0.00    -0.192 A  
HETATM   17  C   UNL     1      -8.678   8.887  65.136  1.00  0.00    -0.213 A  
HETATM   18  O   UNL     1      -9.101   6.667  65.794  1.00  0.00    -0.093 OA 
HETATM   19  C   UNL     1     -10.028   9.857  67.363  1.00  0.00    -0.235 A  
HETATM   20  C   UNL     1      -9.953   8.474  67.130  1.00  0.00    -0.304 A  
ENDBRANCH   3  13
BRANCH   5  21
HETATM   21  C   UNL     1      -7.002  12.530  67.285  1.00  0.00    -0.112 C  
BRANCH  21  22
HETATM   22  C   UNL     1      -6.909  11.316  68.176  1.00  0.00    -0.067 A  
HETATM   23  C   UNL     1      -6.332   8.987  68.459  1.00  0.00    -0.054 A  
HETATM   24  C   UNL     1      -7.591  10.088  70.173  1.00  0.00    -0.168 A  
HETATM   25  C   UNL     1      -6.274  10.163  67.717  1.00  0.00    -0.057 A  
HETATM   26  C   UNL     1      -7.084   8.914  69.636  1.00  0.00    -0.054 A  
HETATM   27  C   UNL     1      -7.421  11.288  69.483  1.00  0.00     0.073 A  
BRANCH  26  28
HETATM   28  O   UNL     1      -7.387   7.743  70.303  1.00  0.00    -0.065 OA 
BRANCH  28  29
HETATM   29  C   UNL     1      -8.590   7.854  71.069  1.00  0.00    -0.131 C  
BRANCH  29  30
HETATM   30  C   UNL     1      -9.769   7.010  70.564  1.00  0.00    -0.176 C  
BRANCH  30  31
HETATM   31  N   UNL     1     -11.037   7.800  70.595  1.00  0.00    -0.255 NA 
HETATM   32  C   UNL     1     -12.073   7.108  71.382  1.00  0.00    -0.344 C  
HETATM   33  C   UNL     1     -13.443   7.771  71.505  1.00  0.00    -0.379 C  
HETATM   34  C   UNL     1     -13.427   8.988  72.410  1.00  0.00    -0.524 C  
HETATM   35  C   UNL     1     -13.007  10.270  71.710  1.00  0.00    -0.574 C  
HETATM   36  C   UNL     1     -11.910  10.134  70.659  1.00  0.00    -0.431 C  
HETATM   37  C   UNL     1     -10.769   9.178  71.022  1.00  0.00    -0.293 C  
ENDBRANCH  30  31
ENDBRANCH  29  30
ENDBRANCH  28  29
ENDBRANCH  26  28
ENDBRANCH  21  22
ENDBRANCH   5  21
TORSDOF 7
ENDMDL
MODEL       73
REMARK 921   NORMALIZED FREE ENERGY PREDICTED BY IDOCK:   -5.44 KCAL/MOL
REMARK 922        TOTAL FREE ENERGY PREDICTED BY IDOCK:  -10.73 KCAL/MOL
REMARK 923 INTER-LIGAND FREE ENERGY PREDICTED BY IDOCK:   -9.52 KCAL/MOL
REMARK 924 INTRA-LIGAND FREE ENERGY PREDICTED BY IDOCK:   -1.21 KCAL/MOL
REMARK 927      BINDING AFFINITY PREDICTED BY RF-SCORE:    0.00 PKD
ROOT
HETATM    1  C   UNL     1     -11.054  15.433  70.323  1.00  0.00    -0.331 C  
HETATM    2  C   UNL     1     -11.063  14.665  69.038  1.00  0.00    -0.273 A  
HETATM    3  C   UNL     1     -11.396  13.328  68.778  1.00  0.00    -0.290 A  
HETATM    4  C   UNL     1     -10.795  16.175  65.138  1.00  0.00    -0.376 A  
HETATM    5  N   UNL     1     -11.303  13.169  67.376  1.00  0.00    -0.290 NA 
HETATM    6  O   UNL     1      -9.920  18.260  65.760  1.00  0.00    -0.540 OA 
HETATM    7  C   UNL     1     -11.137  14.418  66.781  1.00  0.00    -0.323 A  
HETATM    8  C   UNL     1     -10.348  17.019  66.128  1.00  0.00    -0.319 A  
HETATM    9  C   UNL     1     -10.795  15.310  67.794  1.00  0.00    -0.295 A  
HETATM   10  H   UNL     1      -9.900  18.530  64.849  1.00  0.00     0.000 HD 
HETATM   11  C   UNL     1     -11.230  14.889  65.459  1.00  0.00    -0.348 A  
HETATM   12  C   UNL     1     -10.378  16.623  67.460  1.00  0.00    -0.294 A  
ENDROOT
BRANCH   3  13
HETATM   13  C   UNL     1     -11.784  12.264  69.749  1.00  0.00    -0.368 A  
HETATM   14  C   UNL     1     -12.681  10.268  71.544  1.00  0.00    -0.452 A  
HETATM   15  H   UNL     1     -13.702   9.577  73.157  1.00  0.00     0.000 HD 
HETATM   16  C   UNL     1     -12.537  12.582  70.893  1.00  0.00    -0.331 A  
HETATM   17  C   UNL     1     -13.014  11.594  71.763  1.00  0.00    -0.483 A  
HETATM   18  O   UNL     1     -13.159   9.337  72.415  1.00  0.00    -0.419 OA 
HETATM   19  C   UNL     1     -11.471  10.908  69.554  1.00  0.00    -0.372 A  
HETATM   20  C   UNL     1     -11.887   9.918  70.460  1.00  0.00    -0.350 A  
ENDBRANCH   3  13
BRANCH   5  21
HETATM   21  C   UNL     1     -11.368  11.857  66.680  1.00  0.00    -0.337 C  
BRANCH  21  22
HETATM   22  C   UNL     1     -10.166  11.438  65.869  1.00  0.00    -0.292 A  
HETATM   23  C   UNL     1      -9.255  10.531  63.823  1.00  0.00    -0.292 A  
HETATM   24  C   UNL     1      -7.829  10.743  65.737  1.00  0.00    -0.106 A  
HETATM   25  C   UNL     1     -10.320  11.081  64.531  1.00  0.00    -0.420 A  
HETATM   26  C   UNL     1      -8.037  10.256  64.454  1.00  0.00    -0.149 A  
HETATM   27  C   UNL     1      -8.864  11.405  66.395  1.00  0.00    -0.193 A  
BRANCH  26  28
HETATM   28  O   UNL     1      -7.017   9.506  63.902  1.00  0.00    -0.097 OA 
BRANCH  28  29
HETATM   29  C   UNL     1      -6.670   8.382  64.716  1.00  0.00    -0.068 C  
BRANCH  29  30
HETATM   30  C   UNL     1      -6.912   7.009  64.075  1.00  0.00    -0.056 C  
BRANCH  30  31
HETATM   31  N   UNL     1      -7.637   6.104  65.018  1.00  0.00    -0.086 NA 
HETATM   32  C   UNL     1      -8.405   6.879  66.008  1.00  0.00    -0.134 C  
HETATM   33  C   UNL     1      -9.197   6.109  67.064  1.00  0.00    -0.127 C  
HETATM   34  C   UNL     1     -10.427   5.429  66.494  1.00  0.00    -0.352 C  
HETATM   35  C   UNL     1     -10.149   4.064  65.885  1.00  0.00    -0.097 C  
HETATM   36  C   UNL     1      -8.828   3.918  65.137  1.00  0.00    -0.126 C  
HETATM   37  C   UNL     1      -8.427   5.118  64.272  1.00  0.00    -0.131 C  
ENDBRANCH  30  31
ENDBRANCH  29  30
ENDBRANCH  28  29
ENDBRANCH  26  28
ENDBRANCH  21  22
ENDBRANCH   5  21
TORSDOF 7
ENDMDL
MODEL       74
REMARK 921   NORMALIZED FREE ENERGY PREDICTED BY IDOCK:   -5.42 KCAL/MOL
REMARK 922        TOTAL FREE ENERGY PREDICTED BY IDOCK:  -10.70 KCAL/MOL
REMARK 923 INTER-LIGAND FREE ENERGY PREDICTED BY IDOCK:   -9.02 KCAL/MOL
REMARK 924 INTRA-LIGAND FREE ENERGY PREDICTED BY IDOCK:   -1.68 KCAL/MOL
REMARK 927      BINDING AFFINITY PREDICTED BY RF-SCORE:    0.00 PKD
ROOT
HETATM    1  C   UNL     1     -11.806  15.525  71.894  1.00  0.00    -0.514 C  
HETATM    2  C   UNL     1     -11.726  14.634  70.695  1.00  0.00    -0.339 A  
HETATM    3  C   UNL     1     -11.152  14.852  69.434  1.00  0.00    -0.280 A  
HETATM    4  C   UNL     1     -12.534  10.527  70.483  1.00  0.00    -0.433 A  
HETATM    5  N   UNL     1     -11.301  13.639  68.723  1.00  0.00    -0.269 NA 
HETATM    6  O   UNL     1     -13.762  10.433  72.478  1.00  0.00    -0.544 OA 
HETATM    7  C   UNL     1     -11.748  12.648  69.593  1.00  0.00    -0.303 A  
HETATM    8  C   UNL     1     -13.075  11.179  71.567  1.00  0.00    -0.385 A  
HETATM    9  C   UNL     1     -12.195  13.287  70.746  1.00  0.00    -0.390 A  
HETATM   10  H   UNL     1     -13.893   9.499  72.361  1.00  0.00     0.000 HD 
HETATM   11  C   UNL     1     -11.833  11.245  69.514  1.00  0.00    -0.427 A  
HETATM   12  C   UNL     1     -12.883  12.544  71.738  1.00  0.00    -0.347 A  
ENDROOT
BRANCH   3  13
HETATM   13  C   UNL     1     -10.501  16.090  68.914  1.00  0.00    -0.245 A  
HETATM   14  C   UNL     1      -9.176  18.339  67.820  1.00  0.00    -0.270 A  
HETATM   15  H   UNL     1      -7.561  19.504  67.426  1.00  0.00     0.000 HD 
HETATM   16  C   UNL     1      -9.135  16.328  69.144  1.00  0.00    -0.230 A  
HETATM   17  C   UNL     1      -8.468  17.420  68.575  1.00  0.00    -0.274 A  
HETATM   18  O   UNL     1      -8.494  19.391  67.289  1.00  0.00    -0.283 OA 
HETATM   19  C   UNL     1     -11.187  17.040  68.137  1.00  0.00    -0.039 A  
HETATM   20  C   UNL     1     -10.540  18.174  67.620  1.00  0.00    -0.424 A  
ENDBRANCH   3  13
BRANCH   5  21
HETATM   21  C   UNL     1     -11.021  13.484  67.271  1.00  0.00    -0.280 C  
BRANCH  21  22
HETATM   22  C   UNL     1     -10.163  12.318  66.847  1.00  0.00    -0.229 A  
HETATM   23  C   UNL     1      -9.920  10.267  65.592  1.00  0.00    -0.347 A  
HETATM   24  C   UNL     1      -8.245  10.850  67.203  1.00  0.00    -0.126 A  
HETATM   25  C   UNL     1     -10.622  11.437  65.868  1.00  0.00    -0.317 A  
HETATM   26  C   UNL     1      -8.789   9.913  66.336  1.00  0.00    -0.142 A  
HETATM   27  C   UNL     1      -8.888  12.074  67.381  1.00  0.00    -0.178 A  
BRANCH  26  28
HETATM   28  O   UNL     1      -8.175   8.677  66.292  1.00  0.00    -0.110 OA 
BRANCH  28  29
HETATM   29  C   UNL     1      -8.037   8.096  67.592  1.00  0.00    -0.127 C  
BRANCH  29  30
HETATM   30  C   UNL     1      -7.051   6.923  67.684  1.00  0.00    -0.085 C  
BRANCH  30  31
HETATM   31  N   UNL     1      -7.497   5.937  68.715  1.00  0.00    -0.084 NA 
HETATM   32  C   UNL     1      -8.303   6.591  69.760  1.00  0.00    -0.127 C  
HETATM   33  C   UNL     1      -8.831   5.729  70.905  1.00  0.00    -0.145 C  
HETATM   34  C   UNL     1      -9.955   4.806  70.476  1.00  0.00    -0.306 C  
HETATM   35  C   UNL     1      -9.477   3.495  69.873  1.00  0.00    -0.254 C  
HETATM   36  C   UNL     1      -8.230   3.571  69.000  1.00  0.00    -0.075 C  
HETATM   37  C   UNL     1      -8.149   4.789  68.074  1.00  0.00    -0.089 C  
ENDBRANCH  30  31
ENDBRANCH  29  30
ENDBRANCH  28  29
ENDBRANCH  26  28
ENDBRANCH  21  22
ENDBRANCH   5  21
TORSDOF 7
ENDMDL
MODEL       75
REMARK 921   NORMALIZED FREE ENERGY PREDICTED BY IDOCK:   -5.41 KCAL/MOL
REMARK 922        TOTAL FREE ENERGY PREDICTED BY IDOCK:  -10.69 KCAL/MOL
REMARK 923 INTER-LIGAND FREE ENERGY PREDICTED BY IDOCK:   -7.31 KCAL/MOL
REMARK 924 INTRA-LIGAND FREE ENERGY PREDICTED BY IDOCK:   -3.38 KCAL/MOL
REMARK 927      BINDING AFFINITY PREDICTED BY RF-SCORE:    0.00 PKD
ROOT
HETATM    1  C   UNL     1     -13.764   7.232  71.475  1.00  0.00    -0.451 C  
HETATM    2  C   UNL     1     -12.312   7.326  71.823  1.00  0.00    -0.375 A  
HETATM    3  C   UNL     1     -11.421   8.406  71.733  1.00  0.00    -0.301 A  
HETATM    4  C   UNL     1     -10.012   4.599  74.024  1.00  0.00    -0.199 A  
HETATM    5  N   UNL     1     -10.198   7.947  72.274  1.00  0.00    -0.221 NA 
HETATM    6  O   UNL     1     -11.493   2.800  73.776  1.00  0.00    -0.197 OA 
HETATM    7  C   UNL     1     -10.396   6.707  72.876  1.00  0.00    -0.213 A  
HETATM    8  C   UNL     1     -11.177   4.095  73.495  1.00  0.00    -0.250 A  
HETATM    9  C   UNL     1     -11.629   6.234  72.438  1.00  0.00    -0.325 A  
HETATM   10  H   UNL     1     -10.919   2.247  74.294  1.00  0.00     0.000 HD 
HETATM   11  C   UNL     1      -9.634   5.916  73.756  1.00  0.00    -0.147 A  
HETATM   12  C   UNL     1     -12.017   4.903  72.738  1.00  0.00     0.067 A  
ENDROOT
BRANCH   3  13
HETATM   13  C   UNL     1     -11.675   9.773  71.194  1.00  0.00    -0.465 A  
HETATM   14  C   UNL     1     -12.230  12.294  70.034  1.00  0.00    -0.196 A  
HETATM   15  H   UNL     1     -12.055  13.742  68.621  1.00  0.00     0.000 HD 
HETATM   16  C   UNL     1     -11.011  10.218  70.038  1.00  0.00    -0.371 A  
HETATM   17  C   UNL     1     -11.309  11.449  69.440  1.00  0.00    -0.365 A  
HETATM   18  O   UNL     1     -12.489  13.486  69.426  1.00  0.00    -0.199 OA 
HETATM   19  C   UNL     1     -12.609  10.654  71.765  1.00  0.00    -0.411 A  
HETATM   20  C   UNL     1     -12.864  11.920  71.211  1.00  0.00    -0.391 A  
ENDBRANCH   3  13
BRANCH   5  21
HETATM   21  C   UNL     1      -8.916   8.696  72.188  1.00  0.00    -0.200 C  
BRANCH  21  22
HETATM   22  C   UNL     1      -7.839   8.133  71.293  1.00  0.00    -0.102 A  
HETATM   23  C   UNL     1      -6.956   7.789  69.070  1.00  0.00    -0.069 A  
HETATM   24  C   UNL     1      -6.001   6.574  70.901  1.00  0.00    -0.027 A  
HETATM   25  C   UNL     1      -7.837   8.436  69.932  1.00  0.00    -0.101 A  
HETATM   26  C   UNL     1      -6.111   6.775  69.532  1.00  0.00    -0.029 A  
HETATM   27  C   UNL     1      -6.800   7.317  71.769  1.00  0.00    -0.058 A  
BRANCH  26  28
HETATM   28  O   UNL     1      -5.383   5.927  68.720  1.00  0.00    -0.006 OA 
BRANCH  28  29
HETATM   29  C   UNL     1      -6.155   5.439  67.619  1.00  0.00    -0.026 C  
BRANCH  29  30
HETATM   30  C   UNL     1      -6.929   4.141  67.887  1.00  0.00    -0.059 C  
BRANCH  30  31
HETATM   31  N   UNL     1      -8.403   4.393  67.883  1.00  0.00    -0.094 NA 
HETATM   32  C   UNL     1      -8.871   4.819  69.213  1.00  0.00    -0.092 C  
HETATM   33  C   UNL     1     -10.361   5.106  69.391  1.00  0.00    -0.265 C  
HETATM   34  C   UNL     1     -10.796   6.392  68.716  1.00  0.00    -0.378 C  
HETATM   35  C   UNL     1     -11.130   6.230  67.242  1.00  0.00    -0.387 C  
HETATM   36  C   UNL     1     -10.255   5.260  66.456  1.00  0.00    -0.293 C  
HETATM   37  C   UNL     1      -8.759   5.307  66.791  1.00  0.00    -0.112 C  
ENDBRANCH  30  31
ENDBRANCH  29  30
ENDBRANCH  28  29
ENDBRANCH  26  28
ENDBRANCH  21  22
ENDBRANCH   5  21
TORSDOF 7
ENDMDL
MODEL       76
REMARK 921   NORMALIZED FREE ENERGY PREDICTED BY IDOCK:   -5.41 KCAL/MOL
REMARK 922        TOTAL FREE ENERGY PREDICTED BY IDOCK:  -10.69 KCAL/MOL
REMARK 923 INTER-LIGAND FREE ENERGY PREDICTED BY IDOCK:   -8.86 KCAL/MOL
REMARK 924 INTRA-LIGAND FREE ENERGY PREDICTED BY IDOCK:   -1.82 KCAL/MOL
REMARK 927      BINDING AFFINITY PREDICTED BY RF-SCORE:    0.00 PKD
ROOT
HETATM    1  C   UNL     1     -10.976  15.189  66.841  1.00  0.00    -0.323 C  
HETATM    2  C   UNL     1     -11.337  13.990  67.662  1.00  0.00    -0.336 A  
HETATM    3  C   UNL     1     -11.138  12.624  67.415  1.00  0.00    -0.273 A  
HETATM    4  C   UNL     1     -12.561  13.890  71.669  1.00  0.00    -0.387 A  
HETATM    5  N   UNL     1     -11.604  11.949  68.567  1.00  0.00    -0.294 NA 
HETATM    6  O   UNL     1     -13.155  16.155  71.783  1.00  0.00    -0.421 OA 
HETATM    7  C   UNL     1     -11.870  12.879  69.569  1.00  0.00    -0.320 A  
HETATM    8  C   UNL     1     -12.696  15.107  71.041  1.00  0.00    -0.392 A  
HETATM    9  C   UNL     1     -11.897  14.133  68.966  1.00  0.00    -0.384 A  
HETATM   10  H   UNL     1     -13.404  16.051  72.694  1.00  0.00     0.000 HD 
HETATM   11  C   UNL     1     -12.109  12.781  70.953  1.00  0.00    -0.144 A  
HETATM   12  C   UNL     1     -12.333  15.259  69.709  1.00  0.00    -0.288 A  
ENDROOT
BRANCH   3  13
HETATM   13  C   UNL     1     -10.553  11.976  66.205  1.00  0.00    -0.287 A  
HETATM   14  C   UNL     1      -9.479  10.595  63.981  1.00  0.00    -0.285 A  
HETATM   15  H   UNL     1      -8.160   9.365  63.048  1.00  0.00     0.000 HD 
HETATM   16  C   UNL     1      -9.361  11.236  66.299  1.00  0.00    -0.226 A  
HETATM   17  C   UNL     1      -8.847  10.522  65.210  1.00  0.00    -0.205 A  
HETATM   18  O   UNL     1      -8.944   9.892  62.944  1.00  0.00    -0.222 OA 
HETATM   19  C   UNL     1     -11.172  12.022  64.944  1.00  0.00    -0.374 A  
HETATM   20  C   UNL     1     -10.624  11.365  63.830  1.00  0.00    -0.452 A  
ENDBRANCH   3  13
BRANCH   5  21
HETATM   21  C   UNL     1     -11.779  10.475  68.656  1.00  0.00    -0.085 C  
BRANCH  21  22
HETATM   22  C   UNL     1     -10.830   9.714  69.549  1.00  0.00    -0.253 A  
HETATM   23  C   UNL     1     -10.482   8.261  71.448  1.00  0.00    -0.276 A  
HETATM   24  C   UNL     1      -8.594   9.358  70.463  1.00  0.00    -0.265 A  
HETATM   25  C   UNL     1     -11.332   8.835  70.508  1.00  0.00    -0.255 A  
HETATM   26  C   UNL     1      -9.127   8.606  71.500  1.00  0.00    -0.239 A  
HETATM   27  C   UNL     1      -9.434   9.828  69.454  1.00  0.00    -0.212 A  
BRANCH  26  28
HETATM   28  O   UNL     1      -8.270   8.271  72.530  1.00  0.00    -0.152 OA 
BRANCH  28  29
HETATM   29  C   UNL     1      -8.972   7.828  73.694  1.00  0.00    -0.277 C  
BRANCH  29  30
HETATM   30  C   UNL     1      -8.231   6.791  74.551  1.00  0.00    -0.143 C  
BRANCH  30  31
HETATM   31  N   UNL     1      -8.711   5.410  74.242  1.00  0.00    -0.119 NA 
HETATM   32  C   UNL     1     -10.142   5.413  73.892  1.00  0.00    -0.215 C  
HETATM   33  C   UNL     1     -10.803   4.076  73.561  1.00  0.00    -0.336 C  
HETATM   34  C   UNL     1     -10.373   3.525  72.216  1.00  0.00    -0.125 C  
HETATM   35  C   UNL     1      -9.077   2.732  72.262  1.00  0.00    -0.134 C  
HETATM   36  C   UNL     1      -8.002   3.255  73.208  1.00  0.00    -0.069 C  
HETATM   37  C   UNL     1      -7.842   4.779  73.242  1.00  0.00    -0.096 C  
ENDBRANCH  30  31
ENDBRANCH  29  30
ENDBRANCH  28  29
ENDBRANCH  26  28
ENDBRANCH  21  22
ENDBRANCH   5  21
TORSDOF 7
ENDMDL
MODEL       77
REMARK 921   NORMALIZED FREE ENERGY PREDICTED BY IDOCK:   -5.38 KCAL/MOL
REMARK 922        TOTAL FREE ENERGY PREDICTED BY IDOCK:  -10.64 KCAL/MOL
REMARK 923 INTER-LIGAND FREE ENERGY PREDICTED BY IDOCK:   -8.75 KCAL/MOL
REMARK 924 INTRA-LIGAND FREE ENERGY PREDICTED BY IDOCK:   -1.90 KCAL/MOL
REMARK 927      BINDING AFFINITY PREDICTED BY RF-SCORE:    0.00 PKD
ROOT
HETATM    1  C   UNL     1      -6.840   6.471  68.495  1.00  0.00    -0.071 C  
HETATM    2  C   UNL     1      -7.852   7.293  67.762  1.00  0.00    -0.114 A  
HETATM    3  C   UNL     1      -9.011   7.936  68.222  1.00  0.00    -0.132 A  
HETATM    4  C   UNL     1      -7.560   8.887  63.896  1.00  0.00    -0.121 A  
HETATM    5  N   UNL     1      -9.539   8.631  67.110  1.00  0.00    -0.161 NA 
HETATM    6  O   UNL     1      -5.823   7.475  63.198  1.00  0.00    -0.048 OA 
HETATM    7  C   UNL     1      -8.617   8.597  66.066  1.00  0.00    -0.155 A  
HETATM    8  C   UNL     1      -6.704   7.845  64.171  1.00  0.00    -0.061 A  
HETATM    9  C   UNL     1      -7.676   7.622  66.384  1.00  0.00    -0.089 A  
HETATM   10  H   UNL     1      -5.815   7.896  62.347  1.00  0.00     0.000 HD 
HETATM   11  C   UNL     1      -8.490   9.297  64.852  1.00  0.00    -0.182 A  
HETATM   12  C   UNL     1      -6.717   7.230  65.416  1.00  0.00    -0.048 A  
ENDROOT
BRANCH   3  13
HETATM   13  C   UNL     1      -9.595   7.922  69.595  1.00  0.00    -0.164 A  
HETATM   14  C   UNL     1     -10.641   7.737  72.218  1.00  0.00    -0.259 A  
HETATM   15  H   UNL     1     -11.853   6.980  73.660  1.00  0.00     0.000 HD 
HETATM   16  C   UNL     1     -10.670   7.072  69.904  1.00  0.00    -0.265 A  
HETATM   17  C   UNL     1     -11.166   6.950  71.207  1.00  0.00    -0.306 A  
HETATM   18  O   UNL     1     -11.154   7.595  73.472  1.00  0.00    -0.315 OA 
HETATM   19  C   UNL     1      -9.081   8.700  70.647  1.00  0.00    -0.201 A  
HETATM   20  C   UNL     1      -9.619   8.635  71.943  1.00  0.00    -0.377 A  
ENDBRANCH   3  13
BRANCH   5  21
HETATM   21  C   UNL     1     -10.877   9.279  67.090  1.00  0.00    -0.043 C  
BRANCH  21  22
HETATM   22  C   UNL     1     -10.965  10.710  67.562  1.00  0.00    -0.371 A  
HETATM   23  C   UNL     1     -11.720  12.311  69.207  1.00  0.00    -0.388 A  
HETATM   24  C   UNL     1     -10.892  13.107  67.105  1.00  0.00    -0.271 A  
HETATM   25  C   UNL     1     -11.474  10.994  68.828  1.00  0.00    -0.372 A  
HETATM   26  C   UNL     1     -11.535  13.366  68.307  1.00  0.00    -0.315 A  
HETATM   27  C   UNL     1     -10.535  11.798  66.785  1.00  0.00    -0.260 A  
BRANCH  26  28
HETATM   28  O   UNL     1     -11.970  14.660  68.513  1.00  0.00    -0.315 OA 
BRANCH  28  29
HETATM   29  C   UNL     1     -10.992  15.628  68.121  1.00  0.00    -0.314 C  
BRANCH  29  30
HETATM   30  C   UNL     1     -10.496  16.551  69.243  1.00  0.00    -0.326 C  
BRANCH  30  31
HETATM   31  N   UNL     1     -10.079  17.877  68.691  1.00  0.00    -0.381 NA 
HETATM   32  C   UNL     1      -8.612  17.982  68.620  1.00  0.00    -0.264 C  
HETATM   33  C   UNL     1      -8.011  19.283  68.092  1.00  0.00    -0.343 C  
HETATM   34  C   UNL     1      -8.195  19.451  66.596  1.00  0.00    -0.322 C  
HETATM   35  C   UNL     1      -9.534  20.056  66.205  1.00  0.00    -0.485 C  
HETATM   36  C   UNL     1     -10.736  19.625  67.040  1.00  0.00    -0.575 C  
HETATM   37  C   UNL     1     -10.770  18.141  67.424  1.00  0.00    -0.335 C  
ENDBRANCH  30  31
ENDBRANCH  29  30
ENDBRANCH  28  29
ENDBRANCH  26  28
ENDBRANCH  21  22
ENDBRANCH   5  21
TORSDOF 7
ENDMDL
MODEL       78
REMARK 921   NORMALIZED FREE ENERGY PREDICTED BY IDOCK:   -5.38 KCAL/MOL
REMARK 922        TOTAL FREE ENERGY PREDICTED BY IDOCK:  -10.64 KCAL/MOL
REMARK 923 INTER-LIGAND FREE ENERGY PREDICTED BY IDOCK:   -8.87 KCAL/MOL
REMARK 924 INTRA-LIGAND FREE ENERGY PREDICTED BY IDOCK:   -1.77 KCAL/MOL
REMARK 927      BINDING AFFINITY PREDICTED BY RF-SCORE:    0.00 PKD
ROOT
HETATM    1  C   UNL     1      -8.924   5.586  71.324  1.00  0.00    -0.153 C  
HETATM    2  C   UNL     1      -9.080   6.332  70.037  1.00  0.00    -0.150 A  
HETATM    3  C   UNL     1      -9.984   7.340  69.672  1.00  0.00    -0.176 A  
HETATM    4  C   UNL     1      -6.427   6.452  66.794  1.00  0.00    -0.046 A  
HETATM    5  N   UNL     1      -9.621   7.733  68.363  1.00  0.00    -0.151 NA 
HETATM    6  O   UNL     1      -5.235   4.528  67.404  1.00  0.00    -0.010 OA 
HETATM    7  C   UNL     1      -8.404   7.145  68.026  1.00  0.00    -0.119 A  
HETATM    8  C   UNL     1      -6.260   5.391  67.654  1.00  0.00    -0.034 A  
HETATM    9  C   UNL     1      -8.165   6.140  68.958  1.00  0.00    -0.112 A  
HETATM   10  H   UNL     1      -4.669   4.631  66.648  1.00  0.00     0.000 HD 
HETATM   11  C   UNL     1      -7.469   7.358  66.997  1.00  0.00    -0.098 A  
HETATM   12  C   UNL     1      -7.088   5.240  68.759  1.00  0.00    -0.061 A  
ENDROOT
BRANCH   3  13
HETATM   13  C   UNL     1     -11.104   7.915  70.473  1.00  0.00    -0.260 A  
HETATM   14  C   UNL     1     -13.187   8.896  72.119  1.00  0.00    -0.429 A  
HETATM   15  H   UNL     1     -14.924   8.753  73.160  1.00  0.00     0.000 HD 
HETATM   16  C   UNL     1     -12.231   7.134  70.785  1.00  0.00    -0.308 A  
HETATM   17  C   UNL     1     -13.245   7.602  71.629  1.00  0.00    -0.395 A  
HETATM   18  O   UNL     1     -14.195   9.318  72.931  1.00  0.00    -0.465 OA 
HETATM   19  C   UNL     1     -11.075   9.219  70.994  1.00  0.00    -0.396 A  
HETATM   20  C   UNL     1     -12.122   9.721  71.784  1.00  0.00    -0.425 A  
ENDBRANCH   3  13
BRANCH   5  21
HETATM   21  C   UNL     1     -10.440   8.631  67.505  1.00  0.00    -0.266 C  
BRANCH  21  22
HETATM   22  C   UNL     1     -10.315  10.117  67.732  1.00  0.00    -0.253 A  
HETATM   23  C   UNL     1     -11.344  12.302  67.793  1.00  0.00    -0.362 A  
HETATM   24  C   UNL     1      -8.955  12.141  67.858  1.00  0.00    -0.184 A  
HETATM   25  C   UNL     1     -11.457  10.916  67.756  1.00  0.00    -0.323 A  
HETATM   26  C   UNL     1     -10.093  12.925  67.731  1.00  0.00    -0.229 A  
HETATM   27  C   UNL     1      -9.083  10.756  67.946  1.00  0.00    -0.150 A  
BRANCH  26  28
HETATM   28  O   UNL     1      -9.897  14.277  67.527  1.00  0.00    -0.226 OA 
BRANCH  28  29
HETATM   29  C   UNL     1      -9.999  15.027  68.741  1.00  0.00    -0.228 C  
BRANCH  29  30
HETATM   30  C   UNL     1      -8.735  15.802  69.141  1.00  0.00    -0.253 C  
BRANCH  30  31
HETATM   31  N   UNL     1      -8.795  17.207  68.636  1.00  0.00    -0.270 NA 
HETATM   32  C   UNL     1      -8.519  17.262  67.190  1.00  0.00    -0.205 C  
HETATM   33  C   UNL     1      -8.525  18.630  66.510  1.00  0.00    -0.302 C  
HETATM   34  C   UNL     1      -9.919  19.210  66.368  1.00  0.00    -0.458 C  
HETATM   35  C   UNL     1     -10.402  19.958  67.599  1.00  0.00    -0.557 C  
HETATM   36  C   UNL     1      -9.996  19.369  68.946  1.00  0.00    -0.519 C  
HETATM   37  C   UNL     1     -10.056  17.840  69.039  1.00  0.00    -0.294 C  
ENDBRANCH  30  31
ENDBRANCH  29  30
ENDBRANCH  28  29
ENDBRANCH  26  28
ENDBRANCH  21  22
ENDBRANCH   5  21
TORSDOF 7
ENDMDL
MODEL       79
REMARK 921   NORMALIZED FREE ENERGY PREDICTED BY IDOCK:   -5.37 KCAL/MOL
REMARK 922        TOTAL FREE ENERGY PREDICTED BY IDOCK:  -10.63 KCAL/MOL
REMARK 923 INTER-LIGAND FREE ENERGY PREDICTED BY IDOCK:   -8.10 KCAL/MOL
REMARK 924 INTRA-LIGAND FREE ENERGY PREDICTED BY IDOCK:   -2.53 KCAL/MOL
REMARK 927      BINDING AFFINITY PREDICTED BY RF-SCORE:    0.00 PKD
ROOT
HETATM    1  C   UNL     1      -7.617   7.552  69.867  1.00  0.00    -0.093 C  
HETATM    2  C   UNL     1      -7.675   8.515  68.723  1.00  0.00    -0.102 A  
HETATM    3  C   UNL     1      -8.175   8.357  67.423  1.00  0.00    -0.120 A  
HETATM    4  C   UNL     1      -7.034  12.656  68.814  1.00  0.00    -0.096 A  
HETATM    5  N   UNL     1      -8.044   9.619  66.799  1.00  0.00    -0.112 NA 
HETATM    6  O   UNL     1      -5.912  12.668  70.872  1.00  0.00    -0.495 OA 
HETATM    7  C   UNL     1      -7.684  10.569  67.752  1.00  0.00    -0.093 A  
HETATM    8  C   UNL     1      -6.520  11.957  69.882  1.00  0.00    -0.048 A  
HETATM    9  C   UNL     1      -7.267   9.873  68.884  1.00  0.00    -0.076 A  
HETATM   10  H   UNL     1      -5.815  13.612  70.822  1.00  0.00     0.000 HD 
HETATM   11  C   UNL     1      -7.654  11.976  67.766  1.00  0.00    -0.130 A  
HETATM   12  C   UNL     1      -6.662  10.577  69.956  1.00  0.00    -0.151 A  
ENDROOT
BRANCH   3  13
HETATM   13  C   UNL     1      -8.746   7.131  66.792  1.00  0.00    -0.128 A  
HETATM   14  C   UNL     1      -9.929   4.907  65.503  1.00  0.00    -0.080 A  
HETATM   15  H   UNL     1     -11.462   3.662  65.031  1.00  0.00     0.000 HD 
HETATM   16  C   UNL     1     -10.080   6.760  67.033  1.00  0.00    -0.264 A  
HETATM   17  C   UNL     1     -10.680   5.683  66.370  1.00  0.00    -0.229 A  
HETATM   18  O   UNL     1     -10.546   3.864  64.881  1.00  0.00    -0.175 OA 
HETATM   19  C   UNL     1      -8.016   6.326  65.900  1.00  0.00    -0.116 A  
HETATM   20  C   UNL     1      -8.590   5.202  65.283  1.00  0.00    -0.148 A  
ENDBRANCH   3  13
BRANCH   5  21
HETATM   21  C   UNL     1      -8.256   9.857  65.346  1.00  0.00    -0.139 C  
BRANCH  21  22
HETATM   22  C   UNL     1      -9.500  10.607  64.938  1.00  0.00    -0.293 A  
HETATM   23  C   UNL     1     -10.718  11.853  63.264  1.00  0.00    -0.415 A  
HETATM   24  C   UNL     1     -11.524  11.843  65.519  1.00  0.00    -0.311 A  
HETATM   25  C   UNL     1      -9.663  11.016  63.615  1.00  0.00    -0.364 A  
HETATM   26  C   UNL     1     -11.589  12.361  64.234  1.00  0.00    -0.368 A  
HETATM   27  C   UNL     1     -10.539  10.908  65.834  1.00  0.00    -0.244 A  
BRANCH  26  28
HETATM   28  O   UNL     1     -12.507  13.370  64.015  1.00  0.00    -0.632 OA 
BRANCH  28  29
HETATM   29  C   UNL     1     -12.344  14.456  64.932  1.00  0.00    -0.405 C  
BRANCH  29  30
HETATM   30  C   UNL     1     -11.038  15.249  64.783  1.00  0.00    -0.394 C  
BRANCH  30  31
HETATM   31  N   UNL     1     -10.191  15.107  66.006  1.00  0.00    -0.287 NA 
HETATM   32  C   UNL     1      -9.147  16.146  66.050  1.00  0.00    -0.318 C  
HETATM   33  C   UNL     1      -8.178  16.141  67.231  1.00  0.00    -0.203 C  
HETATM   34  C   UNL     1      -8.825  16.595  68.524  1.00  0.00    -0.235 C  
HETATM   35  C   UNL     1      -9.549  15.488  69.273  1.00  0.00    -0.266 C  
HETATM   36  C   UNL     1     -10.287  14.467  68.413  1.00  0.00    -0.244 C  
HETATM   37  C   UNL     1     -11.034  15.042  67.205  1.00  0.00    -0.326 C  
ENDBRANCH  30  31
ENDBRANCH  29  30
ENDBRANCH  28  29
ENDBRANCH  26  28
ENDBRANCH  21  22
ENDBRANCH   5  21
TORSDOF 7
ENDMDL
MODEL       80
REMARK 921   NORMALIZED FREE ENERGY PREDICTED BY IDOCK:   -5.35 KCAL/MOL
REMARK 922        TOTAL FREE ENERGY PREDICTED BY IDOCK:  -10.61 KCAL/MOL
REMARK 923 INTER-LIGAND FREE ENERGY PREDICTED BY IDOCK:   -8.76 KCAL/MOL
REMARK 924 INTRA-LIGAND FREE ENERGY PREDICTED BY IDOCK:   -1.84 KCAL/MOL
REMARK 927      BINDING AFFINITY PREDICTED BY RF-SCORE:    0.00 PKD
ROOT
HETATM    1  C   UNL     1     -11.464  16.500  64.239  1.00  0.00     0.259 C  
HETATM    2  C   UNL     1     -11.078  15.320  65.075  1.00  0.00    -0.436 A  
HETATM    3  C   UNL     1     -10.414  15.255  66.308  1.00  0.00    -0.307 A  
HETATM    4  C   UNL     1     -12.361  11.350  64.669  1.00  0.00     0.759 A  
HETATM    5  N   UNL     1     -10.390  13.887  66.666  1.00  0.00    -0.275 NA 
HETATM    6  O   UNL     1     -13.119  11.580  62.463  1.00  0.00    -0.384 OA 
HETATM    7  C   UNL     1     -11.204  13.169  65.793  1.00  0.00    -0.286 A  
HETATM    8  C   UNL     1     -12.521  12.139  63.553  1.00  0.00    -0.555 A  
HETATM    9  C   UNL     1     -11.470  13.998  64.708  1.00  0.00    -0.371 A  
HETATM   10  H   UNL     1     -13.392  10.670  62.455  1.00  0.00     0.000 HD 
HETATM   11  C   UNL     1     -11.742  11.868  65.807  1.00  0.00    -0.210 A  
HETATM   12  C   UNL     1     -12.123  13.470  63.565  1.00  0.00    -0.425 A  
ENDROOT
BRANCH   3  13
HETATM   13  C   UNL     1      -9.844  16.374  67.114  1.00  0.00    -0.249 A  
HETATM   14  C   UNL     1      -8.769  18.594  68.501  1.00  0.00    -0.332 A  
HETATM   15  H   UNL     1      -7.364  20.006  68.895  1.00  0.00     0.000 HD 
HETATM   16  C   UNL     1      -8.549  16.854  66.851  1.00  0.00    -0.241 A  
HETATM   17  C   UNL     1      -8.028  17.975  67.509  1.00  0.00    -0.224 A  
HETATM   18  O   UNL     1      -8.226  19.677  69.123  1.00  0.00    -0.274 OA 
HETATM   19  C   UNL     1     -10.571  17.031  68.121  1.00  0.00    -0.369 A  
HETATM   20  C   UNL     1     -10.028  18.113  68.835  1.00  0.00    -0.352 A  
ENDBRANCH   3  13
BRANCH   5  21
HETATM   21  C   UNL     1      -9.600  13.335  67.799  1.00  0.00    -0.214 C  
BRANCH  21  22
HETATM   22  C   UNL     1     -10.325  12.460  68.792  1.00  0.00    -0.142 A  
HETATM   23  C   UNL     1     -10.699  10.270  69.744  1.00  0.00    -0.328 A  
HETATM   24  C   UNL     1     -12.223  12.043  70.270  1.00  0.00    -0.348 A  
HETATM   25  C   UNL     1      -9.935  11.132  68.962  1.00  0.00    -0.155 A  
HETATM   26  C   UNL     1     -11.907  10.692  70.311  1.00  0.00    -0.342 A  
HETATM   27  C   UNL     1     -11.384  12.923  69.588  1.00  0.00    -0.166 A  
BRANCH  26  28
HETATM   28  O   UNL     1     -12.836   9.854  70.896  1.00  0.00    -0.325 OA 
BRANCH  28  29
HETATM   29  C   UNL     1     -12.303   9.169  72.033  1.00  0.00    -0.377 C  
BRANCH  29  30
HETATM   30  C   UNL     1     -12.394   7.637  71.977  1.00  0.00    -0.280 C  
BRANCH  30  31
HETATM   31  N   UNL     1     -11.215   7.063  71.259  1.00  0.00    -0.255 NA 
HETATM   32  C   UNL     1     -10.485   6.113  72.115  1.00  0.00    -0.202 C  
HETATM   33  C   UNL     1      -9.239   5.441  71.542  1.00  0.00    -0.169 C  
HETATM   34  C   UNL     1      -9.565   4.398  70.490  1.00  0.00    -0.269 C  
HETATM   35  C   UNL     1      -9.749   4.969  69.094  1.00  0.00    -0.243 C  
HETATM   36  C   UNL     1     -10.441   6.325  69.007  1.00  0.00    -0.287 C  
HETATM   37  C   UNL     1     -11.626   6.519  69.960  1.00  0.00    -0.390 C  
ENDBRANCH  30  31
ENDBRANCH  29  30
ENDBRANCH  28  29
ENDBRANCH  26  28
ENDBRANCH  21  22
ENDBRANCH   5  21
TORSDOF 7
ENDMDL
MODEL       81
REMARK 921   NORMALIZED FREE ENERGY PREDICTED BY IDOCK:   -5.33 KCAL/MOL
REMARK 922        TOTAL FREE ENERGY PREDICTED BY IDOCK:  -10.57 KCAL/MOL
REMARK 923 INTER-LIGAND FREE ENERGY PREDICTED BY IDOCK:   -7.69 KCAL/MOL
REMARK 924 INTRA-LIGAND FREE ENERGY PREDICTED BY IDOCK:   -2.88 KCAL/MOL
REMARK 927      BINDING AFFINITY PREDICTED BY RF-SCORE:    0.00 PKD
ROOT
HETATM    1  C   UNL     1     -10.853   6.880  67.282  1.00  0.00    -0.426 C  
HETATM    2  C   UNL     1      -9.602   7.542  67.769  1.00  0.00    -0.166 A  
HETATM    3  C   UNL     1      -9.415   8.523  68.754  1.00  0.00    -0.143 A  
HETATM    4  C   UNL     1      -5.636   6.403  67.038  1.00  0.00    -0.013 A  
HETATM    5  N   UNL     1      -8.017   8.715  68.851  1.00  0.00    -0.111 NA 
HETATM    6  O   UNL     1      -6.124   5.054  65.184  1.00  0.00    -0.028 OA 
HETATM    7  C   UNL     1      -7.365   7.730  68.113  1.00  0.00    -0.106 A  
HETATM    8  C   UNL     1      -6.565   5.900  66.157  1.00  0.00    -0.047 A  
HETATM    9  C   UNL     1      -8.320   7.132  67.296  1.00  0.00    -0.119 A  
HETATM   10  H   UNL     1      -5.204   4.837  65.091  1.00  0.00     0.000 HD 
HETATM   11  C   UNL     1      -6.032   7.284  68.044  1.00  0.00    -0.034 A  
HETATM   12  C   UNL     1      -7.911   6.218  66.293  1.00  0.00    -0.110 A  
ENDROOT
BRANCH   3  13
HETATM   13  C   UNL     1     -10.448   9.235  69.561  1.00  0.00    -0.229 A  
HETATM   14  C   UNL     1     -12.284  10.628  71.204  1.00  0.00    -0.374 A  
HETATM   15  H   UNL     1     -13.334  10.959  72.910  1.00  0.00     0.000 HD 
HETATM   16  C   UNL     1     -10.812   8.759  70.833  1.00  0.00    -0.293 A  
HETATM   17  C   UNL     1     -11.692   9.464  71.663  1.00  0.00    -0.468 A  
HETATM   18  O   UNL     1     -13.139  11.283  72.038  1.00  0.00    -0.495 OA 
HETATM   19  C   UNL     1     -11.062  10.424  69.131  1.00  0.00    -0.296 A  
HETATM   20  C   UNL     1     -11.999  11.100  69.930  1.00  0.00    -0.439 A  
ENDBRANCH   3  13
BRANCH   5  21
HETATM   21  C   UNL     1      -7.378   9.814  69.622  1.00  0.00    -0.103 C  
BRANCH  21  22
HETATM   22  C   UNL     1      -7.171  11.132  68.917  1.00  0.00    -0.106 A  
HETATM   23  C   UNL     1      -6.255  13.368  68.922  1.00  0.00    -0.090 A  
HETATM   24  C   UNL     1      -7.820  12.757  67.214  1.00  0.00    -0.148 A  
HETATM   25  C   UNL     1      -6.322  12.090  69.469  1.00  0.00    -0.123 A  
HETATM   26  C   UNL     1      -7.086  13.741  67.860  1.00  0.00    -0.158 A  
HETATM   27  C   UNL     1      -7.784  11.448  67.694  1.00  0.00    -0.121 A  
BRANCH  26  28
HETATM   28  O   UNL     1      -7.256  15.037  67.413  1.00  0.00    -0.194 OA 
BRANCH  28  29
HETATM   29  C   UNL     1      -8.305  15.716  68.109  1.00  0.00    -0.146 C  
BRANCH  29  30
HETATM   30  C   UNL     1      -9.273  16.510  67.221  1.00  0.00    -0.216 C  
BRANCH  30  31
HETATM   31  N   UNL     1     -10.335  15.617  66.665  1.00  0.00    -0.282 NA 
HETATM   32  C   UNL     1      -9.944  15.085  65.349  1.00  0.00    -0.330 C  
HETATM   33  C   UNL     1     -10.924  14.162  64.627  1.00  0.00    -0.393 C  
HETATM   34  C   UNL     1     -11.017  12.790  65.266  1.00  0.00    -0.314 C  
HETATM   35  C   UNL     1     -11.995  12.717  66.428  1.00  0.00    -0.425 C  
HETATM   36  C   UNL     1     -12.057  13.942  67.332  1.00  0.00    -0.380 C  
HETATM   37  C   UNL     1     -10.706  14.593  67.649  1.00  0.00    -0.271 C  
ENDBRANCH  30  31
ENDBRANCH  29  30
ENDBRANCH  28  29
ENDBRANCH  26  28
ENDBRANCH  21  22
ENDBRANCH   5  21
TORSDOF 7
ENDMDL
MODEL       82
REMARK 921   NORMALIZED FREE ENERGY PREDICTED BY IDOCK:   -5.30 KCAL/MOL
REMARK 922        TOTAL FREE ENERGY PREDICTED BY IDOCK:  -10.53 KCAL/MOL
REMARK 923 INTER-LIGAND FREE ENERGY PREDICTED BY IDOCK:   -8.24 KCAL/MOL
REMARK 924 INTRA-LIGAND FREE ENERGY PREDICTED BY IDOCK:   -2.30 KCAL/MOL
REMARK 927      BINDING AFFINITY PREDICTED BY RF-SCORE:    0.00 PKD
ROOT
HETATM    1  C   UNL     1     -10.290  11.701  63.994  1.00  0.00    -0.405 C  
HETATM    2  C   UNL     1      -9.744  11.115  65.258  1.00  0.00    -0.285 A  
HETATM    3  C   UNL     1      -9.768  11.603  66.573  1.00  0.00    -0.206 A  
HETATM    4  C   UNL     1      -8.371   7.207  65.899  1.00  0.00    -0.141 A  
HETATM    5  N   UNL     1      -9.175  10.598  67.371  1.00  0.00    -0.143 NA 
HETATM    6  O   UNL     1      -8.079   6.694  63.630  1.00  0.00    -0.233 OA 
HETATM    7  C   UNL     1      -8.999   9.447  66.606  1.00  0.00    -0.146 A  
HETATM    8  C   UNL     1      -8.422   7.606  64.583  1.00  0.00     0.091 A  
HETATM    9  C   UNL     1      -9.160   9.813  65.273  1.00  0.00    -0.259 A  
HETATM   10  H   UNL     1      -7.786   5.819  63.859  1.00  0.00     0.000 HD 
HETATM   11  C   UNL     1      -8.698   8.107  66.914  1.00  0.00    -0.136 A  
HETATM   12  C   UNL     1      -8.851   8.885  64.248  1.00  0.00    -0.022 A  
ENDROOT
BRANCH   3  13
HETATM   13  C   UNL     1     -10.307  12.902  67.069  1.00  0.00    -0.245 A  
HETATM   14  C   UNL     1     -11.290  15.316  68.172  1.00  0.00    -0.338 A  
HETATM   15  H   UNL     1     -12.560  16.438  69.291  1.00  0.00     0.000 HD 
HETATM   16  C   UNL     1     -11.488  12.941  67.831  1.00  0.00    -0.362 A  
HETATM   17  C   UNL     1     -11.958  14.126  68.408  1.00  0.00    -0.366 A  
HETATM   18  O   UNL     1     -11.782  16.449  68.745  1.00  0.00    -0.262 OA 
HETATM   19  C   UNL     1      -9.651  14.127  66.856  1.00  0.00    -0.275 A  
HETATM   20  C   UNL     1     -10.154  15.332  67.374  1.00  0.00    -0.232 A  
ENDBRANCH   3  13
BRANCH   5  21
HETATM   21  C   UNL     1      -8.804  10.779  68.799  1.00  0.00    -0.163 C  
BRANCH  21  22
HETATM   22  C   UNL     1      -9.451   9.863  69.809  1.00  0.00    -0.254 A  
HETATM   23  C   UNL     1     -11.440   9.118  70.961  1.00  0.00    -0.372 A  
HETATM   24  C   UNL     1      -9.298   8.403  71.760  1.00  0.00    -0.293 A  
HETATM   25  C   UNL     1     -10.840   9.825  69.923  1.00  0.00    -0.306 A  
HETATM   26  C   UNL     1     -10.670   8.496  71.949  1.00  0.00    -0.324 A  
HETATM   27  C   UNL     1      -8.716   9.010  70.648  1.00  0.00    -0.251 A  
BRANCH  26  28
HETATM   28  O   UNL     1     -11.171   7.979  73.128  1.00  0.00    -0.336 OA 
BRANCH  28  29
HETATM   29  C   UNL     1     -10.536   6.750  73.492  1.00  0.00    -0.330 C  
BRANCH  29  30
HETATM   30  C   UNL     1     -11.067   5.500  72.777  1.00  0.00    -0.291 C  
BRANCH  30  31
HETATM   31  N   UNL     1     -10.114   5.053  71.715  1.00  0.00    -0.194 NA 
HETATM   32  C   UNL     1      -9.765   3.632  71.882  1.00  0.00    -0.166 C  
HETATM   33  C   UNL     1      -8.785   3.012  70.887  1.00  0.00    -0.128 C  
HETATM   34  C   UNL     1      -9.394   2.805  69.514  1.00  0.00    -0.191 C  
HETATM   35  C   UNL     1      -9.331   4.034  68.621  1.00  0.00    -0.224 C  
HETATM   36  C   UNL     1      -9.540   5.377  69.311  1.00  0.00    -0.198 C  
HETATM   37  C   UNL     1     -10.631   5.401  70.387  1.00  0.00    -0.252 C  
ENDBRANCH  30  31
ENDBRANCH  29  30
ENDBRANCH  28  29
ENDBRANCH  26  28
ENDBRANCH  21  22
ENDBRANCH   5  21
TORSDOF 7
ENDMDL
MODEL       83
REMARK 921   NORMALIZED FREE ENERGY PREDICTED BY IDOCK:   -5.29 KCAL/MOL
REMARK 922        TOTAL FREE ENERGY PREDICTED BY IDOCK:  -10.52 KCAL/MOL
REMARK 923 INTER-LIGAND FREE ENERGY PREDICTED BY IDOCK:   -7.82 KCAL/MOL
REMARK 924 INTRA-LIGAND FREE ENERGY PREDICTED BY IDOCK:   -2.70 KCAL/MOL
REMARK 927      BINDING AFFINITY PREDICTED BY RF-SCORE:    0.00 PKD
ROOT
HETATM    1  C   UNL     1     -12.110  14.093  68.962  1.00  0.00    -0.348 C  
HETATM    2  C   UNL     1     -10.700  14.328  68.521  1.00  0.00    -0.262 A  
HETATM    3  C   UNL     1      -9.777  13.460  67.920  1.00  0.00    -0.226 A  
HETATM    4  C   UNL     1      -8.711  17.993  68.101  1.00  0.00    -0.277 A  
HETATM    5  N   UNL     1      -8.628  14.239  67.650  1.00  0.00    -0.171 NA 
HETATM    6  O   UNL     1     -10.206  19.217  69.429  1.00  0.00    -0.550 OA 
HETATM    7  C   UNL     1      -8.920  15.582  67.874  1.00  0.00    -0.173 A  
HETATM    8  C   UNL     1      -9.829  18.018  68.902  1.00  0.00    -0.314 A  
HETATM    9  C   UNL     1     -10.113  15.627  68.588  1.00  0.00    -0.210 A  
HETATM   10  H   UNL     1      -9.703  20.009  69.277  1.00  0.00     0.000 HD 
HETATM   11  C   UNL     1      -8.274  16.789  67.548  1.00  0.00    -0.187 A  
HETATM   12  C   UNL     1     -10.564  16.860  69.124  1.00  0.00    -0.330 A  
ENDROOT
BRANCH   3  13
HETATM   13  C   UNL     1      -9.937  12.010  67.604  1.00  0.00    -0.196 A  
HETATM   14  C   UNL     1     -10.396   9.267  67.083  1.00  0.00    -0.260 A  
HETATM   15  H   UNL     1     -10.690   7.326  67.600  1.00  0.00     0.000 HD 
HETATM   16  C   UNL     1      -9.953  11.054  68.634  1.00  0.00    -0.205 A  
HETATM   17  C   UNL     1     -10.216   9.702  68.385  1.00  0.00    -0.214 A  
HETATM   18  O   UNL     1     -10.643   7.943  66.879  1.00  0.00    -0.341 OA 
HETATM   19  C   UNL     1     -10.131  11.535  66.296  1.00  0.00    -0.261 A  
HETATM   20  C   UNL     1     -10.326  10.169  66.030  1.00  0.00    -0.234 A  
ENDBRANCH   3  13
BRANCH   5  21
HETATM   21  C   UNL     1      -7.325  13.677  67.206  1.00  0.00    -0.007 C  
BRANCH  21  22
HETATM   22  C   UNL     1      -6.740  12.548  68.019  1.00  0.00    -0.090 A  
HETATM   23  C   UNL     1      -6.030  10.242  68.160  1.00  0.00    -0.041 A  
HETATM   24  C   UNL     1      -6.232  11.522  70.176  1.00  0.00    -0.132 A  
HETATM   25  C   UNL     1      -6.407  11.344  67.399  1.00  0.00    -0.082 A  
HETATM   26  C   UNL     1      -6.048  10.293  69.558  1.00  0.00    -0.045 A  
HETATM   27  C   UNL     1      -6.487  12.650  69.396  1.00  0.00    -0.099 A  
BRANCH  26  28
HETATM   28  O   UNL     1      -5.919   9.195  70.386  1.00  0.00    -0.036 OA 
BRANCH  28  29
HETATM   29  C   UNL     1      -7.102   8.956  71.155  1.00  0.00    -0.099 C  
BRANCH  29  30
HETATM   30  C   UNL     1      -7.847   7.656  70.825  1.00  0.00    -0.096 C  
BRANCH  30  31
HETATM   31  N   UNL     1      -9.323   7.888  70.781  1.00  0.00    -0.157 NA 
HETATM   32  C   UNL     1     -10.051   6.627  70.559  1.00  0.00    -0.187 C  
HETATM   33  C   UNL     1     -11.575   6.684  70.472  1.00  0.00    -0.448 C  
HETATM   34  C   UNL     1     -12.231   6.943  71.814  1.00  0.00    -0.396 C  
HETATM   35  C   UNL     1     -12.321   8.415  72.181  1.00  0.00    -0.426 C  
HETATM   36  C   UNL     1     -11.135   9.283  71.776  1.00  0.00    -0.398 C  
HETATM   37  C   UNL     1      -9.756   8.640  71.965  1.00  0.00    -0.321 C  
ENDBRANCH  30  31
ENDBRANCH  29  30
ENDBRANCH  28  29
ENDBRANCH  26  28
ENDBRANCH  21  22
ENDBRANCH   5  21
TORSDOF 7
ENDMDL
MODEL       84
REMARK 921   NORMALIZED FREE ENERGY PREDICTED BY IDOCK:   -5.25 KCAL/MOL
REMARK 922        TOTAL FREE ENERGY PREDICTED BY IDOCK:  -10.46 KCAL/MOL
REMARK 923 INTER-LIGAND FREE ENERGY PREDICTED BY IDOCK:   -9.34 KCAL/MOL
REMARK 924 INTRA-LIGAND FREE ENERGY PREDICTED BY IDOCK:   -1.12 KCAL/MOL
REMARK 927      BINDING AFFINITY PREDICTED BY RF-SCORE:    0.00 PKD
ROOT
HETATM    1  C   UNL     1      -8.903   9.608  63.541  1.00  0.00    -0.255 C  
HETATM    2  C   UNL     1      -9.695  10.138  64.695  1.00  0.00    -0.377 A  
HETATM    3  C   UNL     1      -9.634   9.828  66.061  1.00  0.00    -0.235 A  
HETATM    4  C   UNL     1     -12.200  13.497  64.769  1.00  0.00    -0.450 A  
HETATM    5  N   UNL     1     -10.557  10.689  66.697  1.00  0.00    -0.236 NA 
HETATM    6  O   UNL     1     -12.449  13.648  62.443  1.00  0.00    -0.378 OA 
HETATM    7  C   UNL     1     -11.002  11.642  65.785  1.00  0.00    -0.274 A  
HETATM    8  C   UNL     1     -11.931  12.990  63.518  1.00  0.00    -0.545 A  
HETATM    9  C   UNL     1     -10.634  11.197  64.518  1.00  0.00    -0.397 A  
HETATM   10  H   UNL     1     -13.003  14.413  62.545  1.00  0.00     0.000 HD 
HETATM   11  C   UNL     1     -11.706  12.855  65.905  1.00  0.00    -0.449 A  
HETATM   12  C   UNL     1     -11.120  11.872  63.369  1.00  0.00    -0.463 A  
ENDROOT
BRANCH   3  13
HETATM   13  C   UNL     1      -8.780   8.813  66.743  1.00  0.00    -0.134 A  
HETATM   14  C   UNL     1      -7.220   6.945  68.188  1.00  0.00    -0.091 A  
HETATM   15  H   UNL     1      -5.760   6.387  69.484  1.00  0.00     0.000 HD 
HETATM   16  C   UNL     1      -7.691   9.214  67.537  1.00  0.00    -0.092 A  
HETATM   17  C   UNL     1      -6.940   8.297  68.282  1.00  0.00    -0.076 A  
HETATM   18  O   UNL     1      -6.463   6.083  68.923  1.00  0.00    -0.045 OA 
HETATM   19  C   UNL     1      -9.040   7.433  66.678  1.00  0.00    -0.184 A  
HETATM   20  C   UNL     1      -8.247   6.500  67.368  1.00  0.00    -0.121 A  
ENDBRANCH   3  13
BRANCH   5  21
HETATM   21  C   UNL     1     -10.972  10.562  68.120  1.00  0.00    -0.277 C  
BRANCH  21  22
HETATM   22  C   UNL     1     -11.015  11.823  68.948  1.00  0.00    -0.288 A  
HETATM   23  C   UNL     1     -12.169  13.217  70.549  1.00  0.00    -0.405 A  
HETATM   24  C   UNL     1     -10.288  14.115  69.369  1.00  0.00     0.060 A  
HETATM   25  C   UNL     1     -12.016  11.994  69.903  1.00  0.00    -0.391 A  
HETATM   26  C   UNL     1     -11.377  14.317  70.205  1.00  0.00    -0.129 A  
HETATM   27  C   UNL     1     -10.068  12.852  68.822  1.00  0.00    -0.058 A  
BRANCH  26  28
HETATM   28  O   UNL     1     -11.611  15.614  70.619  1.00  0.00    -0.300 OA 
BRANCH  28  29
HETATM   29  C   UNL     1     -10.821  16.563  69.896  1.00  0.00    -0.283 C  
BRANCH  29  30
HETATM   30  C   UNL     1     -11.363  16.948  68.512  1.00  0.00     0.021 C  
BRANCH  30  31
HETATM   31  N   UNL     1     -10.323  17.672  67.720  1.00  0.00    -0.349 NA 
HETATM   32  C   UNL     1     -10.712  19.075  67.495  1.00  0.00    -0.446 C  
HETATM   33  C   UNL     1      -9.767  19.962  66.686  1.00  0.00    -0.542 C  
HETATM   34  C   UNL     1      -8.509  20.328  67.448  1.00  0.00    -0.405 C  
HETATM   35  C   UNL     1      -7.408  19.283  67.358  1.00  0.00    -0.251 C  
HETATM   36  C   UNL     1      -7.861  17.827  67.364  1.00  0.00    -0.217 C  
HETATM   37  C   UNL     1      -9.002  17.499  68.334  1.00  0.00    -0.276 C  
ENDBRANCH  30  31
ENDBRANCH  29  30
ENDBRANCH  28  29
ENDBRANCH  26  28
ENDBRANCH  21  22
ENDBRANCH   5  21
TORSDOF 7
ENDMDL
MODEL       85
REMARK 921   NORMALIZED FREE ENERGY PREDICTED BY IDOCK:   -5.24 KCAL/MOL
REMARK 922        TOTAL FREE ENERGY PREDICTED BY IDOCK:  -10.45 KCAL/MOL
REMARK 923 INTER-LIGAND FREE ENERGY PREDICTED BY IDOCK:   -7.71 KCAL/MOL
REMARK 924 INTRA-LIGAND FREE ENERGY PREDICTED BY IDOCK:   -2.74 KCAL/MOL
REMARK 927      BINDING AFFINITY PREDICTED BY RF-SCORE:    0.00 PKD
ROOT
HETATM    1  C   UNL     1     -13.342  12.923  72.352  1.00  0.00    -0.526 C  
HETATM    2  C   UNL     1     -12.612  12.507  71.114  1.00  0.00    -0.349 A  
HETATM    3  C   UNL     1     -12.351  11.230  70.596  1.00  0.00    -0.383 A  
HETATM    4  C   UNL     1     -11.439  14.912  67.888  1.00  0.00    -0.357 A  
HETATM    5  N   UNL     1     -11.694  11.438  69.361  1.00  0.00    -0.307 NA 
HETATM    6  O   UNL     1     -11.620  16.945  69.042  1.00  0.00    -0.093 OA 
HETATM    7  C   UNL     1     -11.752  12.790  69.031  1.00  0.00    -0.323 A  
HETATM    8  C   UNL     1     -11.707  15.585  69.058  1.00  0.00    -0.377 A  
HETATM    9  C   UNL     1     -12.135  13.475  70.180  1.00  0.00    -0.425 A  
HETATM   10  H   UNL     1     -11.355  17.419  68.262  1.00  0.00     0.000 HD 
HETATM   11  C   UNL     1     -11.499  13.519  67.854  1.00  0.00    -0.353 A  
HETATM   12  C   UNL     1     -12.095  14.892  70.198  1.00  0.00    -0.379 A  
ENDROOT
BRANCH   3  13
HETATM   13  C   UNL     1     -12.687   9.903  71.189  1.00  0.00    -0.462 A  
HETATM   14  C   UNL     1     -13.338   7.324  72.154  1.00  0.00     0.022 A  
HETATM   15  H   UNL     1     -14.552   5.718  72.423  1.00  0.00     0.000 HD 
HETATM   16  C   UNL     1     -13.975   9.360  71.039  1.00  0.00     0.063 A  
HETATM   17  C   UNL     1     -14.291   8.070  71.482  1.00  0.00    -0.546 A  
HETATM   18  O   UNL     1     -13.685   6.076  72.576  1.00  0.00     0.180 OA 
HETATM   19  C   UNL     1     -11.743   9.114  71.869  1.00  0.00    -0.436 A  
HETATM   20  C   UNL     1     -12.072   7.847  72.378  1.00  0.00    -0.336 A  
ENDBRANCH   3  13
BRANCH   5  21
HETATM   21  C   UNL     1     -11.046  10.358  68.569  1.00  0.00    -0.266 C  
BRANCH  21  22
HETATM   22  C   UNL     1      -9.556  10.179  68.723  1.00  0.00    -0.170 A  
HETATM   23  C   UNL     1      -7.371   9.996  67.708  1.00  0.00    -0.089 A  
HETATM   24  C   UNL     1      -7.628   9.436  70.023  1.00  0.00    -0.113 A  
HETATM   25  C   UNL     1      -8.720  10.325  67.617  1.00  0.00    -0.121 A  
HETATM   26  C   UNL     1      -6.842   9.444  68.880  1.00  0.00    -0.055 A  
HETATM   27  C   UNL     1      -8.946   9.885  69.953  1.00  0.00    -0.231 A  
BRANCH  26  28
HETATM   28  O   UNL     1      -5.587   8.876  68.984  1.00  0.00    -0.036 OA 
BRANCH  28  29
HETATM   29  C   UNL     1      -5.643   7.522  69.441  1.00  0.00    -0.023 C  
BRANCH  29  30
HETATM   30  C   UNL     1      -6.101   6.495  68.396  1.00  0.00    -0.025 C  
BRANCH  30  31
HETATM   31  N   UNL     1      -7.340   5.794  68.852  1.00  0.00    -0.081 NA 
HETATM   32  C   UNL     1      -7.482   5.868  70.316  1.00  0.00    -0.089 C  
HETATM   33  C   UNL     1      -8.691   5.187  70.955  1.00  0.00    -0.139 C  
HETATM   34  C   UNL     1      -9.989   5.925  70.691  1.00  0.00    -0.242 C  
HETATM   35  C   UNL     1     -10.643   5.566  69.367  1.00  0.00    -0.349 C  
HETATM   36  C   UNL     1      -9.698   5.321  68.195  1.00  0.00    -0.184 C  
HETATM   37  C   UNL     1      -8.505   6.279  68.102  1.00  0.00    -0.114 C  
ENDBRANCH  30  31
ENDBRANCH  29  30
ENDBRANCH  28  29
ENDBRANCH  26  28
ENDBRANCH  21  22
ENDBRANCH   5  21
TORSDOF 7
ENDMDL
MODEL       86
REMARK 921   NORMALIZED FREE ENERGY PREDICTED BY IDOCK:   -5.22 KCAL/MOL
REMARK 922        TOTAL FREE ENERGY PREDICTED BY IDOCK:  -10.43 KCAL/MOL
REMARK 923 INTER-LIGAND FREE ENERGY PREDICTED BY IDOCK:   -8.72 KCAL/MOL
REMARK 924 INTRA-LIGAND FREE ENERGY PREDICTED BY IDOCK:   -1.71 KCAL/MOL
REMARK 927      BINDING AFFINITY PREDICTED BY RF-SCORE:    0.00 PKD
ROOT
HETATM    1  C   UNL     1     -10.961  15.668  64.265  1.00  0.00     0.157 C  
HETATM    2  C   UNL     1     -10.564  15.726  65.706  1.00  0.00    -0.369 A  
HETATM    3  C   UNL     1     -10.200  14.703  66.593  1.00  0.00    -0.274 A  
HETATM    4  C   UNL     1      -9.546  19.110  67.961  1.00  0.00    -0.397 A  
HETATM    5  N   UNL     1      -9.849  15.343  67.804  1.00  0.00    -0.220 NA 
HETATM    6  O   UNL     1     -10.519  20.661  66.496  1.00  0.00    -0.147 OA 
HETATM    7  C   UNL     1      -9.786  16.719  67.596  1.00  0.00    -0.261 A  
HETATM    8  C   UNL     1     -10.262  19.360  66.812  1.00  0.00    -0.420 A  
HETATM    9  C   UNL     1     -10.409  16.976  66.378  1.00  0.00    -0.304 A  
HETATM   10  H   UNL     1     -10.244  21.375  67.059  1.00  0.00     0.000 HD 
HETATM   11  C   UNL     1      -9.267  17.796  68.338  1.00  0.00    -0.285 A  
HETATM   12  C   UNL     1     -10.665  18.315  65.990  1.00  0.00    -0.193 A  
ENDROOT
BRANCH   3  13
HETATM   13  C   UNL     1     -10.167  13.231  66.347  1.00  0.00    -0.292 A  
HETATM   14  C   UNL     1     -10.064  10.420  66.046  1.00  0.00    -0.243 A  
HETATM   15  H   UNL     1      -9.144   8.609  66.026  1.00  0.00     0.000 HD 
HETATM   16  C   UNL     1      -8.954  12.525  66.411  1.00  0.00    -0.077 A  
HETATM   17  C   UNL     1      -8.903  11.130  66.299  1.00  0.00    -0.190 A  
HETATM   18  O   UNL     1      -9.973   9.065  65.936  1.00  0.00    -0.276 OA 
HETATM   19  C   UNL     1     -11.326  12.477  66.097  1.00  0.00    -0.388 A  
HETATM   20  C   UNL     1     -11.275  11.085  65.914  1.00  0.00     0.071 A  
ENDBRANCH   3  13
BRANCH   5  21
HETATM   21  C   UNL     1      -9.600  14.628  69.084  1.00  0.00    -0.087 C  
BRANCH  21  22
HETATM   22  C   UNL     1     -10.737  13.823  69.665  1.00  0.00     0.171 A  
HETATM   23  C   UNL     1     -12.655  13.697  71.129  1.00  0.00    -0.452 A  
HETATM   24  C   UNL     1     -11.759  11.674  70.210  1.00  0.00    -0.355 A  
HETATM   25  C   UNL     1     -11.703  14.452  70.449  1.00  0.00    -0.346 A  
HETATM   26  C   UNL     1     -12.619  12.299  71.102  1.00  0.00    -0.253 A  
HETATM   27  C   UNL     1     -10.892  12.446  69.439  1.00  0.00     0.011 A  
BRANCH  26  28
HETATM   28  O   UNL     1     -13.367  11.477  71.923  1.00  0.00    -0.443 OA 
BRANCH  28  29
HETATM   29  C   UNL     1     -13.383  10.123  71.463  1.00  0.00    -0.341 C  
BRANCH  29  30
HETATM   30  C   UNL     1     -12.846   9.086  72.459  1.00  0.00    -0.338 C  
BRANCH  30  31
HETATM   31  N   UNL     1     -11.773   8.256  71.831  1.00  0.00    -0.299 NA 
HETATM   32  C   UNL     1     -10.810   7.784  72.842  1.00  0.00    -0.392 C  
HETATM   33  C   UNL     1      -9.634   6.930  72.369  1.00  0.00    -0.167 C  
HETATM   34  C   UNL     1     -10.050   5.529  71.966  1.00  0.00    -0.233 C  
HETATM   35  C   UNL     1     -10.544   5.423  70.532  1.00  0.00    -0.312 C  
HETATM   36  C   UNL     1     -11.364   6.599  70.014  1.00  0.00    -0.440 C  
HETATM   37  C   UNL     1     -12.365   7.192  71.012  1.00  0.00    -0.334 C  
ENDBRANCH  30  31
ENDBRANCH  29  30
ENDBRANCH  28  29
ENDBRANCH  26  28
ENDBRANCH  21  22
ENDBRANCH   5  21
TORSDOF 7
ENDMDL
MODEL       87
REMARK 921   NORMALIZED FREE ENERGY PREDICTED BY IDOCK:   -5.22 KCAL/MOL
REMARK 922        TOTAL FREE ENERGY PREDICTED BY IDOCK:  -10.42 KCAL/MOL
REMARK 923 INTER-LIGAND FREE ENERGY PREDICTED BY IDOCK:   -8.34 KCAL/MOL
REMARK 924 INTRA-LIGAND FREE ENERGY PREDICTED BY IDOCK:   -2.08 KCAL/MOL
REMARK 927      BINDING AFFINITY PREDICTED BY RF-SCORE:    0.00 PKD
ROOT
HETATM    1  C   UNL     1     -10.418  15.140  70.453  1.00  0.00    -0.107 C  
HETATM    2  C   UNL     1     -10.709  14.399  69.186  1.00  0.00    -0.254 A  
HETATM    3  C   UNL     1     -11.255  13.123  68.982  1.00  0.00    -0.258 A  
HETATM    4  C   UNL     1     -10.778  15.910  65.278  1.00  0.00    -0.442 A  
HETATM    5  N   UNL     1     -11.379  12.972  67.582  1.00  0.00    -0.283 NA 
HETATM    6  O   UNL     1      -9.550  17.847  65.761  1.00  0.00    -0.514 OA 
HETATM    7  C   UNL     1     -11.127  14.194  66.963  1.00  0.00    -0.307 A  
HETATM    8  C   UNL     1     -10.088  16.672  66.192  1.00  0.00    -0.345 A  
HETATM    9  C   UNL     1     -10.530  15.017  67.913  1.00  0.00    -0.247 A  
HETATM   10  H   UNL     1      -9.618  18.125  64.855  1.00  0.00     0.000 HD 
HETATM   11  C   UNL     1     -11.337  14.691  65.663  1.00  0.00    -0.338 A  
HETATM   12  C   UNL     1      -9.988  16.266  67.517  1.00  0.00    -0.248 A  
ENDROOT
BRANCH   3  13
HETATM   13  C   UNL     1     -11.646  12.108  70.004  1.00  0.00    -0.251 A  
HETATM   14  C   UNL     1     -12.539  10.168  71.860  1.00  0.00    -0.343 A  
HETATM   15  H   UNL     1     -13.744   9.453  73.330  1.00  0.00     0.000 HD 
HETATM   16  C   UNL     1     -12.674  12.382  70.923  1.00  0.00    -0.273 A  
HETATM   17  C   UNL     1     -13.143  11.413  71.818  1.00  0.00    -0.523 A  
HETATM   18  O   UNL     1     -13.019   9.254  72.749  1.00  0.00    -0.308 OA 
HETATM   19  C   UNL     1     -11.061  10.832  70.070  1.00  0.00    -0.327 A  
HETATM   20  C   UNL     1     -11.479   9.878  71.012  1.00  0.00    -0.466 A  
ENDBRANCH   3  13
BRANCH   5  21
HETATM   21  C   UNL     1     -11.718  11.690  66.909  1.00  0.00    -0.049 C  
BRANCH  21  22
HETATM   22  C   UNL     1     -10.620  10.991  66.146  1.00  0.00    -0.288 A  
HETATM   23  C   UNL     1      -9.309  10.771  64.128  1.00  0.00    -0.286 A  
HETATM   24  C   UNL     1      -9.182   9.050  65.790  1.00  0.00    -0.293 A  
HETATM   25  C   UNL     1     -10.195  11.497  64.918  1.00  0.00    -0.324 A  
HETATM   26  C   UNL     1      -8.884   9.494  64.509  1.00  0.00    -0.213 A  
HETATM   27  C   UNL     1      -9.970   9.841  66.624  1.00  0.00    -0.292 A  
BRANCH  26  28
HETATM   28  O   UNL     1      -8.202   8.615  63.690  1.00  0.00    -0.165 OA 
BRANCH  28  29
HETATM   29  C   UNL     1      -7.271   7.811  64.418  1.00  0.00    -0.078 C  
BRANCH  29  30
HETATM   30  C   UNL     1      -5.804   8.256  64.321  1.00  0.00    -0.064 C  
BRANCH  30  31
HETATM   31  N   UNL     1      -5.387   8.974  65.563  1.00  0.00    -0.037 NA 
HETATM   32  C   UNL     1      -5.688  10.413  65.469  1.00  0.00    -0.117 C  
HETATM   33  C   UNL     1      -5.311  11.305  66.651  1.00  0.00    -0.122 C  
HETATM   34  C   UNL     1      -6.209  11.094  67.855  1.00  0.00    -0.053 C  
HETATM   35  C   UNL     1      -5.780   9.941  68.747  1.00  0.00    -0.035 C  
HETATM   36  C   UNL     1      -5.221   8.713  68.037  1.00  0.00    -0.035 C  
HETATM   37  C   UNL     1      -5.947   8.313  66.748  1.00  0.00    -0.053 C  
ENDBRANCH  30  31
ENDBRANCH  29  30
ENDBRANCH  28  29
ENDBRANCH  26  28
ENDBRANCH  21  22
ENDBRANCH   5  21
TORSDOF 7
ENDMDL
MODEL       88
REMARK 921   NORMALIZED FREE ENERGY PREDICTED BY IDOCK:   -5.19 KCAL/MOL
REMARK 922        TOTAL FREE ENERGY PREDICTED BY IDOCK:  -10.38 KCAL/MOL
REMARK 923 INTER-LIGAND FREE ENERGY PREDICTED BY IDOCK:   -8.67 KCAL/MOL
REMARK 924 INTRA-LIGAND FREE ENERGY PREDICTED BY IDOCK:   -1.71 KCAL/MOL
REMARK 927      BINDING AFFINITY PREDICTED BY RF-SCORE:    0.00 PKD
ROOT
HETATM    1  C   UNL     1      -8.531  10.075  62.919  1.00  0.00    -0.176 C  
HETATM    2  C   UNL     1      -9.392  10.203  64.137  1.00  0.00    -0.340 A  
HETATM    3  C   UNL     1      -9.307   9.567  65.384  1.00  0.00    -0.261 A  
HETATM    4  C   UNL     1     -12.281  13.129  64.949  1.00  0.00    -0.477 A  
HETATM    5  N   UNL     1     -10.332  10.129  66.178  1.00  0.00    -0.204 NA 
HETATM    6  O   UNL     1     -12.524  13.832  62.726  1.00  0.00    -0.879 OA 
HETATM    7  C   UNL     1     -10.879  11.225  65.516  1.00  0.00    -0.179 A  
HETATM    8  C   UNL     1     -11.941  12.988  63.623  1.00  0.00    -0.539 A  
HETATM    9  C   UNL     1     -10.449  11.159  64.194  1.00  0.00    -0.442 A  
HETATM   10  H   UNL     1     -13.166  14.479  62.994  1.00  0.00     0.000 HD 
HETATM   11  C   UNL     1     -11.724  12.281  65.907  1.00  0.00    -0.451 A  
HETATM   12  C   UNL     1     -11.001  12.042  63.232  1.00  0.00    -0.399 A  
ENDROOT
BRANCH   3  13
HETATM   13  C   UNL     1      -8.343   8.516  65.824  1.00  0.00    -0.144 A  
HETATM   14  C   UNL     1      -6.567   6.552  66.821  1.00  0.00    -0.048 A  
HETATM   15  H   UNL     1      -4.972   5.895  67.893  1.00  0.00     0.000 HD 
HETATM   16  C   UNL     1      -7.213   8.859  66.586  1.00  0.00    -0.085 A  
HETATM   17  C   UNL     1      -6.352   7.888  67.112  1.00  0.00    -0.055 A  
HETATM   18  O   UNL     1      -5.704   5.637  67.345  1.00  0.00    -0.015 OA 
HETATM   19  C   UNL     1      -8.534   7.150  65.556  1.00  0.00    -0.114 A  
HETATM   20  C   UNL     1      -7.637   6.175  66.021  1.00  0.00    -0.087 A  
ENDBRANCH   3  13
BRANCH   5  21
HETATM   21  C   UNL     1     -10.741   9.601  67.507  1.00  0.00    -0.256 C  
BRANCH  21  22
HETATM   22  C   UNL     1     -11.052  10.605  68.590  1.00  0.00    -0.315 A  
HETATM   23  C   UNL     1     -12.497  11.350  70.378  1.00  0.00    -0.345 A  
HETATM   24  C   UNL     1     -10.803  12.832  69.559  1.00  0.00     0.158 A  
HETATM   25  C   UNL     1     -12.090  10.360  69.488  1.00  0.00    -0.125 A  
HETATM   26  C   UNL     1     -11.930  12.628  70.342  1.00  0.00    -0.248 A  
HETATM   27  C   UNL     1     -10.325  11.794  68.761  1.00  0.00    -0.198 A  
BRANCH  26  28
HETATM   28  O   UNL     1     -12.425  13.727  71.017  1.00  0.00    -0.349 OA 
BRANCH  28  29
HETATM   29  C   UNL     1     -11.494  14.813  71.038  1.00  0.00    -0.216 C  
BRANCH  29  30
HETATM   30  C   UNL     1     -11.915  16.053  70.237  1.00  0.00    -0.206 C  
BRANCH  30  31
HETATM   31  N   UNL     1     -11.032  16.236  69.044  1.00  0.00    -0.306 NA 
HETATM   32  C   UNL     1      -9.646  15.839  69.346  1.00  0.00    -0.284 C  
HETATM   33  C   UNL     1      -8.602  15.977  68.239  1.00  0.00    -0.179 C  
HETATM   34  C   UNL     1      -8.767  14.941  67.144  1.00  0.00    -0.240 C  
HETATM   35  C   UNL     1      -9.774  15.330  66.074  1.00  0.00    -0.367 C  
HETATM   36  C   UNL     1     -11.013  16.077  66.557  1.00  0.00    -0.080 C  
HETATM   37  C   UNL     1     -11.614  15.571  67.873  1.00  0.00    -0.223 C  
ENDBRANCH  30  31
ENDBRANCH  29  30
ENDBRANCH  28  29
ENDBRANCH  26  28
ENDBRANCH  21  22
ENDBRANCH   5  21
TORSDOF 7
ENDMDL
MODEL       89
REMARK 921   NORMALIZED FREE ENERGY PREDICTED BY IDOCK:   -5.19 KCAL/MOL
REMARK 922        TOTAL FREE ENERGY PREDICTED BY IDOCK:  -10.37 KCAL/MOL
REMARK 923 INTER-LIGAND FREE ENERGY PREDICTED BY IDOCK:   -8.36 KCAL/MOL
REMARK 924 INTRA-LIGAND FREE ENERGY PREDICTED BY IDOCK:   -2.01 KCAL/MOL
REMARK 927      BINDING AFFINITY PREDICTED BY RF-SCORE:    0.00 PKD
ROOT
HETATM    1  C   UNL     1     -11.146   6.560  67.004  1.00  0.00    -0.411 C  
HETATM    2  C   UNL     1     -10.322   7.350  67.971  1.00  0.00    -0.247 A  
HETATM    3  C   UNL     1      -9.237   8.212  67.753  1.00  0.00    -0.134 A  
HETATM    4  C   UNL     1     -11.139   8.131  72.007  1.00  0.00    -0.370 A  
HETATM    5  N   UNL     1      -8.902   8.744  69.019  1.00  0.00    -0.136 NA 
HETATM    6  O   UNL     1     -12.702   6.403  72.262  1.00  0.00    -0.552 OA 
HETATM    7  C   UNL     1      -9.887   8.395  69.941  1.00  0.00    -0.186 A  
HETATM    8  C   UNL     1     -11.812   7.060  71.466  1.00  0.00    -0.314 A  
HETATM    9  C   UNL     1     -10.650   7.387  69.359  1.00  0.00    -0.231 A  
HETATM   10  H   UNL     1     -12.837   6.650  73.170  1.00  0.00     0.000 HD 
HETATM   11  C   UNL     1     -10.206   8.830  71.240  1.00  0.00    -0.332 A  
HETATM   12  C   UNL     1     -11.614   6.699  70.139  1.00  0.00    -0.446 A  
ENDROOT
BRANCH   3  13
HETATM   13  C   UNL     1      -8.554   8.533  66.466  1.00  0.00    -0.130 A  
HETATM   14  C   UNL     1      -7.223   9.300  64.089  1.00  0.00    -0.098 A  
HETATM   15  H   UNL     1      -6.972  10.399  62.401  1.00  0.00     0.000 HD 
HETATM   16  C   UNL     1      -9.096   9.490  65.591  1.00  0.00    -0.250 A  
HETATM   17  C   UNL     1      -8.423   9.898  64.433  1.00  0.00    -0.183 A  
HETATM   18  O   UNL     1      -6.602   9.719  62.952  1.00  0.00    -0.103 OA 
HETATM   19  C   UNL     1      -7.330   7.953  66.091  1.00  0.00    -0.074 A  
HETATM   20  C   UNL     1      -6.683   8.307  64.895  1.00  0.00    -0.067 A  
ENDBRANCH   3  13
BRANCH   5  21
HETATM   21  C   UNL     1      -7.677   9.543  69.290  1.00  0.00    -0.086 C  
BRANCH  21  22
HETATM   22  C   UNL     1      -7.515  10.845  68.545  1.00  0.00    -0.103 A  
HETATM   23  C   UNL     1      -6.075  12.432  67.428  1.00  0.00    -0.158 A  
HETATM   24  C   UNL     1      -8.323  13.072  67.957  1.00  0.00    -0.169 A  
HETATM   25  C   UNL     1      -6.288  11.166  67.967  1.00  0.00    -0.053 A  
HETATM   26  C   UNL     1      -7.054  13.427  67.520  1.00  0.00    -0.144 A  
HETATM   27  C   UNL     1      -8.562  11.766  68.380  1.00  0.00    -0.156 A  
BRANCH  26  28
HETATM   28  O   UNL     1      -6.848  14.762  67.229  1.00  0.00    -0.255 OA 
BRANCH  28  29
HETATM   29  C   UNL     1      -7.416  15.625  68.219  1.00  0.00    -0.115 C  
BRANCH  29  30
HETATM   30  C   UNL     1      -6.799  17.029  68.296  1.00  0.00    -0.170 C  
BRANCH  30  31
HETATM   31  N   UNL     1      -7.866  18.076  68.288  1.00  0.00    -0.278 NA 
HETATM   32  C   UNL     1      -7.459  19.239  67.481  1.00  0.00    -0.235 C  
HETATM   33  C   UNL     1      -8.430  20.415  67.377  1.00  0.00    -0.394 C  
HETATM   34  C   UNL     1      -9.634  20.107  66.509  1.00  0.00    -0.529 C  
HETATM   35  C   UNL     1     -10.761  19.403  67.248  1.00  0.00    -0.603 C  
HETATM   36  C   UNL     1     -10.341  18.376  68.294  1.00  0.00    -0.384 C  
HETATM   37  C   UNL     1      -9.154  17.488  67.903  1.00  0.00    -0.261 C  
ENDBRANCH  30  31
ENDBRANCH  29  30
ENDBRANCH  28  29
ENDBRANCH  26  28
ENDBRANCH  21  22
ENDBRANCH   5  21
TORSDOF 7
ENDMDL
MODEL       90
REMARK 921   NORMALIZED FREE ENERGY PREDICTED BY IDOCK:   -5.17 KCAL/MOL
REMARK 922        TOTAL FREE ENERGY PREDICTED BY IDOCK:  -10.35 KCAL/MOL
REMARK 923 INTER-LIGAND FREE ENERGY PREDICTED BY IDOCK:   -8.77 KCAL/MOL
REMARK 924 INTRA-LIGAND FREE ENERGY PREDICTED BY IDOCK:   -1.57 KCAL/MOL
REMARK 927      BINDING AFFINITY PREDICTED BY RF-SCORE:    0.00 PKD
ROOT
HETATM    1  C   UNL     1      -8.315   7.310  70.277  1.00  0.00    -0.135 C  
HETATM    2  C   UNL     1      -8.879   8.231  69.242  1.00  0.00    -0.143 A  
HETATM    3  C   UNL     1     -10.080   8.955  69.223  1.00  0.00    -0.203 A  
HETATM    4  C   UNL     1      -6.916   9.893  65.932  1.00  0.00    -0.106 A  
HETATM    5  N   UNL     1     -10.056   9.719  68.034  1.00  0.00    -0.162 NA 
HETATM    6  O   UNL     1      -5.141   8.361  65.928  1.00  0.00    -0.027 OA 
HETATM    7  C   UNL     1      -8.790   9.636  67.459  1.00  0.00    -0.125 A  
HETATM    8  C   UNL     1      -6.318   8.778  66.474  1.00  0.00    -0.062 A  
HETATM    9  C   UNL     1      -8.129   8.579  68.079  1.00  0.00    -0.115 A  
HETATM   10  H   UNL     1      -4.754   8.802  65.179  1.00  0.00     0.000 HD 
HETATM   11  C   UNL     1      -8.129  10.354  66.445  1.00  0.00    -0.129 A  
HETATM   12  C   UNL     1      -6.883   8.135  67.568  1.00  0.00    -0.070 A  
ENDROOT
BRANCH   3  13
HETATM   13  C   UNL     1     -11.178   8.955  70.234  1.00  0.00    -0.219 A  
HETATM   14  C   UNL     1     -13.352   9.052  72.043  1.00  0.00    -0.438 A  
HETATM   15  H   UNL     1     -14.647   9.973  73.307  1.00  0.00     0.000 HD 
HETATM   16  C   UNL     1     -11.526  10.137  70.908  1.00  0.00    -0.444 A  
HETATM   17  C   UNL     1     -12.624  10.199  71.776  1.00  0.00    -0.500 A  
HETATM   18  O   UNL     1     -14.408   9.149  72.897  1.00  0.00    -0.519 OA 
HETATM   19  C   UNL     1     -11.943   7.812  70.523  1.00  0.00     0.001 A  
HETATM   20  C   UNL     1     -13.002   7.849  71.445  1.00  0.00    -0.301 A  
ENDBRANCH   3  13
BRANCH   5  21
HETATM   21  C   UNL     1     -11.222  10.476  67.505  1.00  0.00    -0.224 C  
BRANCH  21  22
HETATM   22  C   UNL     1     -11.163  11.982  67.571  1.00  0.00    -0.357 A  
HETATM   23  C   UNL     1     -10.464  13.984  68.729  1.00  0.00    -0.238 A  
HETATM   24  C   UNL     1     -12.018  14.173  66.916  1.00  0.00    -0.479 A  
HETATM   25  C   UNL     1     -10.391  12.606  68.550  1.00  0.00    -0.232 A  
HETATM   26  C   UNL     1     -11.360  14.761  67.987  1.00  0.00    -0.316 A  
HETATM   27  C   UNL     1     -11.843  12.813  66.666  1.00  0.00    -0.462 A  
BRANCH  26  28
HETATM   28  O   UNL     1     -11.666  16.080  68.256  1.00  0.00    -0.303 OA 
BRANCH  28  29
HETATM   29  C   UNL     1     -10.782  16.986  67.590  1.00  0.00    -0.295 C  
BRANCH  29  30
HETATM   30  C   UNL     1      -9.850  17.788  68.510  1.00  0.00    -0.355 C  
BRANCH  30  31
HETATM   31  N   UNL     1      -8.573  18.121  67.809  1.00  0.00    -0.252 NA 
HETATM   32  C   UNL     1      -8.806  19.071  66.707  1.00  0.00    -0.310 C  
HETATM   33  C   UNL     1      -7.604  19.509  65.871  1.00  0.00    -0.306 C  
HETATM   34  C   UNL     1      -6.680  20.449  66.619  1.00  0.00    -0.291 C  
HETATM   35  C   UNL     1      -5.657  19.741  67.493  1.00  0.00    -0.181 C  
HETATM   36  C   UNL     1      -6.137  18.480  68.203  1.00  0.00    -0.193 C  
HETATM   37  C   UNL     1      -7.557  18.550  68.777  1.00  0.00    -0.284 C  
ENDBRANCH  30  31
ENDBRANCH  29  30
ENDBRANCH  28  29
ENDBRANCH  26  28
ENDBRANCH  21  22
ENDBRANCH   5  21
TORSDOF 7
ENDMDL
MODEL       91
REMARK 921   NORMALIZED FREE ENERGY PREDICTED BY IDOCK:   -5.16 KCAL/MOL
REMARK 922        TOTAL FREE ENERGY PREDICTED BY IDOCK:  -10.34 KCAL/MOL
REMARK 923 INTER-LIGAND FREE ENERGY PREDICTED BY IDOCK:   -7.58 KCAL/MOL
REMARK 924 INTRA-LIGAND FREE ENERGY PREDICTED BY IDOCK:   -2.76 KCAL/MOL
REMARK 927      BINDING AFFINITY PREDICTED BY RF-SCORE:    0.00 PKD
ROOT
HETATM    1  C   UNL     1      -9.600   6.651  69.844  1.00  0.00    -0.161 C  
HETATM    2  C   UNL     1     -10.317   7.939  70.100  1.00  0.00    -0.215 A  
HETATM    3  C   UNL     1     -10.014   9.247  69.692  1.00  0.00    -0.191 A  
HETATM    4  C   UNL     1     -14.184   8.474  71.625  1.00  0.00    -0.496 A  
HETATM    5  N   UNL     1     -11.080  10.054  70.152  1.00  0.00    -0.288 NA 
HETATM    6  O   UNL     1     -14.368   6.322  72.538  1.00  0.00    -0.692 OA 
HETATM    7  C   UNL     1     -12.104   9.239  70.628  1.00  0.00    -0.100 A  
HETATM    8  C   UNL     1     -13.615   7.246  71.877  1.00  0.00    -0.216 A  
HETATM    9  C   UNL     1     -11.571   7.962  70.780  1.00  0.00    -0.258 A  
HETATM   10  H   UNL     1     -15.246   6.520  72.844  1.00  0.00     0.000 HD 
HETATM   11  C   UNL     1     -13.452   9.461  70.964  1.00  0.00    -0.159 A  
HETATM   12  C   UNL     1     -12.332   6.957  71.430  1.00  0.00    -0.421 A  
ENDROOT
BRANCH   3  13
HETATM   13  C   UNL     1      -8.829   9.727  68.924  1.00  0.00    -0.140 A  
HETATM   14  C   UNL     1      -6.676  10.770  67.412  1.00  0.00    -0.076 A  
HETATM   15  H   UNL     1      -5.730  11.312  65.700  1.00  0.00     0.000 HD 
HETATM   16  C   UNL     1      -8.841   9.723  67.518  1.00  0.00    -0.129 A  
HETATM   17  C   UNL     1      -7.795  10.272  66.767  1.00  0.00    -0.114 A  
HETATM   18  O   UNL     1      -5.675  11.289  66.648  1.00  0.00    -0.101 OA 
HETATM   19  C   UNL     1      -7.681  10.247  69.545  1.00  0.00    -0.167 A  
HETATM   20  C   UNL     1      -6.596  10.736  68.798  1.00  0.00    -0.054 A  
ENDBRANCH   3  13
BRANCH   5  21
HETATM   21  C   UNL     1     -11.071  11.541  70.125  1.00  0.00     0.235 C  
BRANCH  21  22
HETATM   22  C   UNL     1     -11.549  12.218  68.864  1.00  0.00    -0.367 A  
HETATM   23  C   UNL     1     -11.723  12.233  66.454  1.00  0.00    -0.431 A  
HETATM   24  C   UNL     1     -12.283  14.218  67.672  1.00  0.00    -0.215 A  
HETATM   25  C   UNL     1     -11.447  11.559  67.639  1.00  0.00    -0.357 A  
HETATM   26  C   UNL     1     -12.035  13.597  66.456  1.00  0.00    -0.424 A  
HETATM   27  C   UNL     1     -12.124  13.499  68.855  1.00  0.00    -0.315 A  
BRANCH  26  28
HETATM   28  O   UNL     1     -12.092  14.392  65.328  1.00  0.00    -0.378 OA 
BRANCH  28  29
HETATM   29  C   UNL     1     -11.397  15.629  65.504  1.00  0.00    -0.037 C  
BRANCH  29  30
HETATM   30  C   UNL     1      -9.933  15.630  65.042  1.00  0.00     0.059 C  
BRANCH  30  31
HETATM   31  N   UNL     1      -9.007  15.607  66.215  1.00  0.00    -0.324 NA 
HETATM   32  C   UNL     1      -9.472  16.520  67.274  1.00  0.00    -0.235 C  
HETATM   33  C   UNL     1      -8.632  16.632  68.545  1.00  0.00    -0.234 C  
HETATM   34  C   UNL     1      -8.730  15.401  69.424  1.00  0.00    -0.252 C  
HETATM   35  C   UNL     1      -7.769  14.289  69.035  1.00  0.00    -0.065 C  
HETATM   36  C   UNL     1      -7.535  14.095  67.541  1.00  0.00    -0.192 C  
HETATM   37  C   UNL     1      -8.781  14.227  66.658  1.00  0.00    -0.068 C  
ENDBRANCH  30  31
ENDBRANCH  29  30
ENDBRANCH  28  29
ENDBRANCH  26  28
ENDBRANCH  21  22
ENDBRANCH   5  21
TORSDOF 7
ENDMDL
MODEL       92
REMARK 921   NORMALIZED FREE ENERGY PREDICTED BY IDOCK:   -5.16 KCAL/MOL
REMARK 922        TOTAL FREE ENERGY PREDICTED BY IDOCK:  -10.34 KCAL/MOL
REMARK 923 INTER-LIGAND FREE ENERGY PREDICTED BY IDOCK:   -7.93 KCAL/MOL
REMARK 924 INTRA-LIGAND FREE ENERGY PREDICTED BY IDOCK:   -2.41 KCAL/MOL
REMARK 927      BINDING AFFINITY PREDICTED BY RF-SCORE:    0.00 PKD
ROOT
HETATM    1  C   UNL     1     -11.539  16.086  70.756  1.00  0.00    -0.431 C  
HETATM    2  C   UNL     1     -11.499  14.875  69.878  1.00  0.00    -0.321 A  
HETATM    3  C   UNL     1     -10.852  14.659  68.653  1.00  0.00    -0.255 A  
HETATM    4  C   UNL     1     -12.712  10.974  70.818  1.00  0.00    -0.414 A  
HETATM    5  N   UNL     1     -11.093  13.306  68.318  1.00  0.00    -0.253 NA 
HETATM    6  O   UNL     1     -14.028  11.582  72.660  1.00  0.00    -0.107 OA 
HETATM    7  C   UNL     1     -11.676  12.660  69.406  1.00  0.00    -0.325 A  
HETATM    8  C   UNL     1     -13.230  11.963  71.622  1.00  0.00    -0.262 A  
HETATM    9  C   UNL     1     -12.104  13.649  70.286  1.00  0.00    -0.427 A  
HETATM   10  H   UNL     1     -14.248  10.670  72.811  1.00  0.00     0.000 HD 
HETATM   11  C   UNL     1     -11.900  11.310  69.733  1.00  0.00    -0.437 A  
HETATM   12  C   UNL     1     -12.907  13.295  71.401  1.00  0.00    -0.411 A  
ENDROOT
BRANCH   3  13
HETATM   13  C   UNL     1     -10.057  15.626  67.842  1.00  0.00    -0.225 A  
HETATM   14  C   UNL     1      -8.453  17.329  66.249  1.00  0.00    -0.243 A  
HETATM   15  H   UNL     1      -6.722  18.244  65.710  1.00  0.00     0.000 HD 
HETATM   16  C   UNL     1      -8.714  15.890  68.162  1.00  0.00    -0.171 A  
HETATM   17  C   UNL     1      -7.907  16.703  67.356  1.00  0.00    -0.188 A  
HETATM   18  O   UNL     1      -7.638  18.117  65.494  1.00  0.00    -0.527 OA 
HETATM   19  C   UNL     1     -10.575  16.272  66.707  1.00  0.00    -0.257 A  
HETATM   20  C   UNL     1      -9.792  17.144  65.932  1.00  0.00    -0.178 A  
ENDBRANCH   3  13
BRANCH   5  21
HETATM   21  C   UNL     1     -10.769  12.703  66.998  1.00  0.00    -0.245 C  
BRANCH  21  22
HETATM   22  C   UNL     1      -9.403  12.085  66.831  1.00  0.00    -0.200 A  
HETATM   23  C   UNL     1      -8.007  10.361  65.871  1.00  0.00    -0.151 A  
HETATM   24  C   UNL     1      -7.112  11.750  67.606  1.00  0.00    -0.107 A  
HETATM   25  C   UNL     1      -9.214  11.053  65.912  1.00  0.00    -0.220 A  
HETATM   26  C   UNL     1      -6.990  10.632  66.793  1.00  0.00    -0.110 A  
HETATM   27  C   UNL     1      -8.277  12.513  67.553  1.00  0.00    -0.175 A  
BRANCH  26  28
HETATM   28  O   UNL     1      -5.867   9.849  66.977  1.00  0.00    -0.050 OA 
BRANCH  28  29
HETATM   29  C   UNL     1      -5.664   9.509  68.351  1.00  0.00    -0.040 C  
BRANCH  29  30
HETATM   30  C   UNL     1      -5.812   8.019  68.687  1.00  0.00    -0.039 C  
BRANCH  30  31
HETATM   31  N   UNL     1      -7.027   7.783  69.526  1.00  0.00    -0.057 NA 
HETATM   32  C   UNL     1      -7.100   8.751  70.634  1.00  0.00    -0.063 C  
HETATM   33  C   UNL     1      -8.276   8.644  71.603  1.00  0.00    -0.199 C  
HETATM   34  C   UNL     1      -9.587   9.096  70.989  1.00  0.00    -0.350 C  
HETATM   35  C   UNL     1     -10.301   8.013  70.197  1.00  0.00    -0.215 C  
HETATM   36  C   UNL     1      -9.412   7.070  69.394  1.00  0.00    -0.145 C  
HETATM   37  C   UNL     1      -8.227   7.732  68.682  1.00  0.00    -0.128 C  
ENDBRANCH  30  31
ENDBRANCH  29  30
ENDBRANCH  28  29
ENDBRANCH  26  28
ENDBRANCH  21  22
ENDBRANCH   5  21
TORSDOF 7
ENDMDL
MODEL       93
REMARK 921   NORMALIZED FREE ENERGY PREDICTED BY IDOCK:   -5.14 KCAL/MOL
REMARK 922        TOTAL FREE ENERGY PREDICTED BY IDOCK:  -10.30 KCAL/MOL
REMARK 923 INTER-LIGAND FREE ENERGY PREDICTED BY IDOCK:   -8.17 KCAL/MOL
REMARK 924 INTRA-LIGAND FREE ENERGY PREDICTED BY IDOCK:   -2.14 KCAL/MOL
REMARK 927      BINDING AFFINITY PREDICTED BY RF-SCORE:    0.00 PKD
ROOT
HETATM    1  C   UNL     1     -11.629  16.458  64.395  1.00  0.00     0.069 C  
HETATM    2  C   UNL     1     -10.982  15.293  65.076  1.00  0.00    -0.450 A  
HETATM    3  C   UNL     1     -10.127  15.246  66.186  1.00  0.00    -0.296 A  
HETATM    4  C   UNL     1     -11.850  11.222  64.588  1.00  0.00     0.360 A  
HETATM    5  N   UNL     1      -9.889  13.875  66.437  1.00  0.00    -0.287 NA 
HETATM    6  O   UNL     1     -12.972  11.471  62.545  1.00  0.00    -0.480 OA 
HETATM    7  C   UNL     1     -10.745  13.108  65.650  1.00  0.00    -0.280 A  
HETATM    8  C   UNL     1     -12.275  12.042  63.568  1.00  0.00    -0.547 A  
HETATM    9  C   UNL     1     -11.274  13.954  64.679  1.00  0.00    -0.380 A  
HETATM   10  H   UNL     1     -13.136  10.536  62.513  1.00  0.00     0.000 HD 
HETATM   11  C   UNL     1     -11.121  11.752  65.653  1.00  0.00    -0.340 A  
HETATM   12  C   UNL     1     -12.036  13.409  63.615  1.00  0.00    -0.504 A  
ENDROOT
BRANCH   3  13
HETATM   13  C   UNL     1      -9.568  16.384  66.974  1.00  0.00    -0.244 A  
HETATM   14  C   UNL     1      -8.515  18.637  68.325  1.00  0.00    -0.324 A  
HETATM   15  H   UNL     1      -7.125  20.070  68.695  1.00  0.00     0.000 HD 
HETATM   16  C   UNL     1      -8.279  16.874  66.702  1.00  0.00    -0.292 A  
HETATM   17  C   UNL     1      -7.769  18.010  67.341  1.00  0.00    -0.216 A  
HETATM   18  O   UNL     1      -7.983  19.735  68.929  1.00  0.00    -0.291 OA 
HETATM   19  C   UNL     1     -10.300  17.049  67.972  1.00  0.00    -0.341 A  
HETATM   20  C   UNL     1      -9.768  18.147  68.668  1.00  0.00    -0.367 A  
ENDBRANCH   3  13
BRANCH   5  21
HETATM   21  C   UNL     1      -8.871  13.367  67.395  1.00  0.00    -0.214 C  
BRANCH  21  22
HETATM   22  C   UNL     1      -9.294  12.278  68.349  1.00  0.00    -0.162 A  
HETATM   23  C   UNL     1      -8.790  10.212  69.497  1.00  0.00    -0.198 A  
HETATM   24  C   UNL     1     -11.043  11.028  69.508  1.00  0.00    -0.322 A  
HETATM   25  C   UNL     1      -8.372  11.315  68.758  1.00  0.00    -0.120 A  
HETATM   26  C   UNL     1     -10.145  10.006  69.780  1.00  0.00    -0.248 A  
HETATM   27  C   UNL     1     -10.592  12.187  68.877  1.00  0.00    -0.179 A  
BRANCH  26  28
HETATM   28  O   UNL     1     -10.671   8.837  70.296  1.00  0.00    -0.217 OA 
BRANCH  28  29
HETATM   29  C   UNL     1      -9.929   7.684  69.886  1.00  0.00    -0.190 C  
BRANCH  29  30
HETATM   30  C   UNL     1     -10.454   6.981  68.626  1.00  0.00    -0.204 C  
BRANCH  30  31
HETATM   31  N   UNL     1      -9.499   7.151  67.489  1.00  0.00    -0.123 NA 
HETATM   32  C   UNL     1      -9.864   8.314  66.661  1.00  0.00    -0.267 C  
HETATM   33  C   UNL     1      -8.999   8.626  65.441  1.00  0.00    -0.181 C  
HETATM   34  C   UNL     1      -7.642   9.191  65.813  1.00  0.00    -0.091 C  
HETATM   35  C   UNL     1      -6.599   8.130  66.126  1.00  0.00    -0.047 C  
HETATM   36  C   UNL     1      -7.098   6.896  66.869  1.00  0.00    -0.075 C  
HETATM   37  C   UNL     1      -8.117   7.166  67.982  1.00  0.00    -0.120 C  
ENDBRANCH  30  31
ENDBRANCH  29  30
ENDBRANCH  28  29
ENDBRANCH  26  28
ENDBRANCH  21  22
ENDBRANCH   5  21
TORSDOF 7
ENDMDL
MODEL       94
REMARK 921   NORMALIZED FREE ENERGY PREDICTED BY IDOCK:   -5.12 KCAL/MOL
REMARK 922        TOTAL FREE ENERGY PREDICTED BY IDOCK:  -10.29 KCAL/MOL
REMARK 923 INTER-LIGAND FREE ENERGY PREDICTED BY IDOCK:   -9.83 KCAL/MOL
REMARK 924 INTRA-LIGAND FREE ENERGY PREDICTED BY IDOCK:   -0.46 KCAL/MOL
REMARK 927      BINDING AFFINITY PREDICTED BY RF-SCORE:    0.00 PKD
ROOT
HETATM    1  C   UNL     1     -10.912  16.355  67.961  1.00  0.00    -0.327 C  
HETATM    2  C   UNL     1     -11.209  14.903  68.171  1.00  0.00    -0.310 A  
HETATM    3  C   UNL     1     -11.794  14.241  69.260  1.00  0.00    -0.330 A  
HETATM    4  C   UNL     1     -11.161  11.830  65.322  1.00  0.00    -0.315 A  
HETATM    5  N   UNL     1     -11.900  12.884  68.878  1.00  0.00    -0.314 NA 
HETATM    6  O   UNL     1      -9.875  12.998  63.748  1.00  0.00    -0.730 OA 
HETATM    7  C   UNL     1     -11.597  12.761  67.524  1.00  0.00    -0.356 A  
HETATM    8  C   UNL     1     -10.460  12.963  64.978  1.00  0.00    -0.318 A  
HETATM    9  C   UNL     1     -10.987  13.949  67.133  1.00  0.00    -0.298 A  
HETATM   10  H   UNL     1      -9.919  12.258  63.153  1.00  0.00     0.000 HD 
HETATM   11  C   UNL     1     -11.768  11.736  66.575  1.00  0.00    -0.149 A  
HETATM   12  C   UNL     1     -10.396  14.044  65.848  1.00  0.00    -0.327 A  
ENDROOT
BRANCH   3  13
HETATM   13  C   UNL     1     -12.237  14.814  70.564  1.00  0.00    -0.385 A  
HETATM   14  C   UNL     1     -13.030  16.057  72.980  1.00  0.00    -0.490 A  
HETATM   15  H   UNL     1     -12.719  17.089  74.700  1.00  0.00     0.000 HD 
HETATM   16  C   UNL     1     -11.300  15.362  71.457  1.00  0.00    -0.461 A  
HETATM   17  C   UNL     1     -11.690  16.010  72.635  1.00  0.00    -0.513 A  
HETATM   18  O   UNL     1     -13.371  16.690  74.137  1.00  0.00    -0.346 OA 
HETATM   19  C   UNL     1     -13.588  14.887  70.942  1.00  0.00    -0.313 A  
HETATM   20  C   UNL     1     -13.983  15.474  72.156  1.00  0.00    -0.620 A  
ENDBRANCH   3  13
BRANCH   5  21
HETATM   21  C   UNL     1     -12.272  11.783  69.807  1.00  0.00    -0.203 C  
BRANCH  21  22
HETATM   22  C   UNL     1     -11.266  10.678  70.017  1.00  0.00    -0.382 A  
HETATM   23  C   UNL     1     -10.349   8.946  71.430  1.00  0.00    -0.377 A  
HETATM   24  C   UNL     1      -9.145   9.602  69.466  1.00  0.00    -0.209 A  
HETATM   25  C   UNL     1     -11.363   9.852  71.136  1.00  0.00    -0.443 A  
HETATM   26  C   UNL     1      -9.183   8.894  70.658  1.00  0.00    -0.213 A  
HETATM   27  C   UNL     1     -10.222  10.415  69.116  1.00  0.00    -0.239 A  
BRANCH  26  28
HETATM   28  O   UNL     1      -8.040   8.202  71.008  1.00  0.00    -0.090 OA 
BRANCH  28  29
HETATM   29  C   UNL     1      -7.132   8.071  69.910  1.00  0.00    -0.057 C  
BRANCH  29  30
HETATM   30  C   UNL     1      -7.572   7.097  68.808  1.00  0.00    -0.108 C  
BRANCH  30  31
HETATM   31  N   UNL     1      -7.537   5.687  69.303  1.00  0.00    -0.085 NA 
HETATM   32  C   UNL     1      -6.550   5.531  70.386  1.00  0.00    -0.043 C  
HETATM   33  C   UNL     1      -6.372   4.143  71.000  1.00  0.00    -0.018 C  
HETATM   34  C   UNL     1      -7.543   3.732  71.872  1.00  0.00    -0.058 C  
HETATM   35  C   UNL     1      -8.695   3.108  71.101  1.00  0.00    -0.123 C  
HETATM   36  C   UNL     1      -8.988   3.705  69.729  1.00  0.00    -0.171 C  
HETATM   37  C   UNL     1      -8.890   5.232  69.643  1.00  0.00    -0.107 C  
ENDBRANCH  30  31
ENDBRANCH  29  30
ENDBRANCH  28  29
ENDBRANCH  26  28
ENDBRANCH  21  22
ENDBRANCH   5  21
TORSDOF 7
ENDMDL
MODEL       95
REMARK 921   NORMALIZED FREE ENERGY PREDICTED BY IDOCK:   -5.10 KCAL/MOL
REMARK 922        TOTAL FREE ENERGY PREDICTED BY IDOCK:  -10.26 KCAL/MOL
REMARK 923 INTER-LIGAND FREE ENERGY PREDICTED BY IDOCK:   -7.99 KCAL/MOL
REMARK 924 INTRA-LIGAND FREE ENERGY PREDICTED BY IDOCK:   -2.27 KCAL/MOL
REMARK 927      BINDING AFFINITY PREDICTED BY RF-SCORE:    0.00 PKD
ROOT
HETATM    1  C   UNL     1     -13.138  10.743  71.896  1.00  0.00    -0.557 C  
HETATM    2  C   UNL     1     -11.970  10.572  70.976  1.00  0.00    -0.466 A  
HETATM    3  C   UNL     1     -11.064   9.510  70.841  1.00  0.00    -0.336 A  
HETATM    4  C   UNL     1     -10.997  12.860  67.602  1.00  0.00    -0.274 A  
HETATM    5  N   UNL     1     -10.218   9.854  69.762  1.00  0.00    -0.230 NA 
HETATM    6  O   UNL     1     -12.335  14.697  68.178  1.00  0.00    -0.598 OA 
HETATM    7  C   UNL     1     -10.728  10.979  69.118  1.00  0.00    -0.234 A  
HETATM    8  C   UNL     1     -11.853  13.462  68.495  1.00  0.00    -0.366 A  
HETATM    9  C   UNL     1     -11.682  11.537  69.964  1.00  0.00    -0.414 A  
HETATM   10  H   UNL     1     -12.071  15.147  67.384  1.00  0.00     0.000 HD 
HETATM   11  C   UNL     1     -10.463  11.602  67.884  1.00  0.00    -0.217 A  
HETATM   12  C   UNL     1     -12.239  12.804  69.656  1.00  0.00    -0.188 A  
ENDROOT
BRANCH   3  13
HETATM   13  C   UNL     1     -10.981   8.255  71.644  1.00  0.00    -0.327 A  
HETATM   14  C   UNL     1     -10.906   5.957  73.294  1.00  0.00    -0.261 A  
HETATM   15  H   UNL     1     -10.348   4.890  74.928  1.00  0.00     0.000 HD 
HETATM   16  C   UNL     1     -10.182   8.199  72.799  1.00  0.00    -0.372 A  
HETATM   17  C   UNL     1     -10.171   7.078  73.637  1.00  0.00    -0.396 A  
HETATM   18  O   UNL     1     -10.865   4.883  74.131  1.00  0.00    -0.295 OA 
HETATM   19  C   UNL     1     -11.721   7.102  71.330  1.00  0.00    -0.342 A  
HETATM   20  C   UNL     1     -11.661   5.948  72.128  1.00  0.00    -0.314 A  
ENDBRANCH   3  13
BRANCH   5  21
HETATM   21  C   UNL     1      -8.980   9.113  69.403  1.00  0.00    -0.147 C  
BRANCH  21  22
HETATM   22  C   UNL     1      -9.126   7.899  68.519  1.00  0.00    -0.132 A  
HETATM   23  C   UNL     1      -9.579   6.960  66.339  1.00  0.00    -0.152 A  
HETATM   24  C   UNL     1      -9.530   5.507  68.244  1.00  0.00    -0.137 A  
HETATM   25  C   UNL     1      -9.273   8.055  67.142  1.00  0.00    -0.172 A  
HETATM   26  C   UNL     1      -9.819   5.701  66.900  1.00  0.00    -0.159 A  
HETATM   27  C   UNL     1      -9.103   6.585  69.016  1.00  0.00    -0.132 A  
BRANCH  26  28
HETATM   28  O   UNL     1     -10.352   4.625  66.218  1.00  0.00    -0.268 OA 
BRANCH  28  29
HETATM   29  C   UNL     1      -9.352   3.879  65.518  1.00  0.00    -0.160 C  
BRANCH  29  30
HETATM   30  C   UNL     1      -9.319   4.091  63.998  1.00  0.00    -0.155 C  
BRANCH  30  31
HETATM   31  N   UNL     1      -8.069   4.801  63.590  1.00  0.00    -0.095 NA 
HETATM   32  C   UNL     1      -8.340   6.217  63.287  1.00  0.00     0.102 C  
HETATM   33  C   UNL     1      -7.171   7.092  62.836  1.00  0.00    -0.068 C  
HETATM   34  C   UNL     1      -6.210   7.414  63.964  1.00  0.00    -0.048 C  
HETATM   35  C   UNL     1      -5.157   6.343  64.199  1.00  0.00    -0.021 C  
HETATM   36  C   UNL     1      -5.617   4.899  64.030  1.00  0.00    -0.017 C  
HETATM   37  C   UNL     1      -7.011   4.584  64.584  1.00  0.00    -0.050 C  
ENDBRANCH  30  31
ENDBRANCH  29  30
ENDBRANCH  28  29
ENDBRANCH  26  28
ENDBRANCH  21  22
ENDBRANCH   5  21
TORSDOF 7
ENDMDL
MODEL       96
REMARK 921   NORMALIZED FREE ENERGY PREDICTED BY IDOCK:   -5.10 KCAL/MOL
REMARK 922        TOTAL FREE ENERGY PREDICTED BY IDOCK:  -10.25 KCAL/MOL
REMARK 923 INTER-LIGAND FREE ENERGY PREDICTED BY IDOCK:   -7.63 KCAL/MOL
REMARK 924 INTRA-LIGAND FREE ENERGY PREDICTED BY IDOCK:   -2.63 KCAL/MOL
REMARK 927      BINDING AFFINITY PREDICTED BY RF-SCORE:    0.00 PKD
ROOT
HETATM    1  C   UNL     1     -10.502  16.914  65.834  1.00  0.00    -0.294 C  
HETATM    2  C   UNL     1      -9.294  16.546  66.638  1.00  0.00    -0.279 A  
HETATM    3  C   UNL     1      -9.056  15.443  67.471  1.00  0.00    -0.194 A  
HETATM    4  C   UNL     1      -5.447  18.192  66.403  1.00  0.00    -0.194 A  
HETATM    5  N   UNL     1      -7.717  15.568  67.908  1.00  0.00    -0.124 NA 
HETATM    6  O   UNL     1      -6.104  20.149  65.291  1.00  0.00    -0.196 OA 
HETATM    7  C   UNL     1      -7.092  16.586  67.192  1.00  0.00    -0.193 A  
HETATM    8  C   UNL     1      -6.454  18.968  65.876  1.00  0.00    -0.224 A  
HETATM    9  C   UNL     1      -8.095  17.314  66.559  1.00  0.00    -0.313 A  
HETATM   10  H   UNL     1      -5.202  20.448  65.271  1.00  0.00     0.000 HD 
HETATM   11  C   UNL     1      -5.751  16.981  67.025  1.00  0.00    -0.212 A  
HETATM   12  C   UNL     1      -7.772  18.531  65.906  1.00  0.00    -0.130 A  
ENDROOT
BRANCH   3  13
HETATM   13  C   UNL     1      -9.991  14.340  67.839  1.00  0.00    -0.230 A  
HETATM   14  C   UNL     1     -11.628  12.149  68.566  1.00  0.00    -0.315 A  
HETATM   15  H   UNL     1     -12.392  10.281  68.353  1.00  0.00     0.000 HD 
HETATM   16  C   UNL     1     -10.089  13.191  67.035  1.00  0.00    -0.241 A  
HETATM   17  C   UNL     1     -10.869  12.091  67.410  1.00  0.00    -0.285 A  
HETATM   18  O   UNL     1     -12.379  11.061  68.895  1.00  0.00    -0.516 OA 
HETATM   19  C   UNL     1     -10.768  14.362  69.009  1.00  0.00    -0.261 A  
HETATM   20  C   UNL     1     -11.607  13.290  69.357  1.00  0.00    -0.364 A  
ENDBRANCH   3  13
BRANCH   5  21
HETATM   21  C   UNL     1      -7.107  14.730  68.975  1.00  0.00    -0.127 C  
BRANCH  21  22
HETATM   22  C   UNL     1      -6.888  13.268  68.673  1.00  0.00    -0.099 A  
HETATM   23  C   UNL     1      -6.476  11.521  67.054  1.00  0.00    -0.134 A  
HETATM   24  C   UNL     1      -7.111  10.915  69.284  1.00  0.00    -0.124 A  
HETATM   25  C   UNL     1      -6.514  12.872  67.389  1.00  0.00    -0.126 A  
HETATM   26  C   UNL     1      -6.882  10.541  67.967  1.00  0.00    -0.073 A  
HETATM   27  C   UNL     1      -7.024  12.260  69.640  1.00  0.00     0.226 A  
BRANCH  26  28
HETATM   28  O   UNL     1      -7.100   9.215  67.650  1.00  0.00    -0.081 OA 
BRANCH  28  29
HETATM   29  C   UNL     1      -7.991   8.579  68.571  1.00  0.00    -0.117 C  
BRANCH  29  30
HETATM   30  C   UNL     1      -9.431   8.398  68.071  1.00  0.00    -0.143 C  
BRANCH  30  31
HETATM   31  N   UNL     1     -10.379   8.281  69.220  1.00  0.00    -0.216 NA 
HETATM   32  C   UNL     1     -10.848   6.894  69.381  1.00  0.00    -0.249 C  
HETATM   33  C   UNL     1     -11.840   6.597  70.505  1.00  0.00    -0.430 C  
HETATM   34  C   UNL     1     -11.202   6.646  71.879  1.00  0.00    -0.302 C  
HETATM   35  C   UNL     1     -11.134   8.043  72.476  1.00  0.00    -0.440 C  
HETATM   36  C   UNL     1     -10.841   9.177  71.501  1.00  0.00    -0.436 C  
HETATM   37  C   UNL     1      -9.789   8.867  70.430  1.00  0.00    -0.189 C  
ENDBRANCH  30  31
ENDBRANCH  29  30
ENDBRANCH  28  29
ENDBRANCH  26  28
ENDBRANCH  21  22
ENDBRANCH   5  21
TORSDOF 7
ENDMDL
MODEL       97
REMARK 921   NORMALIZED FREE ENERGY PREDICTED BY IDOCK:   -5.10 KCAL/MOL
REMARK 922        TOTAL FREE ENERGY PREDICTED BY IDOCK:  -10.25 KCAL/MOL
REMARK 923 INTER-LIGAND FREE ENERGY PREDICTED BY IDOCK:   -8.49 KCAL/MOL
REMARK 924 INTRA-LIGAND FREE ENERGY PREDICTED BY IDOCK:   -1.77 KCAL/MOL
REMARK 927      BINDING AFFINITY PREDICTED BY RF-SCORE:    0.00 PKD
ROOT
HETATM    1  C   UNL     1      -9.218   7.078  70.023  1.00  0.00    -0.148 C  
HETATM    2  C   UNL     1      -9.864   8.366  69.619  1.00  0.00    -0.184 A  
HETATM    3  C   UNL     1      -9.654   9.177  68.494  1.00  0.00    -0.148 A  
HETATM    4  C   UNL     1     -13.319  10.122  71.214  1.00  0.00    -0.394 A  
HETATM    5  N   UNL     1     -10.597  10.226  68.589  1.00  0.00    -0.196 NA 
HETATM    6  O   UNL     1     -13.306   8.884  73.205  1.00  0.00    -0.926 OA 
HETATM    7  C   UNL     1     -11.497   9.944  69.614  1.00  0.00    -0.108 A  
HETATM    8  C   UNL     1     -12.710   9.185  72.016  1.00  0.00    -0.398 A  
HETATM    9  C   UNL     1     -10.945   8.915  70.371  1.00  0.00    -0.275 A  
HETATM   10  H   UNL     1     -14.098   9.323  73.491  1.00  0.00     0.000 HD 
HETATM   11  C   UNL     1     -12.743  10.477  69.993  1.00  0.00    -0.125 A  
HETATM   12  C   UNL     1     -11.551   8.543  71.598  1.00  0.00    -0.364 A  
ENDROOT
BRANCH   3  13
HETATM   13  C   UNL     1      -8.658   9.000  67.397  1.00  0.00    -0.115 A  
HETATM   14  C   UNL     1      -6.846   8.795  65.233  1.00  0.00    -0.072 A  
HETATM   15  H   UNL     1      -6.327   8.438  63.303  1.00  0.00     0.000 HD 
HETATM   16  C   UNL     1      -9.066   8.542  66.132  1.00  0.00    -0.245 A  
HETATM   17  C   UNL     1      -8.180   8.474  65.049  1.00  0.00    -0.160 A  
HETATM   18  O   UNL     1      -6.014   8.710  64.158  1.00  0.00    -0.065 OA 
HETATM   19  C   UNL     1      -7.299   9.324  67.545  1.00  0.00    -0.087 A  
HETATM   20  C   UNL     1      -6.390   9.193  66.482  1.00  0.00    -0.066 A  
ENDBRANCH   3  13
BRANCH   5  21
HETATM   21  C   UNL     1     -10.594  11.432  67.719  1.00  0.00    -0.195 C  
BRANCH  21  22
HETATM   22  C   UNL     1      -9.843  12.644  68.212  1.00  0.00    -0.227 A  
HETATM   23  C   UNL     1      -9.869  14.951  68.930  1.00  0.00    -0.230 A  
HETATM   24  C   UNL     1      -7.767  13.905  68.456  1.00  0.00    -0.139 A  
HETATM   25  C   UNL     1     -10.546  13.771  68.637  1.00  0.00    -0.263 A  
HETATM   26  C   UNL     1      -8.488  15.057  68.733  1.00  0.00    -0.180 A  
HETATM   27  C   UNL     1      -8.442  12.697  68.286  1.00  0.00    -0.163 A  
BRANCH  26  28
HETATM   28  O   UNL     1      -7.777  16.241  68.771  1.00  0.00    -0.176 OA 
BRANCH  28  29
HETATM   29  C   UNL     1      -6.984  16.433  67.597  1.00  0.00    -0.134 C  
BRANCH  29  30
HETATM   30  C   UNL     1      -7.771  16.525  66.282  1.00  0.00    -0.180 C  
BRANCH  30  31
HETATM   31  N   UNL     1      -8.419  17.865  66.146  1.00  0.00    -0.489 NA 
HETATM   32  C   UNL     1      -9.852  17.797  66.482  1.00  0.00    -0.329 C  
HETATM   33  C   UNL     1     -10.674  19.080  66.381  1.00  0.00    -0.410 C  
HETATM   34  C   UNL     1     -10.360  20.068  67.487  1.00  0.00    -0.519 C  
HETATM   35  C   UNL     1      -9.163  20.959  67.195  1.00  0.00    -0.261 C  
HETATM   36  C   UNL     1      -8.001  20.303  66.457  1.00  0.00    -0.276 C  
HETATM   37  C   UNL     1      -7.665  18.874  66.899  1.00  0.00    -0.239 C  
ENDBRANCH  30  31
ENDBRANCH  29  30
ENDBRANCH  28  29
ENDBRANCH  26  28
ENDBRANCH  21  22
ENDBRANCH   5  21
TORSDOF 7
ENDMDL
MODEL       98
REMARK 921   NORMALIZED FREE ENERGY PREDICTED BY IDOCK:   -5.08 KCAL/MOL
REMARK 922        TOTAL FREE ENERGY PREDICTED BY IDOCK:  -10.22 KCAL/MOL
REMARK 923 INTER-LIGAND FREE ENERGY PREDICTED BY IDOCK:   -7.78 KCAL/MOL
REMARK 924 INTRA-LIGAND FREE ENERGY PREDICTED BY IDOCK:   -2.44 KCAL/MOL
REMARK 927      BINDING AFFINITY PREDICTED BY RF-SCORE:    0.00 PKD
ROOT
HETATM    1  C   UNL     1     -10.771   7.489  66.972  1.00  0.00    -0.367 C  
HETATM    2  C   UNL     1      -9.743   8.472  67.437  1.00  0.00    -0.222 A  
HETATM    3  C   UNL     1      -9.509   9.799  67.047  1.00  0.00    -0.157 A  
HETATM    4  C   UNL     1      -7.251   8.194  70.795  1.00  0.00    -0.050 A  
HETATM    5  N   UNL     1      -8.462  10.268  67.873  1.00  0.00    -0.117 NA 
HETATM    6  O   UNL     1      -7.512   5.882  71.082  1.00  0.00    -0.087 OA 
HETATM    7  C   UNL     1      -8.217   9.337  68.880  1.00  0.00    -0.111 A  
HETATM    8  C   UNL     1      -7.790   7.005  70.361  1.00  0.00    -0.108 A  
HETATM    9  C   UNL     1      -8.855   8.157  68.508  1.00  0.00    -0.134 A  
HETATM   10  H   UNL     1      -6.942   5.905  71.842  1.00  0.00     0.000 HD 
HETATM   11  C   UNL     1      -7.493   9.371  70.087  1.00  0.00    -0.120 A  
HETATM   12  C   UNL     1      -8.624   6.971  69.250  1.00  0.00    -0.136 A  
ENDROOT
BRANCH   3  13
HETATM   13  C   UNL     1     -10.204  10.591  65.991  1.00  0.00    -0.310 A  
HETATM   14  C   UNL     1     -11.459  12.236  64.060  1.00  0.00    -0.409 A  
HETATM   15  H   UNL     1     -12.769  13.655  63.432  1.00  0.00     0.000 HD 
HETATM   16  C   UNL     1     -11.280  11.432  66.323  1.00  0.00    -0.228 A  
HETATM   17  C   UNL     1     -11.880  12.274  65.379  1.00  0.00    -0.418 A  
HETATM   18  O   UNL     1     -12.071  13.065  63.170  1.00  0.00    -0.548 OA 
HETATM   19  C   UNL     1      -9.799  10.583  64.646  1.00  0.00    -0.404 A  
HETATM   20  C   UNL     1     -10.441  11.374  63.678  1.00  0.00    -0.472 A  
ENDBRANCH   3  13
BRANCH   5  21
HETATM   21  C   UNL     1      -7.750  11.557  67.666  1.00  0.00    -0.123 C  
BRANCH  21  22
HETATM   22  C   UNL     1      -8.544  12.828  67.844  1.00  0.00    -0.181 A  
HETATM   23  C   UNL     1     -10.101  14.138  69.147  1.00  0.00    -0.023 A  
HETATM   24  C   UNL     1      -9.574  14.839  66.918  1.00  0.00    -0.251 A  
HETATM   25  C   UNL     1      -9.231  13.057  69.035  1.00  0.00     0.467 A  
HETATM   26  C   UNL     1     -10.362  14.969  68.053  1.00  0.00    -0.236 A  
HETATM   27  C   UNL     1      -8.615  13.828  66.861  1.00  0.00    -0.128 A  
BRANCH  26  28
HETATM   28  O   UNL     1     -11.373  15.909  68.002  1.00  0.00    -0.342 OA 
BRANCH  28  29
HETATM   29  C   UNL     1     -10.915  17.169  67.504  1.00  0.00    -0.108 C  
BRANCH  29  30
HETATM   30  C   UNL     1     -10.163  18.041  68.520  1.00  0.00    -0.385 C  
BRANCH  30  31
HETATM   31  N   UNL     1      -8.795  18.376  68.019  1.00  0.00    -0.280 NA 
HETATM   32  C   UNL     1      -8.811  18.635  66.569  1.00  0.00    -0.304 C  
HETATM   33  C   UNL     1      -7.488  18.980  65.886  1.00  0.00    -0.253 C  
HETATM   34  C   UNL     1      -6.995  20.372  66.230  1.00  0.00    -0.291 C  
HETATM   35  C   UNL     1      -6.202  20.441  67.525  1.00  0.00    -0.268 C  
HETATM   36  C   UNL     1      -6.687  19.543  68.659  1.00  0.00    -0.332 C  
HETATM   37  C   UNL     1      -8.208  19.455  68.822  1.00  0.00    -0.347 C  
ENDBRANCH  30  31
ENDBRANCH  29  30
ENDBRANCH  28  29
ENDBRANCH  26  28
ENDBRANCH  21  22
ENDBRANCH   5  21
TORSDOF 7
ENDMDL
MODEL       99
REMARK 921   NORMALIZED FREE ENERGY PREDICTED BY IDOCK:   -5.08 KCAL/MOL
REMARK 922        TOTAL FREE ENERGY PREDICTED BY IDOCK:  -10.22 KCAL/MOL
REMARK 923 INTER-LIGAND FREE ENERGY PREDICTED BY IDOCK:   -7.91 KCAL/MOL
REMARK 924 INTRA-LIGAND FREE ENERGY PREDICTED BY IDOCK:   -2.31 KCAL/MOL
REMARK 927      BINDING AFFINITY PREDICTED BY RF-SCORE:    0.00 PKD
ROOT
HETATM    1  C   UNL     1      -6.803   8.742  71.240  1.00  0.00    -0.082 C  
HETATM    2  C   UNL     1      -7.834   8.519  70.179  1.00  0.00    -0.099 A  
HETATM    3  C   UNL     1      -8.067   9.203  68.976  1.00  0.00    -0.102 A  
HETATM    4  C   UNL     1     -10.340   5.196  69.683  1.00  0.00    -0.316 A  
HETATM    5  N   UNL     1      -9.117   8.510  68.332  1.00  0.00    -0.139 NA 
HETATM    6  O   UNL     1     -10.079   4.386  71.868  1.00  0.00    -0.179 OA 
HETATM    7  C   UNL     1      -9.366   7.318  69.008  1.00  0.00    -0.148 A  
HETATM    8  C   UNL     1      -9.798   5.344  70.940  1.00  0.00    -0.188 A  
HETATM    9  C   UNL     1      -8.726   7.407  70.241  1.00  0.00    -0.146 A  
HETATM   10  H   UNL     1     -10.653   3.654  71.672  1.00  0.00     0.000 HD 
HETATM   11  C   UNL     1     -10.095   6.154  68.700  1.00  0.00    -0.196 A  
HETATM   12  C   UNL     1      -8.960   6.414  71.226  1.00  0.00    -0.142 A  
ENDROOT
BRANCH   3  13
HETATM   13  C   UNL     1      -7.367  10.409  68.446  1.00  0.00    -0.085 A  
HETATM   14  C   UNL     1      -5.991  12.734  67.602  1.00  0.00    -0.150 A  
HETATM   15  H   UNL     1      -5.653  14.733  67.511  1.00  0.00     0.000 HD 
HETATM   16  C   UNL     1      -7.825  11.698  68.770  1.00  0.00    -0.096 A  
HETATM   17  C   UNL     1      -7.127  12.849  68.385  1.00  0.00    -0.099 A  
HETATM   18  O   UNL     1      -5.343  13.876  67.242  1.00  0.00    -0.309 OA 
HETATM   19  C   UNL     1      -6.207  10.329  67.657  1.00  0.00    -0.057 A  
HETATM   20  C   UNL     1      -5.540  11.481  67.209  1.00  0.00    -0.085 A  
ENDBRANCH   3  13
BRANCH   5  21
HETATM   21  C   UNL     1      -9.829   9.010  67.126  1.00  0.00    -0.203 C  
BRANCH  21  22
HETATM   22  C   UNL     1     -10.666  10.257  67.277  1.00  0.00    -0.323 A  
HETATM   23  C   UNL     1     -11.405  12.381  66.394  1.00  0.00    -0.392 A  
HETATM   24  C   UNL     1     -11.884  11.841  68.679  1.00  0.00    -0.369 A  
HETATM   25  C   UNL     1     -10.782  11.150  66.213  1.00  0.00    -0.298 A  
HETATM   26  C   UNL     1     -11.861  12.779  67.656  1.00  0.00    -0.339 A  
HETATM   27  C   UNL     1     -11.369  10.566  68.453  1.00  0.00    -0.328 A  
BRANCH  26  28
HETATM   28  O   UNL     1     -12.274  14.058  67.975  1.00  0.00    -0.321 OA 
BRANCH  28  29
HETATM   29  C   UNL     1     -11.173  14.956  68.136  1.00  0.00    -0.299 C  
BRANCH  29  30
HETATM   30  C   UNL     1     -11.453  16.187  69.010  1.00  0.00    -0.323 C  
BRANCH  30  31
HETATM   31  N   UNL     1     -10.215  17.007  69.181  1.00  0.00    -0.301 NA 
HETATM   32  C   UNL     1      -9.011  16.223  68.853  1.00  0.00    -0.248 C  
HETATM   33  C   UNL     1      -7.651  16.906  68.989  1.00  0.00    -0.210 C  
HETATM   34  C   UNL     1      -7.399  17.934  67.904  1.00  0.00    -0.222 C  
HETATM   35  C   UNL     1      -7.979  19.305  68.209  1.00  0.00    -0.361 C  
HETATM   36  C   UNL     1      -9.326  19.322  68.923  1.00  0.00    -0.408 C  
HETATM   37  C   UNL     1     -10.336  18.272  68.446  1.00  0.00    -0.343 C  
ENDBRANCH  30  31
ENDBRANCH  29  30
ENDBRANCH  28  29
ENDBRANCH  26  28
ENDBRANCH  21  22
ENDBRANCH   5  21
TORSDOF 7
ENDMDL
MODEL      100
REMARK 921   NORMALIZED FREE ENERGY PREDICTED BY IDOCK:   -5.07 KCAL/MOL
REMARK 922        TOTAL FREE ENERGY PREDICTED BY IDOCK:  -10.21 KCAL/MOL
REMARK 923 INTER-LIGAND FREE ENERGY PREDICTED BY IDOCK:   -8.01 KCAL/MOL
REMARK 924 INTRA-LIGAND FREE ENERGY PREDICTED BY IDOCK:   -2.20 KCAL/MOL
REMARK 927      BINDING AFFINITY PREDICTED BY RF-SCORE:    0.00 PKD
ROOT
HETATM    1  C   UNL     1      -6.127  10.045  68.302  1.00  0.00    -0.045 C  
HETATM    2  C   UNL     1      -7.485   9.775  68.871  1.00  0.00    -0.075 A  
HETATM    3  C   UNL     1      -8.755   9.883  68.288  1.00  0.00    -0.119 A  
HETATM    4  C   UNL     1      -8.430   7.782  72.436  1.00  0.00    -0.168 A  
HETATM    5  N   UNL     1      -9.671   9.423  69.262  1.00  0.00    -0.166 NA 
HETATM    6  O   UNL     1      -6.300   7.999  73.390  1.00  0.00    -0.077 OA 
HETATM    7  C   UNL     1      -8.970   8.847  70.318  1.00  0.00    -0.183 A  
HETATM    8  C   UNL     1      -7.142   8.261  72.351  1.00  0.00    -0.098 A  
HETATM    9  C   UNL     1      -7.639   9.230  70.181  1.00  0.00    -0.111 A  
HETATM   10  H   UNL     1      -6.591   7.530  74.163  1.00  0.00     0.000 HD 
HETATM   11  C   UNL     1      -9.338   8.033  71.406  1.00  0.00    -0.182 A  
HETATM   12  C   UNL     1      -6.717   8.947  71.221  1.00  0.00    -0.083 A  
ENDROOT
BRANCH   3  13
HETATM   13  C   UNL     1      -9.110  10.368  66.922  1.00  0.00    -0.159 A  
HETATM   14  C   UNL     1      -9.937  11.218  64.353  1.00  0.00    -0.288 A  
HETATM   15  H   UNL     1     -10.536  10.939  62.433  1.00  0.00     0.000 HD 
HETATM   16  C   UNL     1      -9.316   9.457  65.873  1.00  0.00    -0.290 A  
HETATM   17  C   UNL     1      -9.760   9.869  64.611  1.00  0.00    -0.265 A  
HETATM   18  O   UNL     1     -10.364  11.581  63.112  1.00  0.00    -0.361 OA 
HETATM   19  C   UNL     1      -9.306  11.728  66.627  1.00  0.00    -0.205 A  
HETATM   20  C   UNL     1      -9.685  12.157  65.344  1.00  0.00    -0.178 A  
ENDBRANCH   3  13
BRANCH   5  21
HETATM   21  C   UNL     1     -11.148   9.558  69.148  1.00  0.00    -0.053 C  
BRANCH  21  22
HETATM   22  C   UNL     1     -11.763  10.867  69.579  1.00  0.00    -0.400 A  
HETATM   23  C   UNL     1     -12.269  13.181  69.101  1.00  0.00    -0.137 A  
HETATM   24  C   UNL     1     -12.558  12.365  71.335  1.00  0.00    -0.299 A  
HETATM   25  C   UNL     1     -11.864  11.921  68.672  1.00  0.00    -0.365 A  
HETATM   26  C   UNL     1     -12.511  13.437  70.456  1.00  0.00    -0.279 A  
HETATM   27  C   UNL     1     -12.271  11.083  70.870  1.00  0.00    -0.471 A  
BRANCH  26  28
HETATM   28  O   UNL     1     -12.686  14.695  70.998  1.00  0.00    -0.301 OA 
BRANCH  28  29
HETATM   29  C   UNL     1     -12.093  15.718  70.193  1.00  0.00    -0.333 C  
BRANCH  29  30
HETATM   30  C   UNL     1     -10.559  15.777  70.234  1.00  0.00    -0.284 C  
BRANCH  30  31
HETATM   31  N   UNL     1     -10.019  16.375  68.975  1.00  0.00    -0.254 NA 
HETATM   32  C   UNL     1      -9.723  15.332  67.978  1.00  0.00    -0.211 C  
HETATM   33  C   UNL     1      -9.147  15.768  66.632  1.00  0.00    -0.298 C  
HETATM   34  C   UNL     1     -10.170  16.459  65.752  1.00  0.00    -0.370 C  
HETATM   35  C   UNL     1     -10.318  17.946  66.031  1.00  0.00    -0.318 C  
HETATM   36  C   UNL     1     -10.216  18.370  67.492  1.00  0.00    -0.393 C  
HETATM   37  C   UNL     1     -10.908  17.440  68.495  1.00  0.00    -0.190 C  
ENDBRANCH  30  31
ENDBRANCH  29  30
ENDBRANCH  28  29
ENDBRANCH  26  28
ENDBRANCH  21  22
ENDBRANCH   5  21
TORSDOF 7
ENDMDL
MODEL      101
REMARK 921   NORMALIZED FREE ENERGY PREDICTED BY IDOCK:   -5.06 KCAL/MOL
REMARK 922        TOTAL FREE ENERGY PREDICTED BY IDOCK:  -10.20 KCAL/MOL
REMARK 923 INTER-LIGAND FREE ENERGY PREDICTED BY IDOCK:   -7.68 KCAL/MOL
REMARK 924 INTRA-LIGAND FREE ENERGY PREDICTED BY IDOCK:   -2.52 KCAL/MOL
REMARK 927      BINDING AFFINITY PREDICTED BY RF-SCORE:    0.00 PKD
ROOT
HETATM    1  C   UNL     1     -10.073  10.725  63.357  1.00  0.00    -0.345 C  
HETATM    2  C   UNL     1     -10.053  10.894  64.844  1.00  0.00    -0.374 A  
HETATM    3  C   UNL     1      -9.229  10.310  65.817  1.00  0.00    -0.175 A  
HETATM    4  C   UNL     1     -11.994  13.825  67.126  1.00  0.00    -0.442 A  
HETATM    5  N   UNL     1      -9.604  10.895  67.048  1.00  0.00    -0.172 NA 
HETATM    6  O   UNL     1     -13.524  14.437  65.458  1.00  0.00    -0.609 OA 
HETATM    7  C   UNL     1     -10.470  11.959  66.807  1.00  0.00    -0.221 A  
HETATM    8  C   UNL     1     -12.498  13.634  65.860  1.00  0.00    -0.452 A  
HETATM    9  C   UNL     1     -10.902  11.843  65.489  1.00  0.00    -0.343 A  
HETATM   10  H   UNL     1     -13.904  15.088  66.036  1.00  0.00     0.000 HD 
HETATM   11  C   UNL     1     -10.953  13.022  67.592  1.00  0.00    -0.277 A  
HETATM   12  C   UNL     1     -11.942  12.682  65.015  1.00  0.00    -0.467 A  
ENDROOT
BRANCH   3  13
HETATM   13  C   UNL     1      -8.159   9.286  65.631  1.00  0.00    -0.112 A  
HETATM   14  C   UNL     1      -6.193   7.316  65.122  1.00  0.00    -0.038 A  
HETATM   15  H   UNL     1      -5.540   5.431  64.741  1.00  0.00     0.000 HD 
HETATM   16  C   UNL     1      -8.487   7.923  65.528  1.00  0.00    -0.153 A  
HETATM   17  C   UNL     1      -7.523   6.950  65.240  1.00  0.00    -0.089 A  
HETATM   18  O   UNL     1      -5.283   6.340  64.848  1.00  0.00    -0.016 OA 
HETATM   19  C   UNL     1      -6.801   9.622  65.498  1.00  0.00    -0.089 A  
HETATM   20  C   UNL     1      -5.818   8.643  65.278  1.00  0.00    -0.048 A  
ENDBRANCH   3  13
BRANCH   5  21
HETATM   21  C   UNL     1      -9.134  10.418  68.375  1.00  0.00    -0.147 C  
BRANCH  21  22
HETATM   22  C   UNL     1     -10.074   9.551  69.177  1.00  0.00    -0.200 A  
HETATM   23  C   UNL     1     -11.534   9.285  71.084  1.00  0.00    -0.403 A  
HETATM   24  C   UNL     1     -10.910   7.349  69.818  1.00  0.00    -0.246 A  
HETATM   25  C   UNL     1     -10.799  10.104  70.232  1.00  0.00    -0.370 A  
HETATM   26  C   UNL     1     -11.504   7.893  70.948  1.00  0.00    -0.281 A  
HETATM   27  C   UNL     1     -10.280   8.190  68.902  1.00  0.00    -0.221 A  
BRANCH  26  28
HETATM   28  O   UNL     1     -12.005   7.001  71.877  1.00  0.00    -0.294 OA 
BRANCH  28  29
HETATM   29  C   UNL     1     -11.175   6.907  73.038  1.00  0.00    -0.184 C  
BRANCH  29  30
HETATM   30  C   UNL     1     -10.571   5.521  73.301  1.00  0.00    -0.250 C  
BRANCH  30  31
HETATM   31  N   UNL     1      -9.183   5.436  72.753  1.00  0.00    -0.136 NA 
HETATM   32  C   UNL     1      -9.169   4.740  71.454  1.00  0.00    -0.142 C  
HETATM   33  C   UNL     1      -7.823   4.551  70.756  1.00  0.00    -0.064 C  
HETATM   34  C   UNL     1      -7.272   5.842  70.183  1.00  0.00    -0.072 C  
HETATM   35  C   UNL     1      -6.494   6.678  71.186  1.00  0.00    -0.049 C  
HETATM   36  C   UNL     1      -7.033   6.691  72.612  1.00  0.00    -0.072 C  
HETATM   37  C   UNL     1      -8.559   6.765  72.737  1.00  0.00    -0.121 C  
ENDBRANCH  30  31
ENDBRANCH  29  30
ENDBRANCH  28  29
ENDBRANCH  26  28
ENDBRANCH  21  22
ENDBRANCH   5  21
TORSDOF 7
ENDMDL
MODEL      102
REMARK 921   NORMALIZED FREE ENERGY PREDICTED BY IDOCK:   -5.01 KCAL/MOL
REMARK 922        TOTAL FREE ENERGY PREDICTED BY IDOCK:  -10.12 KCAL/MOL
REMARK 923 INTER-LIGAND FREE ENERGY PREDICTED BY IDOCK:   -6.91 KCAL/MOL
REMARK 924 INTRA-LIGAND FREE ENERGY PREDICTED BY IDOCK:   -3.21 KCAL/MOL
REMARK 927      BINDING AFFINITY PREDICTED BY RF-SCORE:    0.00 PKD
ROOT
HETATM    1  C   UNL     1      -7.527   8.447  64.080  1.00  0.00    -0.111 C  
HETATM    2  C   UNL     1      -7.509   8.356  65.573  1.00  0.00    -0.085 A  
HETATM    3  C   UNL     1      -7.788   7.276  66.424  1.00  0.00    -0.106 A  
HETATM    4  C   UNL     1      -5.889  11.097  68.300  1.00  0.00    -0.045 A  
HETATM    5  N   UNL     1      -7.535   7.738  67.736  1.00  0.00    -0.102 NA 
HETATM    6  O   UNL     1      -5.813  12.894  66.797  1.00  0.00    -0.388 OA 
HETATM    7  C   UNL     1      -6.911   8.982  67.673  1.00  0.00    -0.070 A  
HETATM    8  C   UNL     1      -6.150  11.597  67.045  1.00  0.00    -0.138 A  
HETATM    9  C   UNL     1      -7.067   9.452  66.373  1.00  0.00    -0.088 A  
HETATM   10  H   UNL     1      -5.438  13.450  67.471  1.00  0.00     0.000 HD 
HETATM   11  C   UNL     1      -6.227   9.779  68.610  1.00  0.00    -0.042 A  
HETATM   12  C   UNL     1      -6.697  10.784  66.060  1.00  0.00    -0.109 A  
ENDROOT
BRANCH   3  13
HETATM   13  C   UNL     1      -8.250   5.905  66.059  1.00  0.00    -0.123 A  
HETATM   14  C   UNL     1      -9.061   3.248  65.517  1.00  0.00    -0.150 A  
HETATM   15  H   UNL     1      -8.754   1.277  65.140  1.00  0.00     0.000 HD 
HETATM   16  C   UNL     1      -7.319   4.888  65.784  1.00  0.00    -0.077 A  
HETATM   17  C   UNL     1      -7.714   3.566  65.551  1.00  0.00    -0.081 A  
HETATM   18  O   UNL     1      -9.407   1.952  65.281  1.00  0.00    -0.106 OA 
HETATM   19  C   UNL     1      -9.608   5.545  66.024  1.00  0.00    -0.128 A  
HETATM   20  C   UNL     1     -10.016   4.235  65.723  1.00  0.00    -0.233 A  
ENDBRANCH   3  13
BRANCH   5  21
HETATM   21  C   UNL     1      -7.899   6.989  68.968  1.00  0.00    -0.115 C  
BRANCH  21  22
HETATM   22  C   UNL     1      -8.989   7.566  69.837  1.00  0.00    -0.141 A  
HETATM   23  C   UNL     1     -11.344   7.903  70.264  1.00  0.00    -0.158 A  
HETATM   24  C   UNL     1      -9.742   9.162  71.524  1.00  0.00    -0.313 A  
HETATM   25  C   UNL     1     -10.323   7.246  69.583  1.00  0.00    -0.227 A  
HETATM   26  C   UNL     1     -11.062   8.942  71.157  1.00  0.00    -0.285 A  
HETATM   27  C   UNL     1      -8.730   8.412  70.927  1.00  0.00    -0.178 A  
BRANCH  26  28
HETATM   28  O   UNL     1     -12.007   9.796  71.693  1.00  0.00    -0.383 OA 
BRANCH  28  29
HETATM   29  C   UNL     1     -12.732  10.502  70.682  1.00  0.00    -0.355 C  
BRANCH  29  30
HETATM   30  C   UNL     1     -11.993  11.693  70.056  1.00  0.00    -0.351 C  
BRANCH  30  31
HETATM   31  N   UNL     1     -11.913  11.546  68.571  1.00  0.00    -0.529 NA 
HETATM   32  C   UNL     1     -12.020  12.854  67.903  1.00  0.00    -0.282 C  
HETATM   33  C   UNL     1     -11.972  12.887  66.376  1.00  0.00    -0.462 C  
HETATM   34  C   UNL     1     -10.587  12.607  65.826  1.00  0.00    -0.296 C  
HETATM   35  C   UNL     1     -10.269  11.128  65.682  1.00  0.00    -0.310 C  
HETATM   36  C   UNL     1     -10.812  10.213  66.774  1.00  0.00    -0.129 C  
HETATM   37  C   UNL     1     -10.724  10.769  68.200  1.00  0.00    -0.214 C  
ENDBRANCH  30  31
ENDBRANCH  29  30
ENDBRANCH  28  29
ENDBRANCH  26  28
ENDBRANCH  21  22
ENDBRANCH   5  21
TORSDOF 7
ENDMDL
MODEL      103
REMARK 921   NORMALIZED FREE ENERGY PREDICTED BY IDOCK:   -5.00 KCAL/MOL
REMARK 922        TOTAL FREE ENERGY PREDICTED BY IDOCK:  -10.11 KCAL/MOL
REMARK 923 INTER-LIGAND FREE ENERGY PREDICTED BY IDOCK:   -8.78 KCAL/MOL
REMARK 924 INTRA-LIGAND FREE ENERGY PREDICTED BY IDOCK:   -1.33 KCAL/MOL
REMARK 927      BINDING AFFINITY PREDICTED BY RF-SCORE:    0.00 PKD
ROOT
HETATM    1  C   UNL     1      -9.573   6.844  69.707  1.00  0.00    -0.154 C  
HETATM    2  C   UNL     1     -10.276   8.143  69.943  1.00  0.00    -0.204 A  
HETATM    3  C   UNL     1      -9.972   9.438  69.498  1.00  0.00    -0.191 A  
HETATM    4  C   UNL     1     -14.112   8.744  71.523  1.00  0.00    -0.383 A  
HETATM    5  N   UNL     1     -11.023  10.265  69.957  1.00  0.00    -0.292 NA 
HETATM    6  O   UNL     1     -14.295   6.617  72.492  1.00  0.00    -0.602 OA 
HETATM    7  C   UNL     1     -12.044   9.469  70.471  1.00  0.00    -0.085 A  
HETATM    8  C   UNL     1     -13.547   7.519  71.795  1.00  0.00    -0.322 A  
HETATM    9  C   UNL     1     -11.518   8.192  70.645  1.00  0.00    -0.237 A  
HETATM   10  H   UNL     1     -15.165   6.828  72.808  1.00  0.00     0.000 HD 
HETATM   11  C   UNL     1     -13.385   9.709  70.825  1.00  0.00    -0.083 A  
HETATM   12  C   UNL     1     -12.274   7.209  71.332  1.00  0.00    -0.399 A  
ENDROOT
BRANCH   3  13
HETATM   13  C   UNL     1      -8.797   9.890  68.698  1.00  0.00    -0.128 A  
HETATM   14  C   UNL     1      -6.496  10.595  67.208  1.00  0.00    -0.072 A  
HETATM   15  H   UNL     1      -4.522  11.004  66.966  1.00  0.00     0.000 HD 
HETATM   16  C   UNL     1      -7.553  10.107  69.316  1.00  0.00    -0.117 A  
HETATM   17  C   UNL     1      -6.405  10.420  68.579  1.00  0.00    -0.051 A  
HETATM   18  O   UNL     1      -5.359  10.905  66.526  1.00  0.00    -0.062 OA 
HETATM   19  C   UNL     1      -8.851  10.069  67.305  1.00  0.00    -0.141 A  
HETATM   20  C   UNL     1      -7.718  10.451  66.566  1.00  0.00    -0.121 A  
ENDBRANCH   3  13
BRANCH   5  21
HETATM   21  C   UNL     1     -11.004  11.750  69.893  1.00  0.00     0.238 C  
BRANCH  21  22
HETATM   22  C   UNL     1     -11.498  12.399  68.624  1.00  0.00    -0.348 A  
HETATM   23  C   UNL     1     -11.744  12.338  66.221  1.00  0.00    -0.431 A  
HETATM   24  C   UNL     1     -12.201  14.382  67.384  1.00  0.00    -0.230 A  
HETATM   25  C   UNL     1     -11.454  11.696  67.421  1.00  0.00    -0.357 A  
HETATM   26  C   UNL     1     -12.010  13.711  66.185  1.00  0.00    -0.416 A  
HETATM   27  C   UNL     1     -12.030  13.698  68.587  1.00  0.00    -0.395 A  
BRANCH  26  28
HETATM   28  O   UNL     1     -12.075  14.469  65.032  1.00  0.00    -0.391 OA 
BRANCH  28  29
HETATM   29  C   UNL     1     -11.462  15.752  65.193  1.00  0.00    -0.048 C  
BRANCH  29  30
HETATM   30  C   UNL     1      -9.950  15.726  65.462  1.00  0.00    -0.306 C  
BRANCH  30  31
HETATM   31  N   UNL     1      -9.556  16.847  66.368  1.00  0.00    -0.271 NA 
HETATM   32  C   UNL     1      -8.109  17.110  66.285  1.00  0.00    -0.290 C  
HETATM   33  C   UNL     1      -7.529  18.219  67.162  1.00  0.00    -0.227 C  
HETATM   34  C   UNL     1      -7.910  19.606  66.683  1.00  0.00    -0.306 C  
HETATM   35  C   UNL     1      -9.262  20.082  67.189  1.00  0.00    -0.483 C  
HETATM   36  C   UNL     1     -10.355  19.023  67.285  1.00  0.00    -0.505 C  
HETATM   37  C   UNL     1     -10.402  18.021  66.126  1.00  0.00    -0.366 C  
ENDBRANCH  30  31
ENDBRANCH  29  30
ENDBRANCH  28  29
ENDBRANCH  26  28
ENDBRANCH  21  22
ENDBRANCH   5  21
TORSDOF 7
ENDMDL
MODEL      104
REMARK 921   NORMALIZED FREE ENERGY PREDICTED BY IDOCK:   -4.99 KCAL/MOL
REMARK 922        TOTAL FREE ENERGY PREDICTED BY IDOCK:  -10.10 KCAL/MOL
REMARK 923 INTER-LIGAND FREE ENERGY PREDICTED BY IDOCK:   -8.40 KCAL/MOL
REMARK 924 INTRA-LIGAND FREE ENERGY PREDICTED BY IDOCK:   -1.70 KCAL/MOL
REMARK 927      BINDING AFFINITY PREDICTED BY RF-SCORE:    0.00 PKD
ROOT
HETATM    1  C   UNL     1     -10.317  15.647  67.533  1.00  0.00    -0.277 C  
HETATM    2  C   UNL     1      -9.403  14.473  67.376  1.00  0.00    -0.197 A  
HETATM    3  C   UNL     1      -9.486  13.360  66.527  1.00  0.00    -0.245 A  
HETATM    4  C   UNL     1      -5.513  14.025  68.871  1.00  0.00    -0.082 A  
HETATM    5  N   UNL     1      -8.307  12.611  66.750  1.00  0.00    -0.074 NA 
HETATM    6  O   UNL     1      -5.688  15.725  70.476  1.00  0.00    -0.145 OA 
HETATM    7  C   UNL     1      -7.433  13.354  67.541  1.00  0.00    -0.162 A  
HETATM    8  C   UNL     1      -6.276  14.987  69.491  1.00  0.00    -0.124 A  
HETATM    9  C   UNL     1      -8.167  14.402  68.087  1.00  0.00    -0.149 A  
HETATM   10  H   UNL     1      -4.793  15.566  70.751  1.00  0.00     0.000 HD 
HETATM   11  C   UNL     1      -6.069  13.233  67.866  1.00  0.00    -0.143 A  
HETATM   12  C   UNL     1      -7.585  15.219  69.088  1.00  0.00    -0.192 A  
ENDROOT
BRANCH   3  13
HETATM   13  C   UNL     1     -10.571  13.007  65.566  1.00  0.00    -0.297 A  
HETATM   14  C   UNL     1     -12.567  12.176  63.740  1.00  0.00    -0.475 A  
HETATM   15  H   UNL     1     -13.250  11.491  61.955  1.00  0.00     0.000 HD 
HETATM   16  C   UNL     1     -10.266  12.683  64.233  1.00  0.00    -0.358 A  
HETATM   17  C   UNL     1     -11.244  12.237  63.337  1.00  0.00    -0.497 A  
HETATM   18  O   UNL     1     -13.492  11.744  62.838  1.00  0.00    -0.186 OA 
HETATM   19  C   UNL     1     -11.923  12.926  65.943  1.00  0.00    -0.504 A  
HETATM   20  C   UNL     1     -12.921  12.546  65.030  1.00  0.00     0.098 A  
ENDBRANCH   3  13
BRANCH   5  21
HETATM   21  C   UNL     1      -8.074  11.244  66.214  1.00  0.00    -0.108 C  
BRANCH  21  22
HETATM   22  C   UNL     1      -8.691  10.088  66.963  1.00  0.00    -0.137 A  
HETATM   23  C   UNL     1      -8.437   8.229  68.486  1.00  0.00    -0.126 A  
HETATM   24  C   UNL     1     -10.469   8.437  67.234  1.00  0.00    -0.373 A  
HETATM   25  C   UNL     1      -7.942   9.398  67.915  1.00  0.00    -0.092 A  
HETATM   26  C   UNL     1      -9.655   7.683  68.067  1.00  0.00    -0.145 A  
HETATM   27  C   UNL     1     -10.016   9.669  66.764  1.00  0.00    -0.289 A  
BRANCH  26  28
HETATM   28  O   UNL     1     -10.107   6.421  68.402  1.00  0.00    -0.141 OA 
BRANCH  28  29
HETATM   29  C   UNL     1     -11.011   6.448  69.510  1.00  0.00    -0.359 C  
BRANCH  29  30
HETATM   30  C   UNL     1     -10.710   7.512  70.575  1.00  0.00    -0.235 C  
BRANCH  30  31
HETATM   31  N   UNL     1     -11.685   8.641  70.486  1.00  0.00    -0.155 NA 
HETATM   32  C   UNL     1     -12.637   8.609  71.610  1.00  0.00    -0.338 C  
HETATM   33  C   UNL     1     -13.718   9.688  71.666  1.00  0.00    -0.328 C  
HETATM   34  C   UNL     1     -13.168  11.050  72.040  1.00  0.00    -0.447 C  
HETATM   35  C   UNL     1     -12.619  11.837  70.861  1.00  0.00    -0.384 C  
HETATM   36  C   UNL     1     -11.887  11.028  69.796  1.00  0.00    -0.421 C  
HETATM   37  C   UNL     1     -10.976   9.916  70.327  1.00  0.00    -0.309 C  
ENDBRANCH  30  31
ENDBRANCH  29  30
ENDBRANCH  28  29
ENDBRANCH  26  28
ENDBRANCH  21  22
ENDBRANCH   5  21
TORSDOF 7
ENDMDL
MODEL      105
REMARK 921   NORMALIZED FREE ENERGY PREDICTED BY IDOCK:   -4.98 KCAL/MOL
REMARK 922        TOTAL FREE ENERGY PREDICTED BY IDOCK:  -10.08 KCAL/MOL
REMARK 923 INTER-LIGAND FREE ENERGY PREDICTED BY IDOCK:   -7.23 KCAL/MOL
REMARK 924 INTRA-LIGAND FREE ENERGY PREDICTED BY IDOCK:   -2.85 KCAL/MOL
REMARK 927      BINDING AFFINITY PREDICTED BY RF-SCORE:    0.00 PKD
ROOT
HETATM    1  C   UNL     1      -6.656   7.808  68.359  1.00  0.00    -0.054 C  
HETATM    2  C   UNL     1      -7.781   8.468  67.626  1.00  0.00    -0.102 A  
HETATM    3  C   UNL     1      -9.069   8.817  68.057  1.00  0.00    -0.140 A  
HETATM    4  C   UNL     1      -7.641  10.427  63.923  1.00  0.00    -0.019 A  
HETATM    5  N   UNL     1      -9.676   9.486  66.969  1.00  0.00    -0.167 NA 
HETATM    6  O   UNL     1      -5.616   9.467  63.234  1.00  0.00    -0.078 OA 
HETATM    7  C   UNL     1      -8.718   9.734  65.989  1.00  0.00    -0.141 A  
HETATM    8  C   UNL     1      -6.600   9.562  64.172  1.00  0.00    -0.101 A  
HETATM    9  C   UNL     1      -7.610   8.948  66.293  1.00  0.00    -0.095 A  
HETATM   10  H   UNL     1      -5.654   9.956  62.420  1.00  0.00     0.000 HD 
HETATM   11  C   UNL     1      -8.682  10.551  64.844  1.00  0.00    -0.192 A  
HETATM   12  C   UNL     1      -6.545   8.848  65.363  1.00  0.00    -0.068 A  
ENDROOT
BRANCH   3  13
HETATM   13  C   UNL     1      -9.703   8.562  69.384  1.00  0.00    -0.177 A  
HETATM   14  C   UNL     1     -10.820   7.929  71.905  1.00  0.00    -0.243 A  
HETATM   15  H   UNL     1     -11.955   6.837  73.187  1.00  0.00     0.000 HD 
HETATM   16  C   UNL     1     -10.637   7.523  69.539  1.00  0.00    -0.239 A  
HETATM   17  C   UNL     1     -11.164   7.183  70.791  1.00  0.00    -0.309 A  
HETATM   18  O   UNL     1     -11.358   7.572  73.105  1.00  0.00    -0.331 OA 
HETATM   19  C   UNL     1      -9.370   9.292  70.537  1.00  0.00    -0.316 A  
HETATM   20  C   UNL     1      -9.948   9.002  71.785  1.00  0.00    -0.359 A  
ENDBRANCH   3  13
BRANCH   5  21
HETATM   21  C   UNL     1     -11.118   9.847  66.912  1.00  0.00     0.170 C  
BRANCH  21  22
HETATM   22  C   UNL     1     -11.508  11.231  67.367  1.00  0.00    -0.300 A  
HETATM   23  C   UNL     1     -11.932  13.550  66.835  1.00  0.00    -0.447 A  
HETATM   24  C   UNL     1     -11.742  12.900  69.134  1.00  0.00    -0.376 A  
HETATM   25  C   UNL     1     -11.740  12.233  66.426  1.00  0.00    -0.431 A  
HETATM   26  C   UNL     1     -11.823  13.908  68.183  1.00  0.00    -0.372 A  
HETATM   27  C   UNL     1     -11.675  11.571  68.720  1.00  0.00    -0.397 A  
BRANCH  26  28
HETATM   28  O   UNL     1     -11.765  15.208  68.649  1.00  0.00    -0.335 OA 
BRANCH  28  29
HETATM   29  C   UNL     1     -10.777  15.983  67.964  1.00  0.00    -0.309 C  
BRANCH  29  30
HETATM   30  C   UNL     1      -9.511  16.295  68.774  1.00  0.00    -0.237 C  
BRANCH  30  31
HETATM   31  N   UNL     1      -8.648  15.081  68.897  1.00  0.00    -0.181 NA 
HETATM   32  C   UNL     1      -8.608  14.330  67.631  1.00  0.00    -0.183 C  
HETATM   33  C   UNL     1      -7.781  13.046  67.584  1.00  0.00    -0.161 C  
HETATM   34  C   UNL     1      -6.287  13.309  67.591  1.00  0.00    -0.161 C  
HETATM   35  C   UNL     1      -5.701  13.489  68.982  1.00  0.00    -0.076 C  
HETATM   36  C   UNL     1      -6.573  14.233  69.988  1.00  0.00    -0.088 C  
HETATM   37  C   UNL     1      -7.330  15.444  69.431  1.00  0.00    -0.213 C  
ENDBRANCH  30  31
ENDBRANCH  29  30
ENDBRANCH  28  29
ENDBRANCH  26  28
ENDBRANCH  21  22
ENDBRANCH   5  21
TORSDOF 7
ENDMDL
MODEL      106
REMARK 921   NORMALIZED FREE ENERGY PREDICTED BY IDOCK:   -4.96 KCAL/MOL
REMARK 922        TOTAL FREE ENERGY PREDICTED BY IDOCK:  -10.06 KCAL/MOL
REMARK 923 INTER-LIGAND FREE ENERGY PREDICTED BY IDOCK:   -8.06 KCAL/MOL
REMARK 924 INTRA-LIGAND FREE ENERGY PREDICTED BY IDOCK:   -2.00 KCAL/MOL
REMARK 927      BINDING AFFINITY PREDICTED BY RF-SCORE:    0.00 PKD
ROOT
HETATM    1  C   UNL     1     -10.948  15.375  66.795  1.00  0.00    -0.282 C  
HETATM    2  C   UNL     1     -11.363  14.164  67.569  1.00  0.00    -0.343 A  
HETATM    3  C   UNL     1     -11.275  12.802  67.247  1.00  0.00    -0.295 A  
HETATM    4  C   UNL     1     -12.432  13.940  71.616  1.00  0.00    -0.337 A  
HETATM    5  N   UNL     1     -11.743  12.102  68.383  1.00  0.00    -0.318 NA 
HETATM    6  O   UNL     1     -12.853  16.233  71.867  1.00  0.00    -0.464 OA 
HETATM    7  C   UNL     1     -11.900  12.994  69.441  1.00  0.00    -0.322 A  
HETATM    8  C   UNL     1     -12.502  15.195  71.056  1.00  0.00    -0.357 A  
HETATM    9  C   UNL     1     -11.859  14.277  68.903  1.00  0.00    -0.372 A  
HETATM   10  H   UNL     1     -13.072  16.099  72.782  1.00  0.00     0.000 HD 
HETATM   11  C   UNL     1     -12.091  12.841  70.827  1.00  0.00    -0.246 A  
HETATM   12  C   UNL     1     -12.181  15.391  69.719  1.00  0.00    -0.336 A  
ENDROOT
BRANCH   3  13
HETATM   13  C   UNL     1     -10.787  12.179  65.982  1.00  0.00    -0.318 A  
HETATM   14  C   UNL     1      -9.879  10.843  63.659  1.00  0.00    -0.351 A  
HETATM   15  H   UNL     1      -8.592   9.693  62.589  1.00  0.00     0.000 HD 
HETATM   16  C   UNL     1      -9.544  11.524  65.944  1.00  0.00    -0.254 A  
HETATM   17  C   UNL     1      -9.107  10.831  64.808  1.00  0.00    -0.222 A  
HETATM   18  O   UNL     1      -9.418  10.163  62.572  1.00  0.00    -0.301 OA 
HETATM   19  C   UNL     1     -11.547  12.163  64.800  1.00  0.00    -0.380 A  
HETATM   20  C   UNL     1     -11.085  11.530  63.635  1.00  0.00    -0.469 A  
ENDBRANCH   3  13
BRANCH   5  21
HETATM   21  C   UNL     1     -12.021  10.641  68.406  1.00  0.00     0.187 C  
BRANCH  21  22
HETATM   22  C   UNL     1     -10.867   9.717  68.703  1.00  0.00    -0.203 A  
HETATM   23  C   UNL     1      -9.539   7.792  68.095  1.00  0.00    -0.161 A  
HETATM   24  C   UNL     1      -9.269   8.748  70.275  1.00  0.00    -0.191 A  
HETATM   25  C   UNL     1     -10.484   8.758  67.766  1.00  0.00    -0.292 A  
HETATM   26  C   UNL     1      -9.008   7.714  69.387  1.00  0.00    -0.139 A  
HETATM   27  C   UNL     1     -10.123   9.781  69.892  1.00  0.00    -0.288 A  
BRANCH  26  28
HETATM   28  O   UNL     1      -8.253   6.660  69.865  1.00  0.00    -0.123 OA 
BRANCH  28  29
HETATM   29  C   UNL     1      -8.491   5.452  69.137  1.00  0.00    -0.103 C  
BRANCH  29  30
HETATM   30  C   UNL     1      -7.277   4.891  68.383  1.00  0.00    -0.062 C  
BRANCH  30  31
HETATM   31  N   UNL     1      -7.657   4.489  66.994  1.00  0.00    -0.085 NA 
HETATM   32  C   UNL     1      -6.661   3.568  66.419  1.00  0.00    -0.052 C  
HETATM   33  C   UNL     1      -6.886   3.066  64.994  1.00  0.00    -0.045 C  
HETATM   34  C   UNL     1      -8.018   2.062  64.896  1.00  0.00    -0.077 C  
HETATM   35  C   UNL     1      -9.393   2.697  64.758  1.00  0.00    -0.139 C  
HETATM   36  C   UNL     1      -9.626   3.977  65.553  1.00  0.00    -0.189 C  
HETATM   37  C   UNL     1      -9.036   3.987  66.968  1.00  0.00    -0.132 C  
ENDBRANCH  30  31
ENDBRANCH  29  30
ENDBRANCH  28  29
ENDBRANCH  26  28
ENDBRANCH  21  22
ENDBRANCH   5  21
TORSDOF 7
ENDMDL
MODEL      107
REMARK 921   NORMALIZED FREE ENERGY PREDICTED BY IDOCK:   -4.93 KCAL/MOL
REMARK 922        TOTAL FREE ENERGY PREDICTED BY IDOCK:  -10.01 KCAL/MOL
REMARK 923 INTER-LIGAND FREE ENERGY PREDICTED BY IDOCK:   -7.36 KCAL/MOL
REMARK 924 INTRA-LIGAND FREE ENERGY PREDICTED BY IDOCK:   -2.65 KCAL/MOL
REMARK 927      BINDING AFFINITY PREDICTED BY RF-SCORE:    0.00 PKD
ROOT
HETATM    1  C   UNL     1     -12.098  11.962  70.179  1.00  0.00    -0.382 C  
HETATM    2  C   UNL     1     -11.350  11.449  68.988  1.00  0.00    -0.345 A  
HETATM    3  C   UNL     1     -10.493  10.347  68.856  1.00  0.00    -0.212 A  
HETATM    4  C   UNL     1     -11.857  12.530  64.970  1.00  0.00    -0.445 A  
HETATM    5  N   UNL     1     -10.136  10.293  67.489  1.00  0.00    -0.189 NA 
HETATM    6  O   UNL     1     -12.998  14.529  65.414  1.00  0.00    -0.470 OA 
HETATM    7  C   UNL     1     -10.921  11.194  66.772  1.00  0.00    -0.249 A  
HETATM    8  C   UNL     1     -12.354  13.426  65.889  1.00  0.00    -0.437 A  
HETATM    9  C   UNL     1     -11.523  12.038  67.700  1.00  0.00    -0.392 A  
HETATM   10  H   UNL     1     -13.079  14.697  64.483  1.00  0.00     0.000 HD 
HETATM   11  C   UNL     1     -11.177  11.391  65.403  1.00  0.00    -0.140 A  
HETATM   12  C   UNL     1     -12.235  13.179  67.251  1.00  0.00    -0.234 A  
ENDROOT
BRANCH   3  13
HETATM   13  C   UNL     1     -10.036   9.397  69.912  1.00  0.00    -0.237 A  
HETATM   14  C   UNL     1      -9.164   7.472  71.794  1.00  0.00    -0.140 A  
HETATM   15  H   UNL     1      -9.341   5.783  72.907  1.00  0.00     0.000 HD 
HETATM   16  C   UNL     1     -10.867   8.344  70.332  1.00  0.00    -0.246 A  
HETATM   17  C   UNL     1     -10.426   7.369  71.235  1.00  0.00    -0.221 A  
HETATM   18  O   UNL     1      -8.773   6.508  72.673  1.00  0.00    -0.125 OA 
HETATM   19  C   UNL     1      -8.758   9.466  70.493  1.00  0.00    -0.276 A  
HETATM   20  C   UNL     1      -8.334   8.531  71.452  1.00  0.00    -0.204 A  
ENDBRANCH   3  13
BRANCH   5  21
HETATM   21  C   UNL     1      -9.076   9.407  66.938  1.00  0.00    -0.135 C  
BRANCH  21  22
HETATM   22  C   UNL     1      -9.242   7.920  67.131  1.00  0.00    -0.175 A  
HETATM   23  C   UNL     1     -10.662   5.965  67.082  1.00  0.00    -0.387 A  
HETATM   24  C   UNL     1      -8.502   5.808  68.108  1.00  0.00    -0.109 A  
HETATM   25  C   UNL     1     -10.431   7.298  66.753  1.00  0.00    -0.311 A  
HETATM   26  C   UNL     1      -9.746   5.246  67.857  1.00  0.00    -0.141 A  
HETATM   27  C   UNL     1      -8.233   7.102  67.666  1.00  0.00    -0.114 A  
BRANCH  26  28
HETATM   28  O   UNL     1      -9.995   4.010  68.423  1.00  0.00    -0.047 OA 
BRANCH  28  29
HETATM   29  C   UNL     1      -9.032   3.671  69.424  1.00  0.00    -0.114 C  
BRANCH  29  30
HETATM   30  C   UNL     1      -9.132   2.240  69.972  1.00  0.00    -0.109 C  
BRANCH  30  31
HETATM   31  N   UNL     1      -9.197   2.249  71.465  1.00  0.00    -0.093 NA 
HETATM   32  C   UNL     1      -7.848   2.184  72.053  1.00  0.00    -0.045 C  
HETATM   33  C   UNL     1      -7.729   2.168  73.577  1.00  0.00    -0.042 C  
HETATM   34  C   UNL     1      -8.047   3.511  74.204  1.00  0.00    -0.074 C  
HETATM   35  C   UNL     1      -9.530   3.742  74.446  1.00  0.00    -0.128 C  
HETATM   36  C   UNL     1     -10.477   3.197  73.383  1.00  0.00    -0.252 C  
HETATM   37  C   UNL     1     -10.011   3.377  71.934  1.00  0.00    -0.140 C  
ENDBRANCH  30  31
ENDBRANCH  29  30
ENDBRANCH  28  29
ENDBRANCH  26  28
ENDBRANCH  21  22
ENDBRANCH   5  21
TORSDOF 7
ENDMDL
MODEL      108
REMARK 921   NORMALIZED FREE ENERGY PREDICTED BY IDOCK:   -4.89 KCAL/MOL
REMARK 922        TOTAL FREE ENERGY PREDICTED BY IDOCK:   -9.96 KCAL/MOL
REMARK 923 INTER-LIGAND FREE ENERGY PREDICTED BY IDOCK:   -7.25 KCAL/MOL
REMARK 924 INTRA-LIGAND FREE ENERGY PREDICTED BY IDOCK:   -2.70 KCAL/MOL
REMARK 927      BINDING AFFINITY PREDICTED BY RF-SCORE:    0.00 PKD
ROOT
HETATM    1  C   UNL     1     -13.043  10.031  71.954  1.00  0.00    -0.563 C  
HETATM    2  C   UNL     1     -11.829  10.012  71.080  1.00  0.00    -0.476 A  
HETATM    3  C   UNL     1     -10.817   9.050  70.946  1.00  0.00    -0.258 A  
HETATM    4  C   UNL     1     -10.955  12.520  67.837  1.00  0.00    -0.262 A  
HETATM    5  N   UNL     1      -9.968   9.519  69.917  1.00  0.00    -0.214 NA 
HETATM    6  O   UNL     1     -12.490  14.193  68.423  1.00  0.00    -0.532 OA 
HETATM    7  C   UNL     1     -10.561  10.614  69.293  1.00  0.00    -0.233 A  
HETATM    8  C   UNL     1     -11.900  12.999  68.715  1.00  0.00    -0.317 A  
HETATM    9  C   UNL     1     -11.598  11.041  70.118  1.00  0.00    -0.421 A  
HETATM   10  H   UNL     1     -12.240  14.698  67.658  1.00  0.00     0.000 HD 
HETATM   11  C   UNL     1     -10.311  11.310  68.096  1.00  0.00    -0.205 A  
HETATM   12  C   UNL     1     -12.265  12.259  69.833  1.00  0.00    -0.234 A  
ENDROOT
BRANCH   3  13
HETATM   13  C   UNL     1     -10.642   7.778  71.705  1.00  0.00    -0.252 A  
HETATM   14  C   UNL     1     -10.181   5.324  73.038  1.00  0.00    -0.183 A  
HETATM   15  H   UNL     1     -10.114   3.300  73.184  1.00  0.00     0.000 HD 
HETATM   16  C   UNL     1     -10.935   6.542  71.103  1.00  0.00    -0.314 A  
HETATM   17  C   UNL     1     -10.674   5.325  71.744  1.00  0.00    -0.240 A  
HETATM   18  O   UNL     1      -9.946   4.121  73.632  1.00  0.00    -0.119 OA 
HETATM   19  C   UNL     1     -10.135   7.739  73.015  1.00  0.00    -0.382 A  
HETATM   20  C   UNL     1      -9.935   6.524  73.692  1.00  0.00    -0.252 A  
ENDBRANCH   3  13
BRANCH   5  21
HETATM   21  C   UNL     1      -8.649   8.917  69.585  1.00  0.00    -0.131 C  
BRANCH  21  22
HETATM   22  C   UNL     1      -8.628   7.802  68.568  1.00  0.00    -0.128 A  
HETATM   23  C   UNL     1      -7.546   5.843  67.657  1.00  0.00    -0.089 A  
HETATM   24  C   UNL     1      -9.322   6.872  66.420  1.00  0.00    -0.183 A  
HETATM   25  C   UNL     1      -7.688   6.779  68.677  1.00  0.00    -0.113 A  
HETATM   26  C   UNL     1      -8.285   5.951  66.474  1.00  0.00    -0.110 A  
HETATM   27  C   UNL     1      -9.538   7.725  67.501  1.00  0.00    -0.184 A  
BRANCH  26  28
HETATM   28  O   UNL     1      -8.046   5.217  65.328  1.00  0.00    -0.110 OA 
BRANCH  28  29
HETATM   29  C   UNL     1      -8.314   5.967  64.140  1.00  0.00     0.010 C  
BRANCH  29  30
HETATM   30  C   UNL     1      -7.074   6.451  63.376  1.00  0.00    -0.054 C  
BRANCH  30  31
HETATM   31  N   UNL     1      -6.812   7.896  63.653  1.00  0.00    -0.073 NA 
HETATM   32  C   UNL     1      -8.065   8.671  63.653  1.00  0.00    -0.163 C  
HETATM   33  C   UNL     1      -7.979  10.175  63.906  1.00  0.00    -0.153 C  
HETATM   34  C   UNL     1      -7.656  10.510  65.348  1.00  0.00    -0.097 C  
HETATM   35  C   UNL     1      -6.169  10.498  65.664  1.00  0.00    -0.129 C  
HETATM   36  C   UNL     1      -5.343   9.422  64.968  1.00  0.00    -0.045 C  
HETATM   37  C   UNL     1      -6.007   8.044  64.871  1.00  0.00    -0.045 C  
ENDBRANCH  30  31
ENDBRANCH  29  30
ENDBRANCH  28  29
ENDBRANCH  26  28
ENDBRANCH  21  22
ENDBRANCH   5  21
TORSDOF 7
ENDMDL
MODEL      109
REMARK 921   NORMALIZED FREE ENERGY PREDICTED BY IDOCK:   -4.89 KCAL/MOL
REMARK 922        TOTAL FREE ENERGY PREDICTED BY IDOCK:   -9.95 KCAL/MOL
REMARK 923 INTER-LIGAND FREE ENERGY PREDICTED BY IDOCK:   -7.71 KCAL/MOL
REMARK 924 INTRA-LIGAND FREE ENERGY PREDICTED BY IDOCK:   -2.25 KCAL/MOL
REMARK 927      BINDING AFFINITY PREDICTED BY RF-SCORE:    0.00 PKD
ROOT
HETATM    1  C   UNL     1      -8.915  14.611  67.745  1.00  0.00    -0.181 C  
HETATM    2  C   UNL     1      -9.237  13.463  66.840  1.00  0.00    -0.251 A  
HETATM    3  C   UNL     1      -8.799  12.131  66.866  1.00  0.00    -0.202 A  
HETATM    4  C   UNL     1     -12.280  13.227  63.967  1.00  0.00    -0.475 A  
HETATM    5  N   UNL     1      -9.487  11.475  65.820  1.00  0.00    -0.232 NA 
HETATM    6  O   UNL     1     -12.636  15.540  63.822  1.00  0.00    -0.847 OA 
HETATM    7  C   UNL     1     -10.473  12.319  65.316  1.00  0.00    -0.282 A  
HETATM    8  C   UNL     1     -11.934  14.501  64.356  1.00  0.00    -0.449 A  
HETATM    9  C   UNL     1     -10.201  13.597  65.796  1.00  0.00    -0.317 A  
HETATM   10  H   UNL     1     -13.322  15.400  63.179  1.00  0.00     0.000 HD 
HETATM   11  C   UNL     1     -11.584  12.129  64.473  1.00  0.00    -0.403 A  
HETATM   12  C   UNL     1     -10.931  14.704  65.295  1.00  0.00    -0.374 A  
ENDROOT
BRANCH   3  13
HETATM   13  C   UNL     1      -7.819  11.496  67.795  1.00  0.00    -0.126 A  
HETATM   14  C   UNL     1      -6.041  10.142  69.531  1.00  0.00    -0.043 A  
HETATM   15  H   UNL     1      -5.548   9.093  71.198  1.00  0.00     0.000 HD 
HETATM   16  C   UNL     1      -8.239  10.994  69.040  1.00  0.00    -0.101 A  
HETATM   17  C   UNL     1      -7.371  10.292  69.885  1.00  0.00    -0.166 A  
HETATM   18  O   UNL     1      -5.227   9.458  70.382  1.00  0.00    -0.027 OA 
HETATM   19  C   UNL     1      -6.465  11.319  67.465  1.00  0.00    -0.072 A  
HETATM   20  C   UNL     1      -5.572  10.676  68.339  1.00  0.00    -0.040 A  
ENDBRANCH   3  13
BRANCH   5  21
HETATM   21  C   UNL     1      -9.173  10.099  65.351  1.00  0.00    -0.202 C  
BRANCH  21  22
HETATM   22  C   UNL     1      -9.255   8.982  66.363  1.00  0.00    -0.239 A  
HETATM   23  C   UNL     1     -10.500   7.821  68.078  1.00  0.00    -0.244 A  
HETATM   24  C   UNL     1      -8.171   7.333  67.800  1.00  0.00    -0.119 A  
HETATM   25  C   UNL     1     -10.456   8.729  67.024  1.00  0.00    -0.338 A  
HETATM   26  C   UNL     1      -9.335   7.202  68.543  1.00  0.00    -0.136 A  
HETATM   27  C   UNL     1      -8.167   8.149  66.670  1.00  0.00    -0.103 A  
BRANCH  26  28
HETATM   28  O   UNL     1      -9.245   6.477  69.716  1.00  0.00    -0.144 OA 
BRANCH  28  29
HETATM   29  C   UNL     1     -10.475   5.823  70.043  1.00  0.00    -0.283 C  
BRANCH  29  30
HETATM   30  C   UNL     1     -10.918   5.953  71.507  1.00  0.00    -0.262 C  
BRANCH  30  31
HETATM   31  N   UNL     1     -10.668   4.681  72.250  1.00  0.00    -0.132 NA 
HETATM   32  C   UNL     1      -9.864   3.746  71.444  1.00  0.00    -0.155 C  
HETATM   33  C   UNL     1      -9.527   2.384  72.048  1.00  0.00    -0.184 C  
HETATM   34  C   UNL     1      -8.496   2.472  73.156  1.00  0.00    -0.070 C  
HETATM   35  C   UNL     1      -9.085   2.793  74.520  1.00  0.00    -0.095 C  
HETATM   36  C   UNL     1     -10.250   3.776  74.535  1.00  0.00    -0.248 C  
HETATM   37  C   UNL     1     -10.116   4.967  73.579  1.00  0.00    -0.164 C  
ENDBRANCH  30  31
ENDBRANCH  29  30
ENDBRANCH  28  29
ENDBRANCH  26  28
ENDBRANCH  21  22
ENDBRANCH   5  21
TORSDOF 7
ENDMDL
MODEL      110
REMARK 921   NORMALIZED FREE ENERGY PREDICTED BY IDOCK:   -4.87 KCAL/MOL
REMARK 922        TOTAL FREE ENERGY PREDICTED BY IDOCK:   -9.93 KCAL/MOL
REMARK 923 INTER-LIGAND FREE ENERGY PREDICTED BY IDOCK:   -7.58 KCAL/MOL
REMARK 924 INTRA-LIGAND FREE ENERGY PREDICTED BY IDOCK:   -2.35 KCAL/MOL
REMARK 927      BINDING AFFINITY PREDICTED BY RF-SCORE:    0.00 PKD
ROOT
HETATM    1  C   UNL     1     -11.274  11.553  64.298  1.00  0.00    -0.358 C  
HETATM    2  C   UNL     1     -10.339  11.597  65.465  1.00  0.00    -0.309 A  
HETATM    3  C   UNL     1      -9.137  10.911  65.697  1.00  0.00    -0.204 A  
HETATM    4  C   UNL     1     -10.265  14.379  68.599  1.00  0.00    -0.245 A  
HETATM    5  N   UNL     1      -8.640  11.401  66.926  1.00  0.00    -0.149 NA 
HETATM    6  O   UNL     1     -12.445  15.169  68.254  1.00  0.00    -0.451 OA 
HETATM    7  C   UNL     1      -9.393  12.505  67.320  1.00  0.00    -0.190 A  
HETATM    8  C   UNL     1     -11.449  14.308  67.902  1.00  0.00    -0.315 A  
HETATM    9  C   UNL     1     -10.546  12.511  66.541  1.00  0.00    -0.265 A  
HETATM   10  H   UNL     1     -12.345  15.779  68.975  1.00  0.00     0.000 HD 
HETATM   11  C   UNL     1      -9.218  13.511  68.288  1.00  0.00    -0.195 A  
HETATM   12  C   UNL     1     -11.595  13.415  66.847  1.00  0.00    -0.404 A  
ENDROOT
BRANCH   3  13
HETATM   13  C   UNL     1      -8.481   9.877  64.844  1.00  0.00    -0.168 A  
HETATM   14  C   UNL     1      -7.089   7.949  63.310  1.00  0.00    -0.087 A  
HETATM   15  H   UNL     1      -5.694   7.329  61.971  1.00  0.00     0.000 HD 
HETATM   16  C   UNL     1      -7.510  10.246  63.897  1.00  0.00    -0.077 A  
HETATM   17  C   UNL     1      -6.793   9.294  63.163  1.00  0.00    -0.090 A  
HETATM   18  O   UNL     1      -6.375   7.053  62.573  1.00  0.00    -0.046 OA 
HETATM   19  C   UNL     1      -8.750   8.504  64.972  1.00  0.00    -0.124 A  
HETATM   20  C   UNL     1      -8.085   7.546  64.189  1.00  0.00    -0.055 A  
ENDBRANCH   3  13
BRANCH   5  21
HETATM   21  C   UNL     1      -7.494  10.802  67.660  1.00  0.00    -0.095 C  
BRANCH  21  22
HETATM   22  C   UNL     1      -7.808   9.806  68.750  1.00  0.00    -0.082 A  
HETATM   23  C   UNL     1      -7.574   9.102  71.049  1.00  0.00    -0.124 A  
HETATM   24  C   UNL     1      -8.496   7.572  69.453  1.00  0.00    -0.133 A  
HETATM   25  C   UNL     1      -7.446  10.080  70.068  1.00  0.00    -0.181 A  
HETATM   26  C   UNL     1      -7.996   7.808  70.725  1.00  0.00    -0.101 A  
HETATM   27  C   UNL     1      -8.479   8.597  68.508  1.00  0.00    -0.131 A  
BRANCH  26  28
HETATM   28  O   UNL     1      -7.929   6.723  71.578  1.00  0.00    -0.101 OA 
BRANCH  28  29
HETATM   29  C   UNL     1      -8.709   6.917  72.761  1.00  0.00    -0.120 C  
BRANCH  29  30
HETATM   30  C   UNL     1     -10.115   6.302  72.727  1.00  0.00    -0.180 C  
BRANCH  30  31
HETATM   31  N   UNL     1     -11.071   7.206  72.018  1.00  0.00    -0.238 NA 
HETATM   32  C   UNL     1     -12.434   6.647  72.028  1.00  0.00    -0.244 C  
HETATM   33  C   UNL     1     -13.540   7.439  71.330  1.00  0.00    -0.410 C  
HETATM   34  C   UNL     1     -13.938   8.687  72.093  1.00  0.00    -0.496 C  
HETATM   35  C   UNL     1     -13.060   9.893  71.800  1.00  0.00    -0.553 C  
HETATM   36  C   UNL     1     -11.576   9.611  71.598  1.00  0.00    -0.406 C  
HETATM   37  C   UNL     1     -10.970   8.571  72.547  1.00  0.00    -0.253 C  
ENDBRANCH  30  31
ENDBRANCH  29  30
ENDBRANCH  28  29
ENDBRANCH  26  28
ENDBRANCH  21  22
ENDBRANCH   5  21
TORSDOF 7
ENDMDL
MODEL      111
REMARK 921   NORMALIZED FREE ENERGY PREDICTED BY IDOCK:   -4.87 KCAL/MOL
REMARK 922        TOTAL FREE ENERGY PREDICTED BY IDOCK:   -9.92 KCAL/MOL
REMARK 923 INTER-LIGAND FREE ENERGY PREDICTED BY IDOCK:   -8.01 KCAL/MOL
REMARK 924 INTRA-LIGAND FREE ENERGY PREDICTED BY IDOCK:   -1.92 KCAL/MOL
REMARK 927      BINDING AFFINITY PREDICTED BY RF-SCORE:    0.00 PKD
ROOT
HETATM    1  C   UNL     1     -11.138   6.694  67.206  1.00  0.00    -0.418 C  
HETATM    2  C   UNL     1      -9.839   7.193  67.756  1.00  0.00    -0.175 A  
HETATM    3  C   UNL     1      -9.575   8.153  68.743  1.00  0.00    -0.149 A  
HETATM    4  C   UNL     1      -6.024   5.532  67.245  1.00  0.00    -0.022 A  
HETATM    5  N   UNL     1      -8.171   8.162  68.913  1.00  0.00    -0.123 NA 
HETATM    6  O   UNL     1      -6.589   4.235  65.376  1.00  0.00    -0.042 OA 
HETATM    7  C   UNL     1      -7.617   7.089  68.218  1.00  0.00    -0.111 A  
HETATM    8  C   UNL     1      -6.965   5.144  66.319  1.00  0.00    -0.067 A  
HETATM    9  C   UNL     1      -8.599   6.611  67.355  1.00  0.00    -0.119 A  
HETATM   10  H   UNL     1      -5.701   3.898  65.334  1.00  0.00     0.000 HD 
HETATM   11  C   UNL     1      -6.353   6.471  68.223  1.00  0.00    -0.037 A  
HETATM   12  C   UNL     1      -8.262   5.638  66.381  1.00  0.00    -0.107 A  
ENDROOT
BRANCH   3  13
HETATM   13  C   UNL     1     -10.546   9.006  69.489  1.00  0.00    -0.231 A  
HETATM   14  C   UNL     1     -12.268  10.642  71.026  1.00  0.00    -0.393 A  
HETATM   15  H   UNL     1     -13.391  11.103  72.654  1.00  0.00     0.000 HD 
HETATM   16  C   UNL     1     -11.085   8.569  70.711  1.00  0.00    -0.288 A  
HETATM   17  C   UNL     1     -11.908   9.389  71.492  1.00  0.00    -0.456 A  
HETATM   18  O   UNL     1     -13.075  11.409  71.812  1.00  0.00    -0.480 OA 
HETATM   19  C   UNL     1     -10.927  10.285  69.051  1.00  0.00    -0.274 A  
HETATM   20  C   UNL     1     -11.807  11.088  69.795  1.00  0.00    -0.421 A  
ENDBRANCH   3  13
BRANCH   5  21
HETATM   21  C   UNL     1      -7.434   9.177  69.711  1.00  0.00    -0.069 C  
BRANCH  21  22
HETATM   22  C   UNL     1      -7.149  10.506  69.054  1.00  0.00    -0.081 A  
HETATM   23  C   UNL     1      -6.494  12.823  69.256  1.00  0.00    -0.105 A  
HETATM   24  C   UNL     1      -7.402  12.048  67.179  1.00  0.00    -0.134 A  
HETATM   25  C   UNL     1      -6.602  11.548  69.803  1.00  0.00    -0.091 A  
HETATM   26  C   UNL     1      -6.996  13.105  67.981  1.00  0.00    -0.116 A  
HETATM   27  C   UNL     1      -7.390  10.752  67.693  1.00  0.00    -0.094 A  
BRANCH  26  28
HETATM   28  O   UNL     1      -7.144  14.375  67.458  1.00  0.00    -0.180 OA 
BRANCH  28  29
HETATM   29  C   UNL     1      -8.267  15.062  68.016  1.00  0.00    -0.137 C  
BRANCH  29  30
HETATM   30  C   UNL     1      -7.990  16.497  68.487  1.00  0.00    -0.216 C  
BRANCH  30  31
HETATM   31  N   UNL     1      -9.077  17.420  68.039  1.00  0.00    -0.253 NA 
HETATM   32  C   UNL     1      -8.942  18.743  68.672  1.00  0.00    -0.333 C  
HETATM   33  C   UNL     1      -9.984  19.809  68.336  1.00  0.00    -0.549 C  
HETATM   34  C   UNL     1      -9.831  20.356  66.930  1.00  0.00    -0.572 C  
HETATM   35  C   UNL     1     -10.524  19.520  65.866  1.00  0.00    -0.585 C  
HETATM   36  C   UNL     1     -10.480  18.008  66.064  1.00  0.00    -0.317 C  
HETATM   37  C   UNL     1      -9.146  17.451  66.573  1.00  0.00    -0.266 C  
ENDBRANCH  30  31
ENDBRANCH  29  30
ENDBRANCH  28  29
ENDBRANCH  26  28
ENDBRANCH  21  22
ENDBRANCH   5  21
TORSDOF 7
ENDMDL
MODEL      112
REMARK 921   NORMALIZED FREE ENERGY PREDICTED BY IDOCK:   -4.85 KCAL/MOL
REMARK 922        TOTAL FREE ENERGY PREDICTED BY IDOCK:   -9.90 KCAL/MOL
REMARK 923 INTER-LIGAND FREE ENERGY PREDICTED BY IDOCK:   -7.39 KCAL/MOL
REMARK 924 INTRA-LIGAND FREE ENERGY PREDICTED BY IDOCK:   -2.51 KCAL/MOL
REMARK 927      BINDING AFFINITY PREDICTED BY RF-SCORE:    0.00 PKD
ROOT
HETATM    1  C   UNL     1     -11.551  12.151  64.878  1.00  0.00    -0.371 C  
HETATM    2  C   UNL     1     -10.651  12.183  66.073  1.00  0.00    -0.292 A  
HETATM    3  C   UNL     1      -9.521  11.413  66.384  1.00  0.00    -0.204 A  
HETATM    4  C   UNL     1     -10.435  15.124  69.052  1.00  0.00    -0.248 A  
HETATM    5  N   UNL     1      -9.022  11.930  67.602  1.00  0.00    -0.163 NA 
HETATM    6  O   UNL     1     -12.528  16.074  68.587  1.00  0.00    -0.254 OA 
HETATM    7  C   UNL     1      -9.689  13.113  67.909  1.00  0.00    -0.221 A  
HETATM    8  C   UNL     1     -11.599  15.113  68.317  1.00  0.00    -0.339 A  
HETATM    9  C   UNL     1     -10.813  13.172  67.089  1.00  0.00    -0.271 A  
HETATM   10  H   UNL     1     -12.398  16.714  69.276  1.00  0.00     0.000 HD 
HETATM   11  C   UNL     1      -9.457  14.155  68.826  1.00  0.00    -0.102 A  
HETATM   12  C   UNL     1     -11.789  14.177  67.309  1.00  0.00    -0.452 A  
ENDROOT
BRANCH   3  13
HETATM   13  C   UNL     1      -8.930  10.281  65.613  1.00  0.00    -0.198 A  
HETATM   14  C   UNL     1      -7.969   8.084  64.110  1.00  0.00    -0.137 A  
HETATM   15  H   UNL     1      -7.718   6.112  63.700  1.00  0.00     0.000 HD 
HETATM   16  C   UNL     1      -9.103   8.956  66.047  1.00  0.00    -0.265 A  
HETATM   17  C   UNL     1      -8.661   7.865  65.289  1.00  0.00    -0.032 A  
HETATM   18  O   UNL     1      -7.550   6.999  63.403  1.00  0.00    -0.091 OA 
HETATM   19  C   UNL     1      -8.231  10.466  64.408  1.00  0.00    -0.125 A  
HETATM   20  C   UNL     1      -7.723   9.380  63.676  1.00  0.00    -0.123 A  
ENDBRANCH   3  13
BRANCH   5  21
HETATM   21  C   UNL     1      -7.954  11.279  68.408  1.00  0.00    -0.140 C  
BRANCH  21  22
HETATM   22  C   UNL     1      -8.373  10.203  69.380  1.00  0.00    -0.174 A  
HETATM   23  C   UNL     1     -10.050   9.269  70.848  1.00  0.00    -0.373 A  
HETATM   24  C   UNL     1      -7.808   8.431  70.961  1.00  0.00    -0.106 A  
HETATM   25  C   UNL     1      -9.692  10.145  69.826  1.00  0.00    -0.232 A  
HETATM   26  C   UNL     1      -9.087   8.488  71.497  1.00  0.00    -0.216 A  
HETATM   27  C   UNL     1      -7.491   9.221  69.857  1.00  0.00    -0.085 A  
BRANCH  26  28
HETATM   28  O   UNL     1      -9.307   7.777  72.660  1.00  0.00    -0.155 OA 
BRANCH  28  29
HETATM   29  C   UNL     1     -10.436   6.906  72.555  1.00  0.00    -0.214 C  
BRANCH  29  30
HETATM   30  C   UNL     1     -10.160   5.550  71.889  1.00  0.00    -0.189 C  
BRANCH  30  31
HETATM   31  N   UNL     1      -9.876   5.725  70.433  1.00  0.00    -0.178 NA 
HETATM   32  C   UNL     1      -9.081   4.600  69.910  1.00  0.00    -0.106 C  
HETATM   33  C   UNL     1      -8.685   4.624  68.435  1.00  0.00    -0.111 C  
HETATM   34  C   UNL     1      -9.856   4.357  67.509  1.00  0.00    -0.180 C  
HETATM   35  C   UNL     1     -10.676   5.595  67.182  1.00  0.00    -0.316 C  
HETATM   36  C   UNL     1     -10.864   6.596  68.316  1.00  0.00    -0.322 C  
HETATM   37  C   UNL     1     -11.120   5.983  69.698  1.00  0.00    -0.404 C  
ENDBRANCH  30  31
ENDBRANCH  29  30
ENDBRANCH  28  29
ENDBRANCH  26  28
ENDBRANCH  21  22
ENDBRANCH   5  21
TORSDOF 7
ENDMDL
MODEL      113
REMARK 921   NORMALIZED FREE ENERGY PREDICTED BY IDOCK:   -4.80 KCAL/MOL
REMARK 922        TOTAL FREE ENERGY PREDICTED BY IDOCK:   -9.82 KCAL/MOL
REMARK 923 INTER-LIGAND FREE ENERGY PREDICTED BY IDOCK:   -8.87 KCAL/MOL
REMARK 924 INTRA-LIGAND FREE ENERGY PREDICTED BY IDOCK:   -0.96 KCAL/MOL
REMARK 927      BINDING AFFINITY PREDICTED BY RF-SCORE:    0.00 PKD
ROOT
HETATM    1  C   UNL     1     -11.435  16.367  64.472  1.00  0.00    -0.074 C  
HETATM    2  C   UNL     1     -10.673  15.254  65.120  1.00  0.00    -0.455 A  
HETATM    3  C   UNL     1      -9.759  15.273  66.183  1.00  0.00    -0.314 A  
HETATM    4  C   UNL     1     -11.281  11.129  64.689  1.00  0.00    -0.052 A  
HETATM    5  N   UNL     1      -9.414  13.923  66.425  1.00  0.00    -0.274 NA 
HETATM    6  O   UNL     1     -12.525  11.288  62.708  1.00  0.00    -0.905 OA 
HETATM    7  C   UNL     1     -10.255  13.094  65.686  1.00  0.00    -0.286 A  
HETATM    8  C   UNL     1     -11.817  11.911  63.692  1.00  0.00    -0.473 A  
HETATM    9  C   UNL     1     -10.892  13.895  64.743  1.00  0.00    -0.430 A  
HETATM   10  H   UNL     1     -12.625  10.343  62.688  1.00  0.00     0.000 HD 
HETATM   11  C   UNL     1     -10.536  11.715  65.712  1.00  0.00    -0.308 A  
HETATM   12  C   UNL     1     -11.670  13.293  63.722  1.00  0.00    -0.475 A  
ENDROOT
BRANCH   3  13
HETATM   13  C   UNL     1      -9.239  16.451  66.937  1.00  0.00    -0.237 A  
HETATM   14  C   UNL     1      -8.283  18.782  68.227  1.00  0.00    -0.325 A  
HETATM   15  H   UNL     1      -7.008  20.339  68.493  1.00  0.00     0.000 HD 
HETATM   16  C   UNL     1      -8.035  17.067  66.555  1.00  0.00    -0.330 A  
HETATM   17  C   UNL     1      -7.577  18.240  67.166  1.00  0.00    -0.227 A  
HETATM   18  O   UNL     1      -7.803  19.920  68.800  1.00  0.00    -0.263 OA 
HETATM   19  C   UNL     1      -9.934  17.032  68.011  1.00  0.00    -0.283 A  
HETATM   20  C   UNL     1      -9.446  18.170  68.676  1.00  0.00    -0.328 A  
ENDBRANCH   3  13
BRANCH   5  21
HETATM   21  C   UNL     1      -8.314  13.493  67.328  1.00  0.00    -0.179 C  
BRANCH  21  22
HETATM   22  C   UNL     1      -8.087  12.010  67.492  1.00  0.00    -0.159 A  
HETATM   23  C   UNL     1      -8.463   9.978  68.744  1.00  0.00    -0.126 A  
HETATM   24  C   UNL     1      -6.787   9.995  67.032  1.00  0.00    -0.087 A  
HETATM   25  C   UNL     1      -8.787  11.303  68.469  1.00  0.00    -0.159 A  
HETATM   26  C   UNL     1      -7.388   9.352  68.105  1.00  0.00    -0.078 A  
HETATM   27  C   UNL     1      -7.203  11.279  66.682  1.00  0.00    -0.126 A  
BRANCH  26  28
HETATM   28  O   UNL     1      -6.853   8.134  68.478  1.00  0.00    -0.064 OA 
BRANCH  28  29
HETATM   29  C   UNL     1      -7.810   7.074  68.392  1.00  0.00    -0.122 C  
BRANCH  29  30
HETATM   30  C   UNL     1      -7.760   6.052  69.536  1.00  0.00    -0.098 C  
BRANCH  30  31
HETATM   31  N   UNL     1      -9.118   5.854  70.129  1.00  0.00    -0.144 NA 
HETATM   32  C   UNL     1      -9.086   4.845  71.202  1.00  0.00    -0.141 C  
HETATM   33  C   UNL     1     -10.397   4.508  71.909  1.00  0.00    -0.198 C  
HETATM   34  C   UNL     1     -10.870   5.616  72.830  1.00  0.00    -0.303 C  
HETATM   35  C   UNL     1     -11.672   6.699  72.126  1.00  0.00    -0.342 C  
HETATM   36  C   UNL     1     -11.212   7.071  70.721  1.00  0.00    -0.323 C  
HETATM   37  C   UNL     1      -9.693   7.145  70.526  1.00  0.00    -0.176 C  
ENDBRANCH  30  31
ENDBRANCH  29  30
ENDBRANCH  28  29
ENDBRANCH  26  28
ENDBRANCH  21  22
ENDBRANCH   5  21
TORSDOF 7
ENDMDL
MODEL      114
REMARK 921   NORMALIZED FREE ENERGY PREDICTED BY IDOCK:   -4.78 KCAL/MOL
REMARK 922        TOTAL FREE ENERGY PREDICTED BY IDOCK:   -9.80 KCAL/MOL
REMARK 923 INTER-LIGAND FREE ENERGY PREDICTED BY IDOCK:   -7.60 KCAL/MOL
REMARK 924 INTRA-LIGAND FREE ENERGY PREDICTED BY IDOCK:   -2.20 KCAL/MOL
REMARK 927      BINDING AFFINITY PREDICTED BY RF-SCORE:    0.00 PKD
ROOT
HETATM    1  C   UNL     1      -9.777  14.446  68.489  1.00  0.00    -0.225 C  
HETATM    2  C   UNL     1     -10.114  13.452  67.422  1.00  0.00    -0.237 A  
HETATM    3  C   UNL     1     -10.130  12.050  67.455  1.00  0.00    -0.194 A  
HETATM    4  C   UNL     1     -11.975  14.168  63.735  1.00  0.00    -0.156 A  
HETATM    5  N   UNL     1     -10.602  11.637  66.188  1.00  0.00    -0.253 NA 
HETATM    6  O   UNL     1     -11.552  16.473  63.710  1.00  0.00    -1.617 OA 
HETATM    7  C   UNL     1     -11.068  12.746  65.485  1.00  0.00    -0.285 A  
HETATM    8  C   UNL     1     -11.409  15.270  64.334  1.00  0.00    -0.215 A  
HETATM    9  C   UNL     1     -10.597  13.876  66.148  1.00  0.00    -0.291 A  
HETATM   10  H   UNL     1     -11.999  16.553  62.875  1.00  0.00     0.000 HD 
HETATM   11  C   UNL     1     -11.846  12.909  64.324  1.00  0.00    -0.457 A  
HETATM   12  C   UNL     1     -10.756  15.153  65.554  1.00  0.00    -0.379 A  
ENDROOT
BRANCH   3  13
HETATM   13  C   UNL     1      -9.746  11.145  68.577  1.00  0.00    -0.196 A  
HETATM   14  C   UNL     1      -8.946   9.564  70.784  1.00  0.00    -0.087 A  
HETATM   15  H   UNL     1      -7.592   8.685  72.016  1.00  0.00     0.000 HD 
HETATM   16  C   UNL     1      -8.394  10.849  68.824  1.00  0.00    -0.151 A  
HETATM   17  C   UNL     1      -7.992  10.098  69.934  1.00  0.00    -0.149 A  
HETATM   18  O   UNL     1      -8.516   8.834  71.850  1.00  0.00    -0.293 OA 
HETATM   19  C   UNL     1     -10.687  10.594  69.464  1.00  0.00    -0.290 A  
HETATM   20  C   UNL     1     -10.296   9.781  70.541  1.00  0.00    -0.348 A  
ENDBRANCH   3  13
BRANCH   5  21
HETATM   21  C   UNL     1     -10.581  10.229  65.709  1.00  0.00     0.006 C  
BRANCH  21  22
HETATM   22  C   UNL     1      -9.384   9.785  64.904  1.00  0.00    -0.327 A  
HETATM   23  C   UNL     1      -8.444   9.107  62.784  1.00  0.00    -0.211 A  
HETATM   24  C   UNL     1      -7.153   8.801  64.778  1.00  0.00    -0.077 A  
HETATM   25  C   UNL     1      -9.481   9.677  63.517  1.00  0.00     0.143 A  
HETATM   26  C   UNL     1      -7.323   8.565  63.421  1.00  0.00    -0.103 A  
HETATM   27  C   UNL     1      -8.142   9.484  65.485  1.00  0.00    -0.116 A  
BRANCH  26  28
HETATM   28  O   UNL     1      -6.369   7.781  62.803  1.00  0.00    -0.070 OA 
BRANCH  28  29
HETATM   29  C   UNL     1      -6.716   6.393  62.822  1.00  0.00    -0.038 C  
BRANCH  29  30
HETATM   30  C   UNL     1      -6.196   5.605  64.033  1.00  0.00    -0.025 C  
BRANCH  30  31
HETATM   31  N   UNL     1      -7.317   4.895  64.723  1.00  0.00    -0.063 NA 
HETATM   32  C   UNL     1      -7.436   5.332  66.125  1.00  0.00    -0.083 C  
HETATM   33  C   UNL     1      -8.525   4.695  66.985  1.00  0.00    -0.105 C  
HETATM   34  C   UNL     1      -9.918   5.167  66.615  1.00  0.00    -0.235 C  
HETATM   35  C   UNL     1     -10.545   4.394  65.466  1.00  0.00    -0.193 C  
HETATM   36  C   UNL     1      -9.601   3.972  64.345  1.00  0.00    -0.170 C  
HETATM   37  C   UNL     1      -8.553   5.015  63.941  1.00  0.00    -0.113 C  
ENDBRANCH  30  31
ENDBRANCH  29  30
ENDBRANCH  28  29
ENDBRANCH  26  28
ENDBRANCH  21  22
ENDBRANCH   5  21
TORSDOF 7
ENDMDL
MODEL      115
REMARK 921   NORMALIZED FREE ENERGY PREDICTED BY IDOCK:   -4.75 KCAL/MOL
REMARK 922        TOTAL FREE ENERGY PREDICTED BY IDOCK:   -9.75 KCAL/MOL
REMARK 923 INTER-LIGAND FREE ENERGY PREDICTED BY IDOCK:   -7.59 KCAL/MOL
REMARK 924 INTRA-LIGAND FREE ENERGY PREDICTED BY IDOCK:   -2.16 KCAL/MOL
REMARK 927      BINDING AFFINITY PREDICTED BY RF-SCORE:    0.00 PKD
ROOT
HETATM    1  C   UNL     1      -7.195   8.665  71.262  1.00  0.00    -0.093 C  
HETATM    2  C   UNL     1      -8.101   8.420  70.096  1.00  0.00    -0.108 A  
HETATM    3  C   UNL     1      -8.293   9.160  68.920  1.00  0.00    -0.124 A  
HETATM    4  C   UNL     1     -10.213   4.920  69.170  1.00  0.00    -0.186 A  
HETATM    5  N   UNL     1      -9.209   8.418  68.139  1.00  0.00    -0.138 NA 
HETATM    6  O   UNL     1     -10.068   3.991  71.317  1.00  0.00    -0.163 OA 
HETATM    7  C   UNL     1      -9.398   7.165  68.717  1.00  0.00    -0.135 A  
HETATM    8  C   UNL     1      -9.802   5.032  70.478  1.00  0.00    -0.219 A  
HETATM    9  C   UNL     1      -8.881   7.229  70.008  1.00  0.00    -0.141 A  
HETATM   10  H   UNL     1     -10.546   3.224  71.025  1.00  0.00     0.000 HD 
HETATM   11  C   UNL     1      -9.978   5.962  68.272  1.00  0.00    -0.177 A  
HETATM   12  C   UNL     1      -9.102   6.153  70.905  1.00  0.00    -0.155 A  
ENDROOT
BRANCH   3  13
HETATM   13  C   UNL     1      -7.672  10.459  68.531  1.00  0.00    -0.101 A  
HETATM   14  C   UNL     1      -6.546  12.895  67.632  1.00  0.00    -0.155 A  
HETATM   15  H   UNL     1      -5.257  14.031  66.551  1.00  0.00     0.000 HD 
HETATM   16  C   UNL     1      -6.545  10.488  67.691  1.00  0.00    -0.065 A  
HETATM   17  C   UNL     1      -6.008  11.690  67.214  1.00  0.00    -0.112 A  
HETATM   18  O   UNL     1      -5.992  14.043  67.152  1.00  0.00    -0.201 OA 
HETATM   19  C   UNL     1      -8.197  11.701  68.928  1.00  0.00     0.017 A  
HETATM   20  C   UNL     1      -7.621  12.912  68.511  1.00  0.00    -0.120 A  
ENDBRANCH   3  13
BRANCH   5  21
HETATM   21  C   UNL     1      -9.857   8.931  66.903  1.00  0.00    -0.223 C  
BRANCH  21  22
HETATM   22  C   UNL     1     -10.583  10.251  66.993  1.00  0.00    -0.302 A  
HETATM   23  C   UNL     1     -10.866  12.522  66.218  1.00  0.00    -0.299 A  
HETATM   24  C   UNL     1     -11.965  11.836  68.232  1.00  0.00    -0.236 A  
HETATM   25  C   UNL     1     -10.335  11.247  66.049  1.00  0.00    -0.302 A  
HETATM   26  C   UNL     1     -11.591  12.854  67.367  1.00  0.00    -0.360 A  
HETATM   27  C   UNL     1     -11.532  10.534  67.988  1.00  0.00    -0.230 A  
BRANCH  26  28
HETATM   28  O   UNL     1     -11.949  14.139  67.727  1.00  0.00    -0.366 OA 
BRANCH  28  29
HETATM   29  C   UNL     1     -11.035  14.711  68.667  1.00  0.00    -0.256 C  
BRANCH  29  30
HETATM   30  C   UNL     1     -11.377  16.134  69.130  1.00  0.00    -0.323 C  
BRANCH  30  31
HETATM   31  N   UNL     1     -12.027  16.111  70.475  1.00  0.00    -0.223 NA 
HETATM   32  C   UNL     1     -13.124  15.128  70.516  1.00  0.00    -0.277 C  
HETATM   33  C   UNL     1     -13.911  14.984  71.818  1.00  0.00    -0.576 C  
HETATM   34  C   UNL     1     -13.117  14.293  72.910  1.00  0.00    -0.589 C  
HETATM   35  C   UNL     1     -12.218  15.228  73.702  1.00  0.00    -0.662 C  
HETATM   36  C   UNL     1     -11.542  16.342  72.910  1.00  0.00    -0.163 C  
HETATM   37  C   UNL     1     -11.018  15.939  71.526  1.00  0.00     0.169 C  
ENDBRANCH  30  31
ENDBRANCH  29  30
ENDBRANCH  28  29
ENDBRANCH  26  28
ENDBRANCH  21  22
ENDBRANCH   5  21
TORSDOF 7
ENDMDL
MODEL      116
REMARK 921   NORMALIZED FREE ENERGY PREDICTED BY IDOCK:   -4.74 KCAL/MOL
REMARK 922        TOTAL FREE ENERGY PREDICTED BY IDOCK:   -9.75 KCAL/MOL
REMARK 923 INTER-LIGAND FREE ENERGY PREDICTED BY IDOCK:   -8.72 KCAL/MOL
REMARK 924 INTRA-LIGAND FREE ENERGY PREDICTED BY IDOCK:   -1.03 KCAL/MOL
REMARK 927      BINDING AFFINITY PREDICTED BY RF-SCORE:    0.00 PKD
ROOT
HETATM    1  C   UNL     1      -8.260   7.012  67.219  1.00  0.00    -0.119 C  
HETATM    2  C   UNL     1      -9.164   8.199  67.100  1.00  0.00    -0.175 A  
HETATM    3  C   UNL     1      -9.944   8.850  68.066  1.00  0.00    -0.178 A  
HETATM    4  C   UNL     1      -9.451  10.904  63.912  1.00  0.00    -0.295 A  
HETATM    5  N   UNL     1     -10.530   9.957  67.411  1.00  0.00    -0.250 NA 
HETATM    6  O   UNL     1      -8.404   9.516  62.340  1.00  0.00    -0.132 OA 
HETATM    7  C   UNL     1      -9.953  10.106  66.152  1.00  0.00    -0.246 A  
HETATM    8  C   UNL     1      -8.870   9.695  63.608  1.00  0.00    -0.232 A  
HETATM    9  C   UNL     1      -9.264   8.929  65.878  1.00  0.00    -0.290 A  
HETATM   10  H   UNL     1      -8.501  10.186  61.674  1.00  0.00     0.000 HD 
HETATM   11  C   UNL     1      -9.957  11.135  65.192  1.00  0.00    -0.323 A  
HETATM   12  C   UNL     1      -8.730   8.714  64.582  1.00  0.00    -0.065 A  
ENDROOT
BRANCH   3  13
HETATM   13  C   UNL     1     -10.137   8.487  69.501  1.00  0.00    -0.200 A  
HETATM   14  C   UNL     1     -10.560   7.958  72.248  1.00  0.00    -0.271 A  
HETATM   15  H   UNL     1     -10.227   8.203  74.236  1.00  0.00     0.000 HD 
HETATM   16  C   UNL     1      -9.345   9.081  70.499  1.00  0.00    -0.262 A  
HETATM   17  C   UNL     1      -9.575   8.850  71.861  1.00  0.00    -0.326 A  
HETATM   18  O   UNL     1     -10.750   7.755  73.582  1.00  0.00    -0.241 OA 
HETATM   19  C   UNL     1     -11.132   7.593  69.931  1.00  0.00    -0.160 A  
HETATM   20  C   UNL     1     -11.324   7.303  71.292  1.00  0.00    -0.290 A  
ENDBRANCH   3  13
BRANCH   5  21
HETATM   21  C   UNL     1     -11.600  10.805  68.002  1.00  0.00    -0.163 C  
BRANCH  21  22
HETATM   22  C   UNL     1     -11.589  12.276  67.666  1.00  0.00    -0.421 A  
HETATM   23  C   UNL     1     -12.141  14.060  66.132  1.00  0.00    -0.471 A  
HETATM   24  C   UNL     1     -10.670  14.518  67.966  1.00  0.00    -0.243 A  
HETATM   25  C   UNL     1     -12.283  12.740  66.549  1.00  0.00    -0.198 A  
HETATM   26  C   UNL     1     -11.248  14.925  66.772  1.00  0.00    -0.338 A  
HETATM   27  C   UNL     1     -10.917  13.232  68.445  1.00  0.00    -0.289 A  
BRANCH  26  28
HETATM   28  O   UNL     1     -10.871  16.164  66.290  1.00  0.00    -0.257 OA 
BRANCH  28  29
HETATM   29  C   UNL     1      -9.819  16.747  67.063  1.00  0.00    -0.262 C  
BRANCH  29  30
HETATM   30  C   UNL     1      -9.423  18.175  66.660  1.00  0.00    -0.302 C  
BRANCH  30  31
HETATM   31  N   UNL     1      -8.055  18.507  67.163  1.00  0.00    -0.240 NA 
HETATM   32  C   UNL     1      -8.121  19.179  68.472  1.00  0.00    -0.359 C  
HETATM   33  C   UNL     1      -6.808  19.604  69.128  1.00  0.00    -0.383 C  
HETATM   34  C   UNL     1      -6.010  18.429  69.660  1.00  0.00    -0.261 C  
HETATM   35  C   UNL     1      -5.129  17.761  68.616  1.00  0.00    -0.152 C  
HETATM   36  C   UNL     1      -5.709  17.666  67.209  1.00  0.00    -0.157 C  
HETATM   37  C   UNL     1      -7.199  17.315  67.134  1.00  0.00    -0.172 C  
ENDBRANCH  30  31
ENDBRANCH  29  30
ENDBRANCH  28  29
ENDBRANCH  26  28
ENDBRANCH  21  22
ENDBRANCH   5  21
TORSDOF 7
ENDMDL
MODEL      117
REMARK 921   NORMALIZED FREE ENERGY PREDICTED BY IDOCK:   -4.74 KCAL/MOL
REMARK 922        TOTAL FREE ENERGY PREDICTED BY IDOCK:   -9.74 KCAL/MOL
REMARK 923 INTER-LIGAND FREE ENERGY PREDICTED BY IDOCK:   -7.51 KCAL/MOL
REMARK 924 INTRA-LIGAND FREE ENERGY PREDICTED BY IDOCK:   -2.23 KCAL/MOL
REMARK 927      BINDING AFFINITY PREDICTED BY RF-SCORE:    0.00 PKD
ROOT
HETATM    1  C   UNL     1      -7.943   9.250  71.041  1.00  0.00    -0.115 C  
HETATM    2  C   UNL     1      -8.355   8.979  69.628  1.00  0.00    -0.125 A  
HETATM    3  C   UNL     1      -8.096   9.694  68.450  1.00  0.00    -0.104 A  
HETATM    4  C   UNL     1      -9.988   5.453  68.056  1.00  0.00    -0.199 A  
HETATM    5  N   UNL     1      -8.662   8.934  67.401  1.00  0.00    -0.125 NA 
HETATM    6  O   UNL     1     -10.650   4.567  70.123  1.00  0.00     0.120 OA 
HETATM    7  C   UNL     1      -9.055   7.692  67.892  1.00  0.00    -0.134 A  
HETATM    8  C   UNL     1     -10.089   5.592  69.421  1.00  0.00    -0.223 A  
HETATM    9  C   UNL     1      -9.052   7.783  69.281  1.00  0.00    -0.145 A  
HETATM   10  H   UNL     1     -10.990   3.793  69.689  1.00  0.00     0.000 HD 
HETATM   11  C   UNL     1      -9.434   6.478  67.288  1.00  0.00    -0.140 A  
HETATM   12  C   UNL     1      -9.593   6.724  70.054  1.00  0.00    -0.160 A  
ENDROOT
BRANCH   3  13
HETATM   13  C   UNL     1      -7.371  10.989  68.293  1.00  0.00    -0.088 A  
HETATM   14  C   UNL     1      -5.986  13.412  67.825  1.00  0.00    -0.139 A  
HETATM   15  H   UNL     1      -4.390  14.533  67.261  1.00  0.00     0.000 HD 
HETATM   16  C   UNL     1      -6.019  11.006  67.908  1.00  0.00    -0.046 A  
HETATM   17  C   UNL     1      -5.341  12.201  67.640  1.00  0.00    -0.091 A  
HETATM   18  O   UNL     1      -5.292  14.553  67.561  1.00  0.00    -0.339 OA 
HETATM   19  C   UNL     1      -7.996  12.235  68.463  1.00  0.00    -0.107 A  
HETATM   20  C   UNL     1      -7.303  13.441  68.264  1.00  0.00    -0.113 A  
ENDBRANCH   3  13
BRANCH   5  21
HETATM   21  C   UNL     1      -8.805   9.421  66.002  1.00  0.00    -0.156 C  
BRANCH  21  22
HETATM   22  C   UNL     1      -9.788  10.538  65.751  1.00  0.00    -0.295 A  
HETATM   23  C   UNL     1     -10.583  12.322  64.329  1.00  0.00    -0.387 A  
HETATM   24  C   UNL     1     -11.409  12.168  66.573  1.00  0.00    -0.405 A  
HETATM   25  C   UNL     1      -9.805  11.183  64.515  1.00  0.00    -0.330 A  
HETATM   26  C   UNL     1     -11.303  12.884  65.389  1.00  0.00    -0.303 A  
HETATM   27  C   UNL     1     -10.724  10.962  66.708  1.00  0.00    -0.309 A  
BRANCH  26  28
HETATM   28  O   UNL     1     -11.905  14.127  65.358  1.00  0.00    -0.338 OA 
BRANCH  28  29
HETATM   29  C   UNL     1     -11.163  15.068  64.577  1.00  0.00    -0.265 C  
BRANCH  29  30
HETATM   30  C   UNL     1     -11.411  16.544  64.919  1.00  0.00    -0.031 C  
BRANCH  30  31
HETATM   31  N   UNL     1     -10.156  17.191  65.409  1.00  0.00    -0.530 NA 
HETATM   32  C   UNL     1     -10.415  18.564  65.874  1.00  0.00    -0.347 C  
HETATM   33  C   UNL     1      -9.234  19.380  66.396  1.00  0.00    -0.403 C  
HETATM   34  C   UNL     1      -8.746  18.907  67.751  1.00  0.00    -0.318 C  
HETATM   35  C   UNL     1      -7.759  17.753  67.681  1.00  0.00    -0.212 C  
HETATM   36  C   UNL     1      -8.019  16.710  66.600  1.00  0.00    -0.315 C  
HETATM   37  C   UNL     1      -9.490  16.331  66.394  1.00  0.00    -0.294 C  
ENDBRANCH  30  31
ENDBRANCH  29  30
ENDBRANCH  28  29
ENDBRANCH  26  28
ENDBRANCH  21  22
ENDBRANCH   5  21
TORSDOF 7
ENDMDL
MODEL      118
REMARK 921   NORMALIZED FREE ENERGY PREDICTED BY IDOCK:   -4.72 KCAL/MOL
REMARK 922        TOTAL FREE ENERGY PREDICTED BY IDOCK:   -9.72 KCAL/MOL
REMARK 923 INTER-LIGAND FREE ENERGY PREDICTED BY IDOCK:   -7.13 KCAL/MOL
REMARK 924 INTRA-LIGAND FREE ENERGY PREDICTED BY IDOCK:   -2.59 KCAL/MOL
REMARK 927      BINDING AFFINITY PREDICTED BY RF-SCORE:    0.00 PKD
ROOT
HETATM    1  C   UNL     1     -12.916  11.854  72.045  1.00  0.00    -0.370 C  
HETATM    2  C   UNL     1     -12.182  11.478  70.796  1.00  0.00    -0.463 A  
HETATM    3  C   UNL     1     -11.706  10.234  70.358  1.00  0.00    -0.319 A  
HETATM    4  C   UNL     1     -11.657  13.777  67.331  1.00  0.00    -0.393 A  
HETATM    5  N   UNL     1     -11.164  10.455  69.071  1.00  0.00    -0.238 NA 
HETATM    6  O   UNL     1     -12.169  15.830  68.339  1.00  0.00    -0.436 OA 
HETATM    7  C   UNL     1     -11.498  11.739  68.646  1.00  0.00    -0.288 A  
HETATM    8  C   UNL     1     -11.992  14.484  68.462  1.00  0.00    -0.286 A  
HETATM    9  C   UNL     1     -11.948  12.435  69.764  1.00  0.00    -0.359 A  
HETATM   10  H   UNL     1     -12.040  16.277  67.511  1.00  0.00     0.000 HD 
HETATM   11  C   UNL     1     -11.450  12.399  67.404  1.00  0.00    -0.418 A  
HETATM   12  C   UNL     1     -12.181  13.831  69.673  1.00  0.00    -0.359 A  
ENDROOT
BRANCH   3  13
HETATM   13  C   UNL     1     -11.750   8.923  71.069  1.00  0.00    -0.340 A  
HETATM   14  C   UNL     1     -11.879   6.521  72.560  1.00  0.00    -0.123 A  
HETATM   15  H   UNL     1     -11.304   5.238  74.025  1.00  0.00     0.000 HD 
HETATM   16  C   UNL     1     -10.816   8.627  72.078  1.00  0.00    -0.430 A  
HETATM   17  C   UNL     1     -10.899   7.457  72.842  1.00  0.00    -0.402 A  
HETATM   18  O   UNL     1     -11.923   5.392  73.321  1.00  0.00    -0.000 OA 
HETATM   19  C   UNL     1     -12.735   7.954  70.815  1.00  0.00     0.161 A  
HETATM   20  C   UNL     1     -12.783   6.746  71.531  1.00  0.00    -0.341 A  
ENDBRANCH   3  13
BRANCH   5  21
HETATM   21  C   UNL     1     -10.361   9.453  68.321  1.00  0.00    -0.212 C  
BRANCH  21  22
HETATM   22  C   UNL     1      -9.189   8.824  69.034  1.00  0.00    -0.141 A  
HETATM   23  C   UNL     1      -7.100   9.080  70.221  1.00  0.00    -0.055 A  
HETATM   24  C   UNL     1      -7.753   6.899  69.475  1.00  0.00    -0.104 A  
HETATM   25  C   UNL     1      -8.272   9.629  69.708  1.00  0.00    -0.168 A  
HETATM   26  C   UNL     1      -6.782   7.734  70.010  1.00  0.00    -0.045 A  
HETATM   27  C   UNL     1      -8.976   7.437  69.076  1.00  0.00    -0.131 A  
BRANCH  26  28
HETATM   28  O   UNL     1      -5.551   7.166  70.274  1.00  0.00    -0.023 OA 
BRANCH  28  29
HETATM   29  C   UNL     1      -5.516   6.524  71.551  1.00  0.00    -0.027 C  
BRANCH  29  30
HETATM   30  C   UNL     1      -5.198   5.022  71.521  1.00  0.00    -0.004 C  
BRANCH  30  31
HETATM   31  N   UNL     1      -6.455   4.216  71.463  1.00  0.00    -0.018 NA 
HETATM   32  C   UNL     1      -7.571   4.928  72.109  1.00  0.00    -0.089 C  
HETATM   33  C   UNL     1      -8.933   4.239  72.154  1.00  0.00    -0.142 C  
HETATM   34  C   UNL     1      -9.614   4.196  70.799  1.00  0.00    -0.260 C  
HETATM   35  C   UNL     1      -9.187   3.023  69.932  1.00  0.00    -0.225 C  
HETATM   36  C   UNL     1      -7.717   2.625  70.017  1.00  0.00    -0.045 C  
HETATM   37  C   UNL     1      -6.724   3.790  70.084  1.00  0.00    -0.033 C  
ENDBRANCH  30  31
ENDBRANCH  29  30
ENDBRANCH  28  29
ENDBRANCH  26  28
ENDBRANCH  21  22
ENDBRANCH   5  21
TORSDOF 7
ENDMDL
MODEL      119
REMARK 921   NORMALIZED FREE ENERGY PREDICTED BY IDOCK:   -4.71 KCAL/MOL
REMARK 922        TOTAL FREE ENERGY PREDICTED BY IDOCK:   -9.71 KCAL/MOL
REMARK 923 INTER-LIGAND FREE ENERGY PREDICTED BY IDOCK:   -8.28 KCAL/MOL
REMARK 924 INTRA-LIGAND FREE ENERGY PREDICTED BY IDOCK:   -1.43 KCAL/MOL
REMARK 927      BINDING AFFINITY PREDICTED BY RF-SCORE:    0.00 PKD
ROOT
HETATM    1  C   UNL     1     -11.402  15.616  70.792  1.00  0.00    -0.400 C  
HETATM    2  C   UNL     1     -11.423  14.528  69.765  1.00  0.00    -0.327 A  
HETATM    3  C   UNL     1     -10.885  14.486  68.471  1.00  0.00    -0.249 A  
HETATM    4  C   UNL     1     -12.491  10.510  70.297  1.00  0.00    -0.345 A  
HETATM    5  N   UNL     1     -11.136  13.181  67.987  1.00  0.00    -0.252 NA 
HETATM    6  O   UNL     1     -13.645  10.846  72.310  1.00  0.00    -0.546 OA 
HETATM    7  C   UNL     1     -11.610  12.387  69.029  1.00  0.00    -0.311 A  
HETATM    8  C   UNL     1     -12.949  11.375  71.264  1.00  0.00    -0.316 A  
HETATM    9  C   UNL     1     -11.972  13.245  70.064  1.00  0.00    -0.399 A  
HETATM   10  H   UNL     1     -13.839   9.917  72.362  1.00  0.00     0.000 HD 
HETATM   11  C   UNL     1     -11.785  11.001  69.199  1.00  0.00    -0.403 A  
HETATM   12  C   UNL     1     -12.666  12.733  71.189  1.00  0.00    -0.355 A  
ENDROOT
BRANCH   3  13
HETATM   13  C   UNL     1     -10.180  15.568  67.725  1.00  0.00    -0.243 A  
HETATM   14  C   UNL     1      -8.824  17.706  66.459  1.00  0.00    -0.263 A  
HETATM   15  H   UNL     1      -8.603  19.627  65.838  1.00  0.00     0.000 HD 
HETATM   16  C   UNL     1     -10.769  16.836  67.580  1.00  0.00    -0.275 A  
HETATM   17  C   UNL     1     -10.088  17.906  66.987  1.00  0.00    -0.340 A  
HETATM   18  O   UNL     1      -8.196  18.769  65.884  1.00  0.00    -0.488 OA 
HETATM   19  C   UNL     1      -8.893  15.404  67.184  1.00  0.00    -0.234 A  
HETATM   20  C   UNL     1      -8.230  16.453  66.525  1.00  0.00    -0.341 A  
ENDBRANCH   3  13
BRANCH   5  21
HETATM   21  C   UNL     1     -10.923  12.759  66.577  1.00  0.00    -0.262 C  
BRANCH  21  22
HETATM   22  C   UNL     1      -9.886  11.693  66.318  1.00  0.00    -0.245 A  
HETATM   23  C   UNL     1      -9.347   9.460  65.568  1.00  0.00    -0.315 A  
HETATM   24  C   UNL     1      -7.676  10.736  66.717  1.00  0.00    -0.136 A  
HETATM   25  C   UNL     1     -10.247  10.518  65.660  1.00  0.00    -0.315 A  
HETATM   26  C   UNL     1      -8.097   9.522  66.192  1.00  0.00    -0.111 A  
HETATM   27  C   UNL     1      -8.540  11.830  66.694  1.00  0.00    -0.170 A  
BRANCH  26  28
HETATM   28  O   UNL     1      -7.244   8.447  66.352  1.00  0.00    -0.070 OA 
BRANCH  28  29
HETATM   29  C   UNL     1      -7.817   7.228  65.871  1.00  0.00    -0.106 C  
BRANCH  29  30
HETATM   30  C   UNL     1      -7.145   6.635  64.624  1.00  0.00    -0.057 C  
BRANCH  30  31
HETATM   31  N   UNL     1      -7.574   5.219  64.415  1.00  0.00    -0.073 NA 
HETATM   32  C   UNL     1      -8.005   4.997  63.023  1.00  0.00    -0.087 C  
HETATM   33  C   UNL     1      -8.492   3.601  62.637  1.00  0.00    -0.081 C  
HETATM   34  C   UNL     1      -7.367   2.588  62.555  1.00  0.00    -0.040 C  
HETATM   35  C   UNL     1      -7.009   1.958  63.892  1.00  0.00    -0.032 C  
HETATM   36  C   UNL     1      -7.069   2.877  65.106  1.00  0.00    -0.054 C  
HETATM   37  C   UNL     1      -6.533   4.296  64.883  1.00  0.00    -0.035 C  
ENDBRANCH  30  31
ENDBRANCH  29  30
ENDBRANCH  28  29
ENDBRANCH  26  28
ENDBRANCH  21  22
ENDBRANCH   5  21
TORSDOF 7
ENDMDL
MODEL      120
REMARK 921   NORMALIZED FREE ENERGY PREDICTED BY IDOCK:   -4.71 KCAL/MOL
REMARK 922        TOTAL FREE ENERGY PREDICTED BY IDOCK:   -9.70 KCAL/MOL
REMARK 923 INTER-LIGAND FREE ENERGY PREDICTED BY IDOCK:   -7.69 KCAL/MOL
REMARK 924 INTRA-LIGAND FREE ENERGY PREDICTED BY IDOCK:   -2.02 KCAL/MOL
REMARK 927      BINDING AFFINITY PREDICTED BY RF-SCORE:    0.00 PKD
ROOT
HETATM    1  C   UNL     1     -13.505   9.774  72.271  1.00  0.00    -0.443 C  
HETATM    2  C   UNL     1     -12.341  10.196  71.430  1.00  0.00    -0.515 A  
HETATM    3  C   UNL     1     -11.262   9.453  70.930  1.00  0.00    -0.325 A  
HETATM    4  C   UNL     1     -11.849  13.793  69.335  1.00  0.00    -0.392 A  
HETATM    5  N   UNL     1     -10.510  10.347  70.134  1.00  0.00    -0.208 NA 
HETATM    6  O   UNL     1     -13.485  14.976  70.528  1.00  0.00    -0.654 OA 
HETATM    7  C   UNL     1     -11.224  11.532  69.972  1.00  0.00    -0.026 A  
HETATM    8  C   UNL     1     -12.784  13.821  70.345  1.00  0.00    -0.178 A  
HETATM    9  C   UNL     1     -12.247  11.523  70.915  1.00  0.00    -0.425 A  
HETATM   10  H   UNL     1     -13.319  15.749  70.001  1.00  0.00     0.000 HD 
HETATM   11  C   UNL     1     -11.095  12.640  69.114  1.00  0.00    -0.252 A  
HETATM   12  C   UNL     1     -13.027  12.691  71.115  1.00  0.00    -0.239 A  
ENDROOT
BRANCH   3  13
HETATM   13  C   UNL     1     -10.942   8.013  71.159  1.00  0.00    -0.271 A  
HETATM   14  C   UNL     1     -10.200   5.303  71.491  1.00  0.00    -0.212 A  
HETATM   15  H   UNL     1      -9.865   3.402  70.861  1.00  0.00     0.000 HD 
HETATM   16  C   UNL     1     -11.045   7.084  70.109  1.00  0.00    -0.323 A  
HETATM   17  C   UNL     1     -10.645   5.751  70.259  1.00  0.00    -0.369 A  
HETATM   18  O   UNL     1      -9.825   3.998  71.600  1.00  0.00    -0.172 OA 
HETATM   19  C   UNL     1     -10.480   7.525  72.393  1.00  0.00    -0.291 A  
HETATM   20  C   UNL     1     -10.141   6.174  72.571  1.00  0.00    -0.197 A  
ENDBRANCH   3  13
BRANCH   5  21
HETATM   21  C   UNL     1      -9.165  10.039  69.578  1.00  0.00    -0.221 C  
BRANCH  21  22
HETATM   22  C   UNL     1      -9.106   9.380  68.222  1.00  0.00    -0.128 A  
HETATM   23  C   UNL     1      -7.946   7.949  66.658  1.00  0.00    -0.103 A  
HETATM   24  C   UNL     1      -9.784   9.273  65.879  1.00  0.00    -0.355 A  
HETATM   25  C   UNL     1      -8.117   8.435  67.951  1.00  0.00    -0.123 A  
HETATM   26  C   UNL     1      -8.705   8.448  65.594  1.00  0.00    -0.172 A  
HETATM   27  C   UNL     1     -10.025   9.657  67.197  1.00  0.00    -0.249 A  
BRANCH  26  28
HETATM   28  O   UNL     1      -8.447   8.201  64.260  1.00  0.00    -0.082 OA 
BRANCH  28  29
HETATM   29  C   UNL     1      -7.552   7.100  64.078  1.00  0.00    -0.113 C  
BRANCH  29  30
HETATM   30  C   UNL     1      -7.921   6.135  62.943  1.00  0.00    -0.101 C  
BRANCH  30  31
HETATM   31  N   UNL     1      -8.161   4.759  63.476  1.00  0.00    -0.101 NA 
HETATM   32  C   UNL     1      -6.905   4.146  63.942  1.00  0.00    -0.045 C  
HETATM   33  C   UNL     1      -6.966   2.727  64.506  1.00  0.00    -0.048 C  
HETATM   34  C   UNL     1      -7.620   2.666  65.872  1.00  0.00    -0.073 C  
HETATM   35  C   UNL     1      -9.137   2.579  65.825  1.00  0.00    -0.101 C  
HETATM   36  C   UNL     1      -9.823   3.387  64.730  1.00  0.00    -0.124 C  
HETATM   37  C   UNL     1      -9.235   4.780  64.476  1.00  0.00    -0.057 C  
ENDBRANCH  30  31
ENDBRANCH  29  30
ENDBRANCH  28  29
ENDBRANCH  26  28
ENDBRANCH  21  22
ENDBRANCH   5  21
TORSDOF 7
ENDMDL
MODEL      121
REMARK 921   NORMALIZED FREE ENERGY PREDICTED BY IDOCK:   -4.67 KCAL/MOL
REMARK 922        TOTAL FREE ENERGY PREDICTED BY IDOCK:   -9.65 KCAL/MOL
REMARK 923 INTER-LIGAND FREE ENERGY PREDICTED BY IDOCK:   -6.92 KCAL/MOL
REMARK 924 INTRA-LIGAND FREE ENERGY PREDICTED BY IDOCK:   -2.73 KCAL/MOL
REMARK 927      BINDING AFFINITY PREDICTED BY RF-SCORE:    0.00 PKD
ROOT
HETATM    1  C   UNL     1     -13.145  12.380  69.850  1.00  0.00     1.156 C  
HETATM    2  C   UNL     1     -12.340  13.641  69.816  1.00  0.00    -0.285 A  
HETATM    3  C   UNL     1     -11.720  14.297  68.743  1.00  0.00    -0.343 A  
HETATM    4  C   UNL     1     -11.968  16.538  72.822  1.00  0.00    -0.484 A  
HETATM    5  N   UNL     1     -11.169  15.484  69.278  1.00  0.00    -0.287 NA 
HETATM    6  O   UNL     1     -12.727  15.161  74.561  1.00  0.00    -0.562 OA 
HETATM    7  C   UNL     1     -11.627  15.657  70.582  1.00  0.00    -0.367 A  
HETATM    8  C   UNL     1     -12.409  15.305  73.243  1.00  0.00    -0.475 A  
HETATM    9  C   UNL     1     -12.181  14.445  70.984  1.00  0.00    -0.422 A  
HETATM   10  H   UNL     1     -12.623  15.874  75.180  1.00  0.00     0.000 HD 
HETATM   11  C   UNL     1     -11.615  16.735  71.486  1.00  0.00     0.278 A  
HETATM   12  C   UNL     1     -12.561  14.262  72.338  1.00  0.00    -0.322 A  
ENDROOT
BRANCH   3  13
HETATM   13  C   UNL     1     -11.642  13.870  67.315  1.00  0.00    -0.393 A  
HETATM   14  C   UNL     1     -11.420  13.210  64.572  1.00  0.00    -0.353 A  
HETATM   15  H   UNL     1     -11.822  13.430  62.594  1.00  0.00     0.000 HD 
HETATM   16  C   UNL     1     -12.410  14.520  66.334  1.00  0.00    -0.198 A  
HETATM   17  C   UNL     1     -12.276  14.222  64.972  1.00  0.00    -0.438 A  
HETATM   18  O   UNL     1     -11.322  12.945  63.240  1.00  0.00    -0.392 OA 
HETATM   19  C   UNL     1     -10.777  12.854  66.873  1.00  0.00    -0.272 A  
HETATM   20  C   UNL     1     -10.689  12.501  65.516  1.00  0.00    -0.303 A  
ENDBRANCH   3  13
BRANCH   5  21
HETATM   21  C   UNL     1     -10.241  16.381  68.538  1.00  0.00    -0.257 C  
BRANCH  21  22
HETATM   22  C   UNL     1      -8.820  15.910  68.349  1.00  0.00    -0.184 A  
HETATM   23  C   UNL     1      -6.908  15.609  66.903  1.00  0.00     0.155 A  
HETATM   24  C   UNL     1      -6.925  14.536  69.045  1.00  0.00    -0.121 A  
HETATM   25  C   UNL     1      -8.150  16.182  67.157  1.00  0.00    -0.223 A  
HETATM   26  C   UNL     1      -6.340  14.695  67.797  1.00  0.00    -0.152 A  
HETATM   27  C   UNL     1      -8.108  15.213  69.339  1.00  0.00    -0.200 A  
BRANCH  26  28
HETATM   28  O   UNL     1      -5.238  13.908  67.523  1.00  0.00    -0.327 OA 
BRANCH  28  29
HETATM   29  C   UNL     1      -5.583  12.529  67.373  1.00  0.00    -0.112 C  
BRANCH  29  30
HETATM   30  C   UNL     1      -5.353  11.656  68.615  1.00  0.00    -0.042 C  
BRANCH  30  31
HETATM   31  N   UNL     1      -6.388  10.581  68.706  1.00  0.00    -0.047 NA 
HETATM   32  C   UNL     1      -6.873  10.429  70.088  1.00  0.00    -0.153 C  
HETATM   33  C   UNL     1      -7.928   9.359  70.365  1.00  0.00    -0.190 C  
HETATM   34  C   UNL     1      -9.294   9.727  69.820  1.00  0.00    -0.249 C  
HETATM   35  C   UNL     1      -9.490   9.365  68.356  1.00  0.00    -0.148 C  
HETATM   36  C   UNL     1      -8.277   9.545  67.451  1.00  0.00    -0.114 C  
HETATM   37  C   UNL     1      -7.444  10.805  67.712  1.00  0.00    -0.094 C  
ENDBRANCH  30  31
ENDBRANCH  29  30
ENDBRANCH  28  29
ENDBRANCH  26  28
ENDBRANCH  21  22
ENDBRANCH   5  21
TORSDOF 7
ENDMDL
MODEL      122
REMARK 921   NORMALIZED FREE ENERGY PREDICTED BY IDOCK:   -4.66 KCAL/MOL
REMARK 922        TOTAL FREE ENERGY PREDICTED BY IDOCK:   -9.64 KCAL/MOL
REMARK 923 INTER-LIGAND FREE ENERGY PREDICTED BY IDOCK:   -8.23 KCAL/MOL
REMARK 924 INTRA-LIGAND FREE ENERGY PREDICTED BY IDOCK:   -1.41 KCAL/MOL
REMARK 927      BINDING AFFINITY PREDICTED BY RF-SCORE:    0.00 PKD
ROOT
HETATM    1  C   UNL     1     -13.074   9.555  72.183  1.00  0.00    -0.522 C  
HETATM    2  C   UNL     1     -12.012   9.159  71.207  1.00  0.00    -0.394 A  
HETATM    3  C   UNL     1     -11.406   9.888  70.174  1.00  0.00    -0.275 A  
HETATM    4  C   UNL     1      -9.541   5.775  71.326  1.00  0.00    -0.198 A  
HETATM    5  N   UNL     1     -10.414   9.041  69.628  1.00  0.00    -0.218 NA 
HETATM    6  O   UNL     1     -10.879   4.568  72.824  1.00  0.00    -0.204 OA 
HETATM    7  C   UNL     1     -10.268   7.920  70.443  1.00  0.00    -0.197 A  
HETATM    8  C   UNL     1     -10.687   5.695  72.082  1.00  0.00    -0.234 A  
HETATM    9  C   UNL     1     -11.368   7.888  71.294  1.00  0.00    -0.289 A  
HETATM   10  H   UNL     1     -10.263   3.845  72.803  1.00  0.00     0.000 HD 
HETATM   11  C   UNL     1      -9.302   6.901  70.537  1.00  0.00    -0.159 A  
HETATM   12  C   UNL     1     -11.589   6.752  72.112  1.00  0.00    -0.324 A  
ENDROOT
BRANCH   3  13
HETATM   13  C   UNL     1     -11.709  11.276  69.718  1.00  0.00    -0.422 A  
HETATM   14  C   UNL     1     -12.134  13.958  68.920  1.00  0.00    -0.319 A  
HETATM   15  H   UNL     1     -12.430  15.941  69.238  1.00  0.00     0.000 HD 
HETATM   16  C   UNL     1     -11.950  12.297  70.654  1.00  0.00    -0.218 A  
HETATM   17  C   UNL     1     -12.124  13.631  70.265  1.00  0.00    -0.427 A  
HETATM   18  O   UNL     1     -12.312  15.265  68.581  1.00  0.00    -0.083 OA 
HETATM   19  C   UNL     1     -11.719  11.646  68.362  1.00  0.00    -0.374 A  
HETATM   20  C   UNL     1     -11.962  12.970  67.960  1.00  0.00    -0.335 A  
ENDBRANCH   3  13
BRANCH   5  21
HETATM   21  C   UNL     1      -9.668   9.329  68.374  1.00  0.00    -0.154 C  
BRANCH  21  22
HETATM   22  C   UNL     1      -8.534  10.322  68.451  1.00  0.00    -0.124 A  
HETATM   23  C   UNL     1      -6.741  11.332  69.716  1.00  0.00    -0.099 A  
HETATM   24  C   UNL     1      -7.424  12.346  67.656  1.00  0.00    -0.138 A  
HETATM   25  C   UNL     1      -7.679  10.318  69.552  1.00  0.00    -0.167 A  
HETATM   26  C   UNL     1      -6.684  12.411  68.828  1.00  0.00    -0.092 A  
HETATM   27  C   UNL     1      -8.272  11.261  67.440  1.00  0.00    -0.135 A  
BRANCH  26  28
HETATM   28  O   UNL     1      -5.956  13.566  69.039  1.00  0.00    -0.075 OA 
BRANCH  28  29
HETATM   29  C   UNL     1      -5.938  14.412  67.887  1.00  0.00    -0.138 C  
BRANCH  29  30
HETATM   30  C   UNL     1      -5.578  15.880  68.156  1.00  0.00    -0.114 C  
BRANCH  30  31
HETATM   31  N   UNL     1      -6.695  16.784  67.746  1.00  0.00    -0.131 NA 
HETATM   32  C   UNL     1      -7.771  16.785  68.752  1.00  0.00    -0.242 C  
HETATM   33  C   UNL     1      -9.004  17.647  68.484  1.00  0.00    -0.289 C  
HETATM   34  C   UNL     1      -8.727  19.130  68.633  1.00  0.00    -0.394 C  
HETATM   35  C   UNL     1      -8.154  19.778  67.382  1.00  0.00    -0.332 C  
HETATM   36  C   UNL     1      -7.171  18.935  66.578  1.00  0.00    -0.247 C  
HETATM   37  C   UNL     1      -6.177  18.115  67.409  1.00  0.00    -0.164 C  
ENDBRANCH  30  31
ENDBRANCH  29  30
ENDBRANCH  28  29
ENDBRANCH  26  28
ENDBRANCH  21  22
ENDBRANCH   5  21
TORSDOF 7
ENDMDL
MODEL      123
REMARK 921   NORMALIZED FREE ENERGY PREDICTED BY IDOCK:   -4.61 KCAL/MOL
REMARK 922        TOTAL FREE ENERGY PREDICTED BY IDOCK:   -9.56 KCAL/MOL
REMARK 923 INTER-LIGAND FREE ENERGY PREDICTED BY IDOCK:   -7.39 KCAL/MOL
REMARK 924 INTRA-LIGAND FREE ENERGY PREDICTED BY IDOCK:   -2.17 KCAL/MOL
REMARK 927      BINDING AFFINITY PREDICTED BY RF-SCORE:    0.00 PKD
ROOT
HETATM    1  C   UNL     1      -8.800   6.057  73.747  1.00  0.00    -0.123 C  
HETATM    2  C   UNL     1      -8.904   5.805  72.275  1.00  0.00    -0.135 A  
HETATM    3  C   UNL     1      -9.680   6.441  71.295  1.00  0.00    -0.174 A  
HETATM    4  C   UNL     1      -6.378   3.472  69.879  1.00  0.00    -0.028 A  
HETATM    5  N   UNL     1      -9.317   5.846  70.065  1.00  0.00    -0.146 NA 
HETATM    6  O   UNL     1      -5.428   2.270  71.653  1.00  0.00    -0.007 OA 
HETATM    7  C   UNL     1      -8.201   5.034  70.258  1.00  0.00    -0.088 A  
HETATM    8  C   UNL     1      -6.321   3.208  71.228  1.00  0.00    -0.019 A  
HETATM    9  C   UNL     1      -8.063   4.851  71.630  1.00  0.00    -0.112 A  
HETATM   10  H   UNL     1      -4.881   1.789  71.043  1.00  0.00     0.000 HD 
HETATM   11  C   UNL     1      -7.284   4.413  69.390  1.00  0.00    -0.051 A  
HETATM   12  C   UNL     1      -7.120   3.911  72.120  1.00  0.00    -0.050 A  
ENDROOT
BRANCH   3  13
HETATM   13  C   UNL     1     -10.685   7.529  71.471  1.00  0.00    -0.242 A  
HETATM   14  C   UNL     1     -12.591   9.615  71.633  1.00  0.00    -0.402 A  
HETATM   15  H   UNL     1     -13.236  11.530  71.435  1.00  0.00     0.000 HD 
HETATM   16  C   UNL     1     -10.346   8.865  71.193  1.00  0.00    -0.338 A  
HETATM   17  C   UNL     1     -11.294   9.894  71.236  1.00  0.00    -0.404 A  
HETATM   18  O   UNL     1     -13.484  10.643  71.669  1.00  0.00    -0.300 OA 
HETATM   19  C   UNL     1     -12.012   7.282  71.862  1.00  0.00    -0.342 A  
HETATM   20  C   UNL     1     -12.953   8.319  71.976  1.00  0.00    -0.355 A  
ENDBRANCH   3  13
BRANCH   5  21
HETATM   21  C   UNL     1     -10.041   6.068  68.785  1.00  0.00    -0.168 C  
BRANCH  21  22
HETATM   22  C   UNL     1      -9.697   7.307  67.996  1.00  0.00    -0.157 A  
HETATM   23  C   UNL     1      -8.271   9.230  67.667  1.00  0.00    -0.115 A  
HETATM   24  C   UNL     1     -10.335   9.094  66.459  1.00  0.00    -0.269 A  
HETATM   25  C   UNL     1      -8.516   7.997  68.265  1.00  0.00    -0.123 A  
HETATM   26  C   UNL     1      -9.230   9.836  66.848  1.00  0.00    -0.147 A  
HETATM   27  C   UNL     1     -10.511   7.807  66.967  1.00  0.00    -0.419 A  
BRANCH  26  28
HETATM   28  O   UNL     1      -9.173  11.144  66.408  1.00  0.00    -0.173 OA 
BRANCH  28  29
HETATM   29  C   UNL     1     -10.471  11.677  66.129  1.00  0.00    -0.247 C  
BRANCH  29  30
HETATM   30  C   UNL     1     -10.488  13.116  65.596  1.00  0.00    -0.282 C  
BRANCH  30  31
HETATM   31  N   UNL     1     -10.915  14.071  66.664  1.00  0.00    -0.297 NA 
HETATM   32  C   UNL     1     -11.597  13.365  67.763  1.00  0.00    -0.340 C  
HETATM   33  C   UNL     1     -12.115  14.195  68.937  1.00  0.00    -0.339 C  
HETATM   34  C   UNL     1     -11.002  14.711  69.827  1.00  0.00    -0.232 C  
HETATM   35  C   UNL     1     -10.380  16.011  69.343  1.00  0.00    -0.272 C  
HETATM   36  C   UNL     1     -10.230  16.164  67.833  1.00  0.00    -0.261 C  
HETATM   37  C   UNL     1      -9.781  14.902  67.087  1.00  0.00    -0.228 C  
ENDBRANCH  30  31
ENDBRANCH  29  30
ENDBRANCH  28  29
ENDBRANCH  26  28
ENDBRANCH  21  22
ENDBRANCH   5  21
TORSDOF 7
ENDMDL
MODEL      124
REMARK 921   NORMALIZED FREE ENERGY PREDICTED BY IDOCK:   -4.58 KCAL/MOL
REMARK 922        TOTAL FREE ENERGY PREDICTED BY IDOCK:   -9.52 KCAL/MOL
REMARK 923 INTER-LIGAND FREE ENERGY PREDICTED BY IDOCK:   -7.70 KCAL/MOL
REMARK 924 INTRA-LIGAND FREE ENERGY PREDICTED BY IDOCK:   -1.82 KCAL/MOL
REMARK 927      BINDING AFFINITY PREDICTED BY RF-SCORE:    0.00 PKD
ROOT
HETATM    1  C   UNL     1     -13.460   9.797  72.139  1.00  0.00    -0.491 C  
HETATM    2  C   UNL     1     -12.103   9.845  71.510  1.00  0.00    -0.496 A  
HETATM    3  C   UNL     1     -11.038   8.936  71.572  1.00  0.00    -0.326 A  
HETATM    4  C   UNL     1     -10.760  12.417  68.485  1.00  0.00    -0.262 A  
HETATM    5  N   UNL     1     -10.034   9.454  70.721  1.00  0.00    -0.284 NA 
HETATM    6  O   UNL     1     -12.461  14.006  68.766  1.00  0.00    -0.501 OA 
HETATM    7  C   UNL     1     -10.553  10.523  69.994  1.00  0.00    -0.169 A  
HETATM    8  C   UNL     1     -11.878  12.841  69.167  1.00  0.00    -0.301 A  
HETATM    9  C   UNL     1     -11.747  10.891  70.607  1.00  0.00    -0.418 A  
HETATM   10  H   UNL     1     -12.097  14.529  68.061  1.00  0.00     0.000 HD 
HETATM   11  C   UNL     1     -10.117  11.238  68.864  1.00  0.00    -0.185 A  
HETATM   12  C   UNL     1     -12.409  12.077  70.198  1.00  0.00    -0.230 A  
ENDROOT
BRANCH   3  13
HETATM   13  C   UNL     1     -10.945   7.668  72.353  1.00  0.00    -0.353 A  
HETATM   14  C   UNL     1     -10.676   5.198  73.708  1.00  0.00    -0.299 A  
HETATM   15  H   UNL     1     -10.956   3.203  73.957  1.00  0.00     0.000 HD 
HETATM   16  C   UNL     1     -11.583   6.501  71.898  1.00  0.00    -0.357 A  
HETATM   17  C   UNL     1     -11.423   5.270  72.544  1.00  0.00    -0.209 A  
HETATM   18  O   UNL     1     -10.548   3.984  74.311  1.00  0.00    -0.214 OA 
HETATM   19  C   UNL     1     -10.189   7.557  73.533  1.00  0.00    -0.380 A  
HETATM   20  C   UNL     1     -10.080   6.340  74.226  1.00  0.00    -0.349 A  
ENDBRANCH   3  13
BRANCH   5  21
HETATM   21  C   UNL     1      -8.648   8.921  70.646  1.00  0.00    -0.194 C  
BRANCH  21  22
HETATM   22  C   UNL     1      -8.377   7.822  69.648  1.00  0.00    -0.129 A  
HETATM   23  C   UNL     1      -7.712   5.543  69.200  1.00  0.00    -0.087 A  
HETATM   24  C   UNL     1      -7.842   7.095  67.380  1.00  0.00    -0.112 A  
HETATM   25  C   UNL     1      -8.130   6.524  70.093  1.00  0.00    -0.121 A  
HETATM   26  C   UNL     1      -7.459   5.850  67.858  1.00  0.00    -0.081 A  
HETATM   27  C   UNL     1      -8.379   8.033  68.260  1.00  0.00    -0.123 A  
BRANCH  26  28
HETATM   28  O   UNL     1      -6.825   5.009  66.965  1.00  0.00    -0.057 OA 
BRANCH  28  29
HETATM   29  C   UNL     1      -7.474   3.738  66.866  1.00  0.00    -0.079 C  
BRANCH  29  30
HETATM   30  C   UNL     1      -6.943   2.815  65.760  1.00  0.00    -0.049 C  
BRANCH  30  31
HETATM   31  N   UNL     1      -7.850   2.838  64.572  1.00  0.00    -0.077 NA 
HETATM   32  C   UNL     1      -9.186   2.320  64.916  1.00  0.00    -0.126 C  
HETATM   33  C   UNL     1     -10.238   2.257  63.810  1.00  0.00    -0.115 C  
HETATM   34  C   UNL     1     -10.760   3.626  63.419  1.00  0.00    -0.235 C  
HETATM   35  C   UNL     1      -9.899   4.341  62.389  1.00  0.00    -0.125 C  
HETATM   36  C   UNL     1      -8.393   4.152  62.524  1.00  0.00    -0.079 C  
HETATM   37  C   UNL     1      -7.855   4.171  63.960  1.00  0.00    -0.084 C  
ENDBRANCH  30  31
ENDBRANCH  29  30
ENDBRANCH  28  29
ENDBRANCH  26  28
ENDBRANCH  21  22
ENDBRANCH   5  21
TORSDOF 7
ENDMDL
MODEL      125
REMARK 921   NORMALIZED FREE ENERGY PREDICTED BY IDOCK:   -4.58 KCAL/MOL
REMARK 922        TOTAL FREE ENERGY PREDICTED BY IDOCK:   -9.52 KCAL/MOL
REMARK 923 INTER-LIGAND FREE ENERGY PREDICTED BY IDOCK:   -7.81 KCAL/MOL
REMARK 924 INTRA-LIGAND FREE ENERGY PREDICTED BY IDOCK:   -1.71 KCAL/MOL
REMARK 927      BINDING AFFINITY PREDICTED BY RF-SCORE:    0.00 PKD
ROOT
HETATM    1  C   UNL     1      -8.745   9.173  62.821  1.00  0.00    -0.190 C  
HETATM    2  C   UNL     1      -8.997   9.229  64.295  1.00  0.00    -0.142 A  
HETATM    3  C   UNL     1      -9.756  10.130  65.057  1.00  0.00    -0.318 A  
HETATM    4  C   UNL     1      -8.196   6.272  67.156  1.00  0.00    -0.109 A  
HETATM    5  N   UNL     1      -9.706   9.654  66.387  1.00  0.00    -0.206 NA 
HETATM    6  O   UNL     1      -6.681   5.074  65.828  1.00  0.00    -0.050 OA 
HETATM    7  C   UNL     1      -9.125   8.388  66.402  1.00  0.00    -0.187 A  
HETATM    8  C   UNL     1      -7.504   6.151  65.974  1.00  0.00    -0.082 A  
HETATM    9  C   UNL     1      -8.515   8.204  65.164  1.00  0.00    -0.134 A  
HETATM   10  H   UNL     1      -6.561   4.440  66.525  1.00  0.00     0.000 HD 
HETATM   11  C   UNL     1      -9.041   7.363  67.363  1.00  0.00    -0.129 A  
HETATM   12  C   UNL     1      -7.679   7.079  64.954  1.00  0.00    -0.114 A  
ENDROOT
BRANCH   3  13
HETATM   13  C   UNL     1     -10.488  11.345  64.595  1.00  0.00    -0.373 A  
HETATM   14  C   UNL     1     -11.999  13.614  63.835  1.00  0.00    -0.408 A  
HETATM   15  H   UNL     1     -13.613  14.565  63.051  1.00  0.00     0.000 HD 
HETATM   16  C   UNL     1     -11.708  11.225  63.907  1.00  0.00     0.155 A  
HETATM   17  C   UNL     1     -12.476  12.343  63.562  1.00  0.00    -0.605 A  
HETATM   18  O   UNL     1     -12.771  14.678  63.478  1.00  0.00    -0.670 OA 
HETATM   19  C   UNL     1     -10.038  12.649  64.863  1.00  0.00    -0.244 A  
HETATM   20  C   UNL     1     -10.769  13.779  64.458  1.00  0.00    -0.405 A  
ENDBRANCH   3  13
BRANCH   5  21
HETATM   21  C   UNL     1     -10.199  10.417  67.564  1.00  0.00    -0.210 C  
BRANCH  21  22
HETATM   22  C   UNL     1      -9.404  11.624  67.995  1.00  0.00    -0.178 A  
HETATM   23  C   UNL     1      -9.327  13.983  68.514  1.00  0.00    -0.182 A  
HETATM   24  C   UNL     1      -7.270  12.784  68.250  1.00  0.00    -0.114 A  
HETATM   25  C   UNL     1     -10.058  12.821  68.284  1.00  0.00    -0.237 A  
HETATM   26  C   UNL     1      -7.934  13.995  68.388  1.00  0.00    -0.143 A  
HETATM   27  C   UNL     1      -8.007  11.606  68.144  1.00  0.00    -0.141 A  
BRANCH  26  28
HETATM   28  O   UNL     1      -7.156  15.136  68.367  1.00  0.00    -0.101 OA 
BRANCH  28  29
HETATM   29  C   UNL     1      -7.299  15.910  69.561  1.00  0.00    -0.170 C  
BRANCH  29  30
HETATM   30  C   UNL     1      -6.395  17.147  69.653  1.00  0.00    -0.209 C  
BRANCH  30  31
HETATM   31  N   UNL     1      -6.581  18.028  68.460  1.00  0.00    -0.210 NA 
HETATM   32  C   UNL     1      -7.998  18.387  68.282  1.00  0.00    -0.300 C  
HETATM   33  C   UNL     1      -8.371  19.274  67.096  1.00  0.00    -0.305 C  
HETATM   34  C   UNL     1      -7.926  20.713  67.275  1.00  0.00    -0.327 C  
HETATM   35  C   UNL     1      -6.487  20.968  66.856  1.00  0.00    -0.393 C  
HETATM   36  C   UNL     1      -5.489  19.857  67.165  1.00  0.00    -0.168 C  
HETATM   37  C   UNL     1      -5.667  19.174  68.525  1.00  0.00    -0.207 C  
ENDBRANCH  30  31
ENDBRANCH  29  30
ENDBRANCH  28  29
ENDBRANCH  26  28
ENDBRANCH  21  22
ENDBRANCH   5  21
TORSDOF 7
ENDMDL
MODEL      126
REMARK 921   NORMALIZED FREE ENERGY PREDICTED BY IDOCK:   -4.56 KCAL/MOL
REMARK 922        TOTAL FREE ENERGY PREDICTED BY IDOCK:   -9.49 KCAL/MOL
REMARK 923 INTER-LIGAND FREE ENERGY PREDICTED BY IDOCK:   -8.49 KCAL/MOL
REMARK 924 INTRA-LIGAND FREE ENERGY PREDICTED BY IDOCK:   -1.00 KCAL/MOL
REMARK 927      BINDING AFFINITY PREDICTED BY RF-SCORE:    0.00 PKD
ROOT
HETATM    1  C   UNL     1      -9.093  15.994  66.282  1.00  0.00    -0.379 C  
HETATM    2  C   UNL     1      -9.325  14.520  66.395  1.00  0.00    -0.300 A  
HETATM    3  C   UNL     1      -8.811  13.584  67.304  1.00  0.00    -0.224 A  
HETATM    4  C   UNL     1     -12.280  12.228  64.502  1.00  0.00    -0.469 A  
HETATM    5  N   UNL     1      -9.434  12.354  66.990  1.00  0.00    -0.205 NA 
HETATM    6  O   UNL     1     -12.767  13.810  62.842  1.00  0.00    -0.814 OA 
HETATM    7  C   UNL     1     -10.456  12.577  66.070  1.00  0.00    -0.258 A  
HETATM    8  C   UNL     1     -12.018  13.448  63.922  1.00  0.00    -0.465 A  
HETATM    9  C   UNL     1     -10.270  13.857  65.556  1.00  0.00    -0.348 A  
HETATM   10  H   UNL     1     -13.428  13.234  62.477  1.00  0.00     0.000 HD 
HETATM   11  C   UNL     1     -11.533  11.803  65.601  1.00  0.00    -0.249 A  
HETATM   12  C   UNL     1     -11.051  14.291  64.456  1.00  0.00    -0.321 A  
ENDROOT
BRANCH   3  13
HETATM   13  C   UNL     1      -7.818  13.802  68.396  1.00  0.00    -0.143 A  
HETATM   14  C   UNL     1      -6.067  14.242  70.575  1.00  0.00    -0.180 A  
HETATM   15  H   UNL     1      -5.204  15.352  72.039  1.00  0.00     0.000 HD 
HETATM   16  C   UNL     1      -7.659  15.074  68.972  1.00  0.00    -0.160 A  
HETATM   17  C   UNL     1      -6.822  15.288  70.074  1.00  0.00    -0.080 A  
HETATM   18  O   UNL     1      -5.259  14.491  71.643  1.00  0.00    -0.141 OA 
HETATM   19  C   UNL     1      -7.042  12.761  68.936  1.00  0.00    -0.067 A  
HETATM   20  C   UNL     1      -6.148  12.983  69.996  1.00  0.00    -0.112 A  
ENDBRANCH   3  13
BRANCH   5  21
HETATM   21  C   UNL     1      -9.029  11.044  67.565  1.00  0.00    -0.137 C  
BRANCH  21  22
HETATM   22  C   UNL     1      -9.976  10.389  68.541  1.00  0.00    -0.179 A  
HETATM   23  C   UNL     1     -11.599  10.600  70.318  1.00  0.00    -0.424 A  
HETATM   24  C   UNL     1     -10.698   8.438  69.818  1.00  0.00    -0.211 A  
HETATM   25  C   UNL     1     -10.847  11.173  69.297  1.00  0.00    -0.277 A  
HETATM   26  C   UNL     1     -11.446   9.251  70.657  1.00  0.00    -0.274 A  
HETATM   27  C   UNL     1     -10.045   8.998  68.721  1.00  0.00    -0.214 A  
BRANCH  26  28
HETATM   28  O   UNL     1     -11.969   8.662  71.791  1.00  0.00    -0.294 OA 
BRANCH  28  29
HETATM   29  C   UNL     1     -10.954   8.081  72.615  1.00  0.00    -0.382 C  
BRANCH  29  30
HETATM   30  C   UNL     1     -11.080   6.568  72.843  1.00  0.00    -0.223 C  
BRANCH  30  31
HETATM   31  N   UNL     1      -9.955   5.838  72.184  1.00  0.00    -0.174 NA 
HETATM   32  C   UNL     1     -10.426   5.099  71.000  1.00  0.00    -0.171 C  
HETATM   33  C   UNL     1      -9.404   4.281  70.211  1.00  0.00    -0.225 C  
HETATM   34  C   UNL     1      -8.448   5.147  69.415  1.00  0.00    -0.090 C  
HETATM   35  C   UNL     1      -7.252   5.639  70.214  1.00  0.00    -0.067 C  
HETATM   36  C   UNL     1      -7.522   6.007  71.669  1.00  0.00    -0.094 C  
HETATM   37  C   UNL     1      -8.837   6.752  71.925  1.00  0.00    -0.135 C  
ENDBRANCH  30  31
ENDBRANCH  29  30
ENDBRANCH  28  29
ENDBRANCH  26  28
ENDBRANCH  21  22
ENDBRANCH   5  21
TORSDOF 7
ENDMDL
MODEL      127
REMARK 921   NORMALIZED FREE ENERGY PREDICTED BY IDOCK:   -4.55 KCAL/MOL
REMARK 922        TOTAL FREE ENERGY PREDICTED BY IDOCK:   -9.48 KCAL/MOL
REMARK 923 INTER-LIGAND FREE ENERGY PREDICTED BY IDOCK:   -7.80 KCAL/MOL
REMARK 924 INTRA-LIGAND FREE ENERGY PREDICTED BY IDOCK:   -1.68 KCAL/MOL
REMARK 927      BINDING AFFINITY PREDICTED BY RF-SCORE:    0.00 PKD
ROOT
HETATM    1  C   UNL     1     -10.804  17.336  65.511  1.00  0.00    -0.024 C  
HETATM    2  C   UNL     1      -9.974  16.309  66.213  1.00  0.00    -0.335 A  
HETATM    3  C   UNL     1      -9.967  14.911  66.101  1.00  0.00    -0.303 A  
HETATM    4  C   UNL     1      -6.529  16.924  68.520  1.00  0.00    -0.161 A  
HETATM    5  N   UNL     1      -8.924  14.458  66.942  1.00  0.00    -0.242 NA 
HETATM    6  O   UNL     1      -6.898  19.211  68.876  1.00  0.00    -0.294 OA 
HETATM    7  C   UNL     1      -8.177  15.550  67.378  1.00  0.00    -0.177 A  
HETATM    8  C   UNL     1      -7.325  18.032  68.342  1.00  0.00    -0.261 A  
HETATM    9  C   UNL     1      -8.923  16.692  67.100  1.00  0.00    -0.225 A  
HETATM   10  H   UNL     1      -6.096  19.269  69.381  1.00  0.00     0.000 HD 
HETATM   11  C   UNL     1      -6.925  15.689  68.006  1.00  0.00    -0.141 A  
HETATM   12  C   UNL     1      -8.499  17.947  67.604  1.00  0.00    -0.234 A  
ENDROOT
BRANCH   3  13
HETATM   13  C   UNL     1     -10.853  14.043  65.271  1.00  0.00    -0.352 A  
HETATM   14  C   UNL     1     -12.452  12.261  63.763  1.00  0.00    -0.515 A  
HETATM   15  H   UNL     1     -12.784  10.844  62.348  1.00  0.00     0.000 HD 
HETATM   16  C   UNL     1     -10.322  13.291  64.209  1.00  0.00    -0.315 A  
HETATM   17  C   UNL     1     -11.102  12.381  63.485  1.00  0.00    -0.521 A  
HETATM   18  O   UNL     1     -13.179  11.370  63.033  1.00  0.00    -0.068 OA 
HETATM   19  C   UNL     1     -12.225  13.890  65.532  1.00  0.00    -0.467 A  
HETATM   20  C   UNL     1     -13.029  13.031  64.764  1.00  0.00    -0.207 A  
ENDBRANCH   3  13
BRANCH   5  21
HETATM   21  C   UNL     1      -8.694  13.031  67.290  1.00  0.00    -0.209 C  
BRANCH  21  22
HETATM   22  C   UNL     1      -9.777  12.319  68.063  1.00  0.00    -0.205 A  
HETATM   23  C   UNL     1     -11.457  12.360  69.799  1.00  0.00    -0.220 A  
HETATM   24  C   UNL     1     -10.834  10.258  68.833  1.00  0.00    -0.263 A  
HETATM   25  C   UNL     1     -10.575  13.031  68.958  1.00  0.00    -0.079 A  
HETATM   26  C   UNL     1     -11.511  10.962  69.819  1.00  0.00    -0.313 A  
HETATM   27  C   UNL     1     -10.048  10.949  67.914  1.00  0.00    -0.199 A  
BRANCH  26  28
HETATM   28  O   UNL     1     -12.176  10.214  70.772  1.00  0.00    -0.298 OA 
BRANCH  28  29
HETATM   29  C   UNL     1     -12.174   8.818  70.461  1.00  0.00     0.189 C  
BRANCH  29  30
HETATM   30  C   UNL     1     -11.657   7.898  71.576  1.00  0.00    -0.270 C  
BRANCH  30  31
HETATM   31  N   UNL     1     -10.195   7.634  71.409  1.00  0.00    -0.186 NA 
HETATM   32  C   UNL     1      -9.789   7.780  70.001  1.00  0.00    -0.181 C  
HETATM   33  C   UNL     1      -8.324   7.529  69.647  1.00  0.00    -0.131 C  
HETATM   34  C   UNL     1      -7.405   8.635  70.130  1.00  0.00    -0.053 C  
HETATM   35  C   UNL     1      -6.956   8.473  71.573  1.00  0.00    -0.083 C  
HETATM   36  C   UNL     1      -7.993   7.918  72.543  1.00  0.00    -0.157 C  
HETATM   37  C   UNL     1      -9.419   8.447  72.353  1.00  0.00    -0.295 C  
ENDBRANCH  30  31
ENDBRANCH  29  30
ENDBRANCH  28  29
ENDBRANCH  26  28
ENDBRANCH  21  22
ENDBRANCH   5  21
TORSDOF 7
ENDMDL
MODEL      128
REMARK 921   NORMALIZED FREE ENERGY PREDICTED BY IDOCK:   -4.54 KCAL/MOL
REMARK 922        TOTAL FREE ENERGY PREDICTED BY IDOCK:   -9.47 KCAL/MOL
REMARK 923 INTER-LIGAND FREE ENERGY PREDICTED BY IDOCK:   -7.09 KCAL/MOL
REMARK 924 INTRA-LIGAND FREE ENERGY PREDICTED BY IDOCK:   -2.38 KCAL/MOL
REMARK 927      BINDING AFFINITY PREDICTED BY RF-SCORE:    0.00 PKD
ROOT
HETATM    1  C   UNL     1      -6.756  14.450  68.013  1.00  0.00    -0.154 C  
HETATM    2  C   UNL     1      -8.182  14.001  68.073  1.00  0.00    -0.155 A  
HETATM    3  C   UNL     1      -8.731  12.710  68.103  1.00  0.00    -0.190 A  
HETATM    4  C   UNL     1     -11.571  16.309  68.942  1.00  0.00    -0.230 A  
HETATM    5  N   UNL     1     -10.127  12.884  68.241  1.00  0.00    -0.239 NA 
HETATM    6  O   UNL     1     -10.553  18.378  68.518  1.00  0.00    -0.349 OA 
HETATM    7  C   UNL     1     -10.400  14.223  68.511  1.00  0.00    -0.244 A  
HETATM    8  C   UNL     1     -10.462  17.018  68.541  1.00  0.00    -0.373 A  
HETATM    9  C   UNL     1      -9.245  14.942  68.218  1.00  0.00    -0.187 A  
HETATM   10  H   UNL     1     -11.359  18.828  68.740  1.00  0.00     0.000 HD 
HETATM   11  C   UNL     1     -11.537  14.915  68.971  1.00  0.00    -0.330 A  
HETATM   12  C   UNL     1      -9.282  16.359  68.217  1.00  0.00    -0.207 A  
ENDROOT
BRANCH   3  13
HETATM   13  C   UNL     1      -8.023  11.400  68.017  1.00  0.00    -0.127 A  
HETATM   14  C   UNL     1      -6.798   8.850  67.961  1.00  0.00    -0.070 A  
HETATM   15  H   UNL     1      -5.823   7.265  68.773  1.00  0.00     0.000 HD 
HETATM   16  C   UNL     1      -7.366  10.870  69.141  1.00  0.00    -0.126 A  
HETATM   17  C   UNL     1      -6.791   9.594  69.129  1.00  0.00    -0.050 A  
HETATM   18  O   UNL     1      -6.223   7.615  67.986  1.00  0.00    -0.042 OA 
HETATM   19  C   UNL     1      -8.017  10.614  66.852  1.00  0.00    -0.124 A  
HETATM   20  C   UNL     1      -7.382   9.362  66.811  1.00  0.00    -0.086 A  
ENDBRANCH   3  13
BRANCH   5  21
HETATM   21  C   UNL     1     -11.122  11.787  68.105  1.00  0.00    -0.243 C  
BRANCH  21  22
HETATM   22  C   UNL     1     -11.184  10.762  69.211  1.00  0.00    -0.333 A  
HETATM   23  C   UNL     1     -10.843   8.488  69.956  1.00  0.00    -0.225 A  
HETATM   24  C   UNL     1     -12.066  10.000  71.356  1.00  0.00    -0.498 A  
HETATM   25  C   UNL     1     -10.642   9.492  69.014  1.00  0.00    -0.238 A  
HETATM   26  C   UNL     1     -11.650   8.705  71.078  1.00  0.00    -0.281 A  
HETATM   27  C   UNL     1     -11.753  11.027  70.467  1.00  0.00    -0.416 A  
BRANCH  26  28
HETATM   28  O   UNL     1     -12.092   7.714  71.932  1.00  0.00    -0.282 OA 
BRANCH  28  29
HETATM   29  C   UNL     1     -11.112   7.371  72.916  1.00  0.00    -0.349 C  
BRANCH  29  30
HETATM   30  C   UNL     1     -10.842   5.869  73.077  1.00  0.00    -0.267 C  
BRANCH  30  31
HETATM   31  N   UNL     1      -9.396   5.564  72.854  1.00  0.00    -0.138 NA 
HETATM   32  C   UNL     1      -9.046   5.675  71.428  1.00  0.00    -0.140 C  
HETATM   33  C   UNL     1      -7.604   5.381  71.017  1.00  0.00    -0.090 C  
HETATM   34  C   UNL     1      -6.639   6.471  71.442  1.00  0.00    -0.054 C  
HETATM   35  C   UNL     1      -6.133   6.323  72.867  1.00  0.00    -0.053 C  
HETATM   36  C   UNL     1      -7.141   5.811  73.890  1.00  0.00    -0.082 C  
HETATM   37  C   UNL     1      -8.561   6.373  73.750  1.00  0.00    -0.123 C  
ENDBRANCH  30  31
ENDBRANCH  29  30
ENDBRANCH  28  29
ENDBRANCH  26  28
ENDBRANCH  21  22
ENDBRANCH   5  21
TORSDOF 7
ENDMDL
MODEL      129
REMARK 921   NORMALIZED FREE ENERGY PREDICTED BY IDOCK:   -4.54 KCAL/MOL
REMARK 922        TOTAL FREE ENERGY PREDICTED BY IDOCK:   -9.46 KCAL/MOL
REMARK 923 INTER-LIGAND FREE ENERGY PREDICTED BY IDOCK:   -7.34 KCAL/MOL
REMARK 924 INTRA-LIGAND FREE ENERGY PREDICTED BY IDOCK:   -2.12 KCAL/MOL
REMARK 927      BINDING AFFINITY PREDICTED BY RF-SCORE:    0.00 PKD
ROOT
HETATM    1  C   UNL     1      -9.860  13.801  67.925  1.00  0.00    -0.232 C  
HETATM    2  C   UNL     1      -9.566  12.706  66.949  1.00  0.00    -0.232 A  
HETATM    3  C   UNL     1      -8.788  11.547  67.085  1.00  0.00    -0.168 A  
HETATM    4  C   UNL     1     -11.473  11.937  63.296  1.00  0.00    -0.376 A  
HETATM    5  N   UNL     1      -8.931  10.836  65.872  1.00  0.00    -0.178 NA 
HETATM    6  O   UNL     1     -12.427  14.068  63.084  1.00  0.00    -1.137 OA 
HETATM    7  C   UNL     1      -9.937  11.426  65.109  1.00  0.00    -0.264 A  
HETATM    8  C   UNL     1     -11.635  13.211  63.789  1.00  0.00    -0.425 A  
HETATM    9  C   UNL     1     -10.193  12.675  65.667  1.00  0.00    -0.290 A  
HETATM   10  H   UNL     1     -12.834  13.811  62.265  1.00  0.00     0.000 HD 
HETATM   11  C   UNL     1     -10.660  11.025  63.971  1.00  0.00    -0.395 A  
HETATM   12  C   UNL     1     -11.041  13.586  64.988  1.00  0.00    -0.338 A  
ENDROOT
BRANCH   3  13
HETATM   13  C   UNL     1      -7.969  11.114  68.255  1.00  0.00    -0.127 A  
HETATM   14  C   UNL     1      -6.441  10.448  70.542  1.00  0.00    -0.093 A  
HETATM   15  H   UNL     1      -4.857  10.613  71.802  1.00  0.00     0.000 HD 
HETATM   16  C   UNL     1      -6.708  11.687  68.495  1.00  0.00    -0.069 A  
HETATM   17  C   UNL     1      -5.966  11.388  69.643  1.00  0.00    -0.098 A  
HETATM   18  O   UNL     1      -5.687  10.178  71.644  1.00  0.00    -0.266 OA 
HETATM   19  C   UNL     1      -8.423  10.170  69.192  1.00  0.00    -0.157 A  
HETATM   20  C   UNL     1      -7.653   9.812  70.311  1.00  0.00    -0.184 A  
ENDBRANCH   3  13
BRANCH   5  21
HETATM   21  C   UNL     1      -8.114   9.651  65.498  1.00  0.00    -0.122 C  
BRANCH  21  22
HETATM   22  C   UNL     1      -8.362   8.367  66.251  1.00  0.00    -0.123 A  
HETATM   23  C   UNL     1      -7.503   6.320  67.203  1.00  0.00    -0.084 A  
HETATM   24  C   UNL     1      -9.874   6.606  67.009  1.00  0.00    -0.207 A  
HETATM   25  C   UNL     1      -7.285   7.584  66.663  1.00  0.00    -0.083 A  
HETATM   26  C   UNL     1      -8.792   5.780  67.276  1.00  0.00    -0.106 A  
HETATM   27  C   UNL     1      -9.649   7.915  66.586  1.00  0.00    -0.293 A  
BRANCH  26  28
HETATM   28  O   UNL     1      -9.076   4.461  67.574  1.00  0.00    -0.116 OA 
BRANCH  28  29
HETATM   29  C   UNL     1      -9.568   4.303  68.908  1.00  0.00    -0.157 C  
BRANCH  29  30
HETATM   30  C   UNL     1      -8.521   3.876  69.947  1.00  0.00    -0.060 C  
BRANCH  30  31
HETATM   31  N   UNL     1      -8.798   4.513  71.270  1.00  0.00    -0.118 NA 
HETATM   32  C   UNL     1      -9.999   3.931  71.896  1.00  0.00    -0.168 C  
HETATM   33  C   UNL     1     -10.437   4.479  73.253  1.00  0.00    -0.259 C  
HETATM   34  C   UNL     1      -9.520   4.053  74.383  1.00  0.00    -0.130 C  
HETATM   35  C   UNL     1      -8.301   4.945  74.555  1.00  0.00    -0.100 C  
HETATM   36  C   UNL     1      -7.671   5.479  73.273  1.00  0.00    -0.100 C  
HETATM   37  C   UNL     1      -7.597   4.480  72.113  1.00  0.00    -0.089 C  
ENDBRANCH  30  31
ENDBRANCH  29  30
ENDBRANCH  28  29
ENDBRANCH  26  28
ENDBRANCH  21  22
ENDBRANCH   5  21
TORSDOF 7
ENDMDL
MODEL      130
REMARK 921   NORMALIZED FREE ENERGY PREDICTED BY IDOCK:   -4.53 KCAL/MOL
REMARK 922        TOTAL FREE ENERGY PREDICTED BY IDOCK:   -9.44 KCAL/MOL
REMARK 923 INTER-LIGAND FREE ENERGY PREDICTED BY IDOCK:   -7.75 KCAL/MOL
REMARK 924 INTRA-LIGAND FREE ENERGY PREDICTED BY IDOCK:   -1.69 KCAL/MOL
REMARK 927      BINDING AFFINITY PREDICTED BY RF-SCORE:    0.00 PKD
ROOT
HETATM    1  C   UNL     1     -11.933  13.214  70.407  1.00  0.00    -0.343 C  
HETATM    2  C   UNL     1     -11.521  12.293  69.302  1.00  0.00    -0.352 A  
HETATM    3  C   UNL     1     -11.217  10.925  69.322  1.00  0.00    -0.265 A  
HETATM    4  C   UNL     1     -11.687  12.994  65.173  1.00  0.00    -0.379 A  
HETATM    5  N   UNL     1     -10.972  10.560  67.978  1.00  0.00    -0.269 NA 
HETATM    6  O   UNL     1     -11.858  15.326  65.344  1.00  0.00    -0.109 OA 
HETATM    7  C   UNL     1     -11.331  11.615  67.142  1.00  0.00    -0.306 A  
HETATM    8  C   UNL     1     -11.721  14.120  65.964  1.00  0.00    -0.382 A  
HETATM    9  C   UNL     1     -11.482  12.740  67.947  1.00  0.00    -0.365 A  
HETATM   10  H   UNL     1     -11.898  15.399  64.398  1.00  0.00     0.000 HD 
HETATM   11  C   UNL     1     -11.535  11.736  65.755  1.00  0.00    -0.258 A  
HETATM   12  C   UNL     1     -11.662  14.012  67.348  1.00  0.00    -0.421 A  
ENDROOT
BRANCH   3  13
HETATM   13  C   UNL     1     -11.161  10.005  70.496  1.00  0.00    -0.408 A  
HETATM   14  C   UNL     1     -11.125   8.139  72.623  1.00  0.00    -0.380 A  
HETATM   15  H   UNL     1     -11.972   6.909  73.999  1.00  0.00     0.000 HD 
HETATM   16  C   UNL     1     -12.344   9.565  71.114  1.00  0.00    -0.410 A  
HETATM   17  C   UNL     1     -12.333   8.615  72.142  1.00  0.00    -0.452 A  
HETATM   18  O   UNL     1     -11.155   7.220  73.628  1.00  0.00    -0.221 OA 
HETATM   19  C   UNL     1      -9.954   9.495  71.005  1.00  0.00    -0.269 A  
HETATM   20  C   UNL     1      -9.931   8.594  72.082  1.00  0.00    -0.386 A  
ENDBRANCH   3  13
BRANCH   5  21
HETATM   21  C   UNL     1     -10.409   9.249  67.559  1.00  0.00    -0.262 C  
BRANCH  21  22
HETATM   22  C   UNL     1      -9.153   9.265  66.723  1.00  0.00    -0.170 A  
HETATM   23  C   UNL     1      -8.095   9.054  64.561  1.00  0.00    -0.143 A  
HETATM   24  C   UNL     1      -6.727   9.069  66.528  1.00  0.00    -0.075 A  
HETATM   25  C   UNL     1      -9.242   9.212  65.333  1.00  0.00    -0.266 A  
HETATM   26  C   UNL     1      -6.843   8.870  65.160  1.00  0.00    -0.076 A  
HETATM   27  C   UNL     1      -7.866   9.352  67.280  1.00  0.00    -0.099 A  
BRANCH  26  28
HETATM   28  O   UNL     1      -5.702   8.475  64.490  1.00  0.00    -0.061 OA 
BRANCH  28  29
HETATM   29  C   UNL     1      -5.848   7.187  63.885  1.00  0.00    -0.040 C  
BRANCH  29  30
HETATM   30  C   UNL     1      -5.534   5.994  64.799  1.00  0.00    -0.017 C  
BRANCH  30  31
HETATM   31  N   UNL     1      -6.507   4.883  64.572  1.00  0.00    -0.037 NA 
HETATM   32  C   UNL     1      -5.960   3.597  65.036  1.00  0.00    -0.023 C  
HETATM   33  C   UNL     1      -6.821   2.346  64.866  1.00  0.00    -0.047 C  
HETATM   34  C   UNL     1      -7.995   2.306  65.824  1.00  0.00    -0.082 C  
HETATM   35  C   UNL     1      -9.217   3.065  65.333  1.00  0.00    -0.141 C  
HETATM   36  C   UNL     1      -8.945   4.359  64.574  1.00  0.00    -0.151 C  
HETATM   37  C   UNL     1      -7.816   5.227  65.141  1.00  0.00    -0.093 C  
ENDBRANCH  30  31
ENDBRANCH  29  30
ENDBRANCH  28  29
ENDBRANCH  26  28
ENDBRANCH  21  22
ENDBRANCH   5  21
TORSDOF 7
ENDMDL
MODEL      131
REMARK 921   NORMALIZED FREE ENERGY PREDICTED BY IDOCK:   -4.53 KCAL/MOL
REMARK 922        TOTAL FREE ENERGY PREDICTED BY IDOCK:   -9.44 KCAL/MOL
REMARK 923 INTER-LIGAND FREE ENERGY PREDICTED BY IDOCK:   -7.66 KCAL/MOL
REMARK 924 INTRA-LIGAND FREE ENERGY PREDICTED BY IDOCK:   -1.78 KCAL/MOL
REMARK 927      BINDING AFFINITY PREDICTED BY RF-SCORE:    0.00 PKD
ROOT
HETATM    1  C   UNL     1      -7.346   8.142  64.213  1.00  0.00    -0.094 C  
HETATM    2  C   UNL     1      -7.429   8.149  65.707  1.00  0.00    -0.080 A  
HETATM    3  C   UNL     1      -7.732   7.118  66.607  1.00  0.00    -0.097 A  
HETATM    4  C   UNL     1      -6.089  11.119  68.343  1.00  0.00    -0.045 A  
HETATM    5  N   UNL     1      -7.585   7.674  67.899  1.00  0.00    -0.114 NA 
HETATM    6  O   UNL     1      -5.965  12.816  66.731  1.00  0.00    -0.443 OA 
HETATM    7  C   UNL     1      -6.998   8.932  67.795  1.00  0.00    -0.075 A  
HETATM    8  C   UNL     1      -6.277  11.527  67.043  1.00  0.00    -0.134 A  
HETATM    9  C   UNL     1      -7.078   9.311  66.458  1.00  0.00    -0.085 A  
HETATM   10  H   UNL     1      -5.656  13.428  67.389  1.00  0.00     0.000 HD 
HETATM   11  C   UNL     1      -6.406   9.813  68.719  1.00  0.00    -0.046 A  
HETATM   12  C   UNL     1      -6.729  10.632  66.081  1.00  0.00    -0.132 A  
ENDROOT
BRANCH   3  13
HETATM   13  C   UNL     1      -8.124   5.710  66.306  1.00  0.00    -0.107 A  
HETATM   14  C   UNL     1      -8.767   2.990  65.866  1.00  0.00    -0.131 A  
HETATM   15  H   UNL     1      -8.355   1.064  65.371  1.00  0.00     0.000 HD 
HETATM   16  C   UNL     1      -7.178   4.798  65.808  1.00  0.00    -0.076 A  
HETATM   17  C   UNL     1      -7.482   3.444  65.623  1.00  0.00    -0.077 A  
HETATM   18  O   UNL     1      -9.026   1.667  65.668  1.00  0.00    -0.123 OA 
HETATM   19  C   UNL     1      -9.416   5.213  66.549  1.00  0.00    -0.153 A  
HETATM   20  C   UNL     1      -9.748   3.871  66.300  1.00  0.00    -0.176 A  
ENDBRANCH   3  13
BRANCH   5  21
HETATM   21  C   UNL     1      -8.010   6.994  69.152  1.00  0.00    -0.119 C  
BRANCH  21  22
HETATM   22  C   UNL     1      -9.233   7.531  69.855  1.00  0.00    -0.147 A  
HETATM   23  C   UNL     1     -11.636   7.564  70.106  1.00  0.00    -0.046 A  
HETATM   24  C   UNL     1     -10.329   9.248  71.200  1.00  0.00    -0.392 A  
HETATM   25  C   UNL     1     -10.484   6.971  69.599  1.00  0.00    -0.238 A  
HETATM   26  C   UNL     1     -11.573   8.768  70.816  1.00  0.00    -0.251 A  
HETATM   27  C   UNL     1      -9.179   8.576  70.791  1.00  0.00    -0.204 A  
BRANCH  26  28
HETATM   28  O   UNL     1     -12.668   9.541  71.150  1.00  0.00    -0.317 OA 
BRANCH  28  29
HETATM   29  C   UNL     1     -12.337  10.928  71.258  1.00  0.00    -0.343 C  
BRANCH  29  30
HETATM   30  C   UNL     1     -13.352  11.787  72.024  1.00  0.00    -0.312 C  
BRANCH  30  31
HETATM   31  N   UNL     1     -13.228  13.226  71.637  1.00  0.00    -0.380 NA 
HETATM   32  C   UNL     1     -13.221  14.095  72.826  1.00  0.00    -0.509 C  
HETATM   33  C   UNL     1     -13.115  15.604  72.611  1.00  0.00    -0.572 C  
HETATM   34  C   UNL     1     -11.733  16.038  72.162  1.00  0.00    -0.587 C  
HETATM   35  C   UNL     1     -11.513  15.933  70.661  1.00  0.00    -0.426 C  
HETATM   36  C   UNL     1     -12.158  14.738  69.969  1.00  0.00    -0.380 C  
HETATM   37  C   UNL     1     -12.083  13.414  70.739  1.00  0.00    -0.250 C  
ENDBRANCH  30  31
ENDBRANCH  29  30
ENDBRANCH  28  29
ENDBRANCH  26  28
ENDBRANCH  21  22
ENDBRANCH   5  21
TORSDOF 7
ENDMDL
MODEL      132
REMARK 921   NORMALIZED FREE ENERGY PREDICTED BY IDOCK:   -4.52 KCAL/MOL
REMARK 922        TOTAL FREE ENERGY PREDICTED BY IDOCK:   -9.44 KCAL/MOL
REMARK 923 INTER-LIGAND FREE ENERGY PREDICTED BY IDOCK:   -8.81 KCAL/MOL
REMARK 924 INTRA-LIGAND FREE ENERGY PREDICTED BY IDOCK:   -0.62 KCAL/MOL
REMARK 927      BINDING AFFINITY PREDICTED BY RF-SCORE:    0.00 PKD
ROOT
HETATM    1  C   UNL     1     -10.905   6.837  71.195  1.00  0.00    -0.275 C  
HETATM    2  C   UNL     1     -10.523   7.675  70.015  1.00  0.00    -0.229 A  
HETATM    3  C   UNL     1      -9.886   7.324  68.816  1.00  0.00    -0.161 A  
HETATM    4  C   UNL     1     -11.750  11.584  69.132  1.00  0.00    -0.395 A  
HETATM    5  N   UNL     1      -9.854   8.501  68.033  1.00  0.00    -0.163 NA 
HETATM    6  O   UNL     1     -12.462  12.096  71.306  1.00  0.00    -0.304 OA 
HETATM    7  C   UNL     1     -10.640   9.479  68.639  1.00  0.00    -0.210 A  
HETATM    8  C   UNL     1     -11.895  11.203  70.446  1.00  0.00    -0.369 A  
HETATM    9  C   UNL     1     -10.892   9.051  69.940  1.00  0.00    -0.228 A  
HETATM   10  H   UNL     1     -12.723  12.965  71.023  1.00  0.00     0.000 HD 
HETATM   11  C   UNL     1     -11.163  10.713  68.213  1.00  0.00    -0.362 A  
HETATM   12  C   UNL     1     -11.513   9.933  70.860  1.00  0.00    -0.456 A  
ENDROOT
BRANCH   3  13
HETATM   13  C   UNL     1      -9.348   5.994  68.407  1.00  0.00    -0.120 A  
HETATM   14  C   UNL     1      -8.345   3.419  67.796  1.00  0.00    -0.085 A  
HETATM   15  H   UNL     1      -7.009   1.895  67.916  1.00  0.00     0.000 HD 
HETATM   16  C   UNL     1      -8.097   5.557  68.876  1.00  0.00    -0.095 A  
HETATM   17  C   UNL     1      -7.614   4.271  68.606  1.00  0.00    -0.063 A  
HETATM   18  O   UNL     1      -7.839   2.179  67.551  1.00  0.00    -0.060 OA 
HETATM   19  C   UNL     1     -10.066   5.101  67.595  1.00  0.00    -0.204 A  
HETATM   20  C   UNL     1      -9.557   3.834  67.262  1.00  0.00    -0.213 A  
ENDBRANCH   3  13
BRANCH   5  21
HETATM   21  C   UNL     1      -9.084   8.641  66.769  1.00  0.00    -0.149 C  
BRANCH  21  22
HETATM   22  C   UNL     1      -9.246   9.925  65.993  1.00  0.00    -0.215 A  
HETATM   23  C   UNL     1      -9.014  12.327  65.881  1.00  0.00     0.135 A  
HETATM   24  C   UNL     1     -10.291  11.203  64.194  1.00  0.00    -0.423 A  
HETATM   25  C   UNL     1      -8.724  11.114  66.499  1.00  0.00    -0.174 A  
HETATM   26  C   UNL     1      -9.889  12.390  64.792  1.00  0.00    -0.079 A  
HETATM   27  C   UNL     1      -9.892   9.987  64.748  1.00  0.00    -0.325 A  
BRANCH  26  28
HETATM   28  O   UNL     1     -10.413  13.557  64.270  1.00  0.00    -0.414 OA 
BRANCH  28  29
HETATM   29  C   UNL     1     -10.711  14.517  65.287  1.00  0.00    -0.376 C  
BRANCH  29  30
HETATM   30  C   UNL     1     -10.972  15.944  64.785  1.00  0.00    -0.375 C  
BRANCH  30  31
HETATM   31  N   UNL     1     -10.259  16.944  65.638  1.00  0.00    -0.590 NA 
HETATM   32  C   UNL     1     -10.824  18.292  65.456  1.00  0.00     0.179 C  
HETATM   33  C   UNL     1     -10.201  19.443  66.244  1.00  0.00    -0.566 C  
HETATM   34  C   UNL     1     -10.537  19.393  67.722  1.00  0.00    -0.538 C  
HETATM   35  C   UNL     1      -9.612  18.500  68.533  1.00  0.00    -0.388 C  
HETATM   36  C   UNL     1      -9.148  17.218  67.852  1.00  0.00    -0.239 C  
HETATM   37  C   UNL     1     -10.215  16.486  67.031  1.00  0.00    -0.288 C  
ENDBRANCH  30  31
ENDBRANCH  29  30
ENDBRANCH  28  29
ENDBRANCH  26  28
ENDBRANCH  21  22
ENDBRANCH   5  21
TORSDOF 7
ENDMDL
MODEL      133
REMARK 921   NORMALIZED FREE ENERGY PREDICTED BY IDOCK:   -4.52 KCAL/MOL
REMARK 922        TOTAL FREE ENERGY PREDICTED BY IDOCK:   -9.43 KCAL/MOL
REMARK 923 INTER-LIGAND FREE ENERGY PREDICTED BY IDOCK:   -7.38 KCAL/MOL
REMARK 924 INTRA-LIGAND FREE ENERGY PREDICTED BY IDOCK:   -2.06 KCAL/MOL
REMARK 927      BINDING AFFINITY PREDICTED BY RF-SCORE:    0.00 PKD
ROOT
HETATM    1  C   UNL     1      -8.587   4.011  70.371  1.00  0.00    -0.109 C  
HETATM    2  C   UNL     1      -8.994   4.748  69.134  1.00  0.00    -0.133 A  
HETATM    3  C   UNL     1      -9.783   5.897  68.976  1.00  0.00    -0.136 A  
HETATM    4  C   UNL     1      -7.453   4.320  65.260  1.00  0.00    -0.073 A  
HETATM    5  N   UNL     1      -9.768   6.192  67.593  1.00  0.00    -0.114 NA 
HETATM    6  O   UNL     1      -6.475   2.223  65.634  1.00  0.00    -0.023 OA 
HETATM    7  C   UNL     1      -8.825   5.385  66.960  1.00  0.00    -0.110 A  
HETATM    8  C   UNL     1      -7.217   3.263  66.108  1.00  0.00    -0.067 A  
HETATM    9  C   UNL     1      -8.490   4.371  67.853  1.00  0.00    -0.102 A  
HETATM   10  H   UNL     1      -6.152   2.206  64.741  1.00  0.00     0.000 HD 
HETATM   11  C   UNL     1      -8.219   5.404  65.690  1.00  0.00    -0.124 A  
HETATM   12  C   UNL     1      -7.689   3.287  67.415  1.00  0.00    -0.077 A  
ENDROOT
BRANCH   3  13
HETATM   13  C   UNL     1     -10.498   6.681  70.024  1.00  0.00    -0.250 A  
HETATM   14  C   UNL     1     -11.870   8.298  71.899  1.00  0.00    -0.324 A  
HETATM   15  H   UNL     1     -12.095   9.909  73.113  1.00  0.00     0.000 HD 
HETATM   16  C   UNL     1      -9.906   7.824  70.588  1.00  0.00    -0.182 A  
HETATM   17  C   UNL     1     -10.594   8.647  71.488  1.00  0.00    -0.352 A  
HETATM   18  O   UNL     1     -12.505   9.119  72.780  1.00  0.00    -0.183 OA 
HETATM   19  C   UNL     1     -11.797   6.362  70.457  1.00  0.00    -0.316 A  
HETATM   20  C   UNL     1     -12.468   7.143  71.412  1.00  0.00    -0.427 A  
ENDBRANCH   3  13
BRANCH   5  21
HETATM   21  C   UNL     1     -10.643   7.206  66.947  1.00  0.00    -0.301 C  
BRANCH  21  22
HETATM   22  C   UNL     1     -10.193   8.646  66.993  1.00  0.00    -0.360 A  
HETATM   23  C   UNL     1      -8.520  10.315  66.490  1.00  0.00    -0.126 A  
HETATM   24  C   UNL     1     -10.323  10.883  67.960  1.00  0.00    -0.212 A  
HETATM   25  C   UNL     1      -9.038   9.035  66.315  1.00  0.00    -0.224 A  
HETATM   26  C   UNL     1      -9.097  11.208  67.399  1.00  0.00    -0.142 A  
HETATM   27  C   UNL     1     -10.899   9.645  67.682  1.00  0.00    -0.276 A  
BRANCH  26  28
HETATM   28  O   UNL     1      -8.521  12.396  67.806  1.00  0.00    -0.148 OA 
BRANCH  28  29
HETATM   29  C   UNL     1      -9.483  13.448  67.928  1.00  0.00    -0.216 C  
BRANCH  29  30
HETATM   30  C   UNL     1      -9.591  14.381  66.713  1.00  0.00    -0.268 C  
BRANCH  30  31
HETATM   31  N   UNL     1      -9.407  15.807  67.123  1.00  0.00    -0.210 NA 
HETATM   32  C   UNL     1      -7.994  16.210  67.014  1.00  0.00    -0.219 C  
HETATM   33  C   UNL     1      -7.623  17.638  67.410  1.00  0.00    -0.213 C  
HETATM   34  C   UNL     1      -8.099  18.669  66.405  1.00  0.00    -0.300 C  
HETATM   35  C   UNL     1      -9.536  19.116  66.616  1.00  0.00    -0.394 C  
HETATM   36  C   UNL     1     -10.516  18.039  67.067  1.00  0.00    -0.361 C  
HETATM   37  C   UNL     1     -10.344  16.671  66.396  1.00  0.00    -0.306 C  
ENDBRANCH  30  31
ENDBRANCH  29  30
ENDBRANCH  28  29
ENDBRANCH  26  28
ENDBRANCH  21  22
ENDBRANCH   5  21
TORSDOF 7
ENDMDL
MODEL      134
REMARK 921   NORMALIZED FREE ENERGY PREDICTED BY IDOCK:   -4.52 KCAL/MOL
REMARK 922        TOTAL FREE ENERGY PREDICTED BY IDOCK:   -9.43 KCAL/MOL
REMARK 923 INTER-LIGAND FREE ENERGY PREDICTED BY IDOCK:   -6.89 KCAL/MOL
REMARK 924 INTRA-LIGAND FREE ENERGY PREDICTED BY IDOCK:   -2.54 KCAL/MOL
REMARK 927      BINDING AFFINITY PREDICTED BY RF-SCORE:    0.00 PKD
ROOT
HETATM    1  C   UNL     1     -12.153  13.797  69.589  1.00  0.00    -0.392 C  
HETATM    2  C   UNL     1     -10.857  13.879  68.845  1.00  0.00    -0.278 A  
HETATM    3  C   UNL     1     -10.057  12.868  68.293  1.00  0.00    -0.242 A  
HETATM    4  C   UNL     1      -9.034  17.287  67.224  1.00  0.00    -0.233 A  
HETATM    5  N   UNL     1      -8.993  13.528  67.638  1.00  0.00    -0.189 NA 
HETATM    6  O   UNL     1     -10.258  18.828  68.498  1.00  0.00    -0.377 OA 
HETATM    7  C   UNL     1      -9.253  14.896  67.599  1.00  0.00    -0.187 A  
HETATM    8  C   UNL     1      -9.975  17.529  68.198  1.00  0.00    -0.321 A  
HETATM    9  C   UNL     1     -10.285  15.140  68.500  1.00  0.00    -0.231 A  
HETATM   10  H   UNL     1      -9.804  19.548  68.075  1.00  0.00     0.000 HD 
HETATM   11  C   UNL     1      -8.697  15.976  66.888  1.00  0.00    -0.259 A  
HETATM   12  C   UNL     1     -10.639  16.477  68.815  1.00  0.00    -0.322 A  
ENDROOT
BRANCH   3  13
HETATM   13  C   UNL     1     -10.258  11.391  68.355  1.00  0.00    -0.206 A  
HETATM   14  C   UNL     1     -10.493   8.571  68.382  1.00  0.00    -0.171 A  
HETATM   15  H   UNL     1     -10.741   6.743  67.534  1.00  0.00     0.000 HD 
HETATM   16  C   UNL     1     -10.550  10.662  67.189  1.00  0.00    -0.312 A  
HETATM   17  C   UNL     1     -10.631   9.264  67.191  1.00  0.00    -0.286 A  
HETATM   18  O   UNL     1     -10.585   7.212  68.345  1.00  0.00    -0.201 OA 
HETATM   19  C   UNL     1     -10.117  10.654  69.543  1.00  0.00    -0.164 A  
HETATM   20  C   UNL     1     -10.265   9.257  69.566  1.00  0.00    -0.214 A  
ENDBRANCH   3  13
BRANCH   5  21
HETATM   21  C   UNL     1      -7.793  12.838  67.093  1.00  0.00    -0.092 C  
BRANCH  21  22
HETATM   22  C   UNL     1      -7.077  11.866  67.999  1.00  0.00    -0.084 A  
HETATM   23  C   UNL     1      -6.277   9.626  68.423  1.00  0.00    -0.047 A  
HETATM   24  C   UNL     1      -6.280  11.217  70.214  1.00  0.00    -0.124 A  
HETATM   25  C   UNL     1      -6.780  10.582  67.545  1.00  0.00    -0.070 A  
HETATM   26  C   UNL     1      -6.129   9.906  69.786  1.00  0.00    -0.045 A  
HETATM   27  C   UNL     1      -6.664  12.197  69.300  1.00  0.00    -0.084 A  
BRANCH  26  28
HETATM   28  O   UNL     1      -5.865   8.961  70.758  1.00  0.00    -0.032 OA 
BRANCH  28  29
HETATM   29  C   UNL     1      -6.993   8.728  71.606  1.00  0.00    -0.072 C  
BRANCH  29  30
HETATM   30  C   UNL     1      -7.047   7.340  72.259  1.00  0.00    -0.067 C  
BRANCH  30  31
HETATM   31  N   UNL     1      -8.461   6.932  72.519  1.00  0.00    -0.117 NA 
HETATM   32  C   UNL     1      -8.992   6.126  71.406  1.00  0.00    -0.143 C  
HETATM   33  C   UNL     1     -10.436   5.636  71.500  1.00  0.00    -0.298 C  
HETATM   34  C   UNL     1     -10.614   4.527  72.519  1.00  0.00    -0.225 C  
HETATM   35  C   UNL     1     -10.821   5.026  73.941  1.00  0.00    -0.336 C  
HETATM   36  C   UNL     1     -10.020   6.259  74.344  1.00  0.00    -0.346 C  
HETATM   37  C   UNL     1      -8.574   6.297  73.837  1.00  0.00    -0.123 C  
ENDBRANCH  30  31
ENDBRANCH  29  30
ENDBRANCH  28  29
ENDBRANCH  26  28
ENDBRANCH  21  22
ENDBRANCH   5  21
TORSDOF 7
ENDMDL
MODEL      135
REMARK 921   NORMALIZED FREE ENERGY PREDICTED BY IDOCK:   -4.49 KCAL/MOL
REMARK 922        TOTAL FREE ENERGY PREDICTED BY IDOCK:   -9.39 KCAL/MOL
REMARK 923 INTER-LIGAND FREE ENERGY PREDICTED BY IDOCK:   -6.92 KCAL/MOL
REMARK 924 INTRA-LIGAND FREE ENERGY PREDICTED BY IDOCK:   -2.48 KCAL/MOL
REMARK 927      BINDING AFFINITY PREDICTED BY RF-SCORE:    0.00 PKD
ROOT
HETATM    1  C   UNL     1     -12.105  13.196  65.968  1.00  0.00    -0.495 C  
HETATM    2  C   UNL     1     -10.816  13.084  66.720  1.00  0.00    -0.285 A  
HETATM    3  C   UNL     1      -9.692  12.279  66.487  1.00  0.00    -0.234 A  
HETATM    4  C   UNL     1      -9.333  15.654  69.680  1.00  0.00    -0.217 A  
HETATM    5  N   UNL     1      -8.740  12.646  67.465  1.00  0.00    -0.173 NA 
HETATM    6  O   UNL     1     -11.395  16.660  70.163  1.00  0.00    -0.431 OA 
HETATM    7  C   UNL     1      -9.180  13.788  68.130  1.00  0.00    -0.199 A  
HETATM    8  C   UNL     1     -10.688  15.734  69.455  1.00  0.00    -0.278 A  
HETATM    9  C   UNL     1     -10.528  13.947  67.819  1.00  0.00    -0.243 A  
HETATM   10  H   UNL     1     -10.980  17.215  70.813  1.00  0.00     0.000 HD 
HETATM   11  C   UNL     1      -8.565  14.715  68.992  1.00  0.00    -0.097 A  
HETATM   12  C   UNL     1     -11.295  14.923  68.504  1.00  0.00    -0.314 A  
ENDROOT
BRANCH   3  13
HETATM   13  C   UNL     1      -9.498  11.242  65.431  1.00  0.00    -0.251 A  
HETATM   14  C   UNL     1      -8.981   9.355  63.387  1.00  0.00    -0.119 A  
HETATM   15  H   UNL     1      -8.714   8.761  61.463  1.00  0.00     0.000 HD 
HETATM   16  C   UNL     1      -9.555  11.591  64.071  1.00  0.00    -0.189 A  
HETATM   17  C   UNL     1      -9.264  10.670  63.058  1.00  0.00    -0.311 A  
HETATM   18  O   UNL     1      -8.710   8.487  62.373  1.00  0.00    -0.179 OA 
HETATM   19  C   UNL     1      -9.200   9.902  65.729  1.00  0.00    -0.228 A  
HETATM   20  C   UNL     1      -8.975   8.955  64.716  1.00  0.00    -0.088 A  
ENDBRANCH   3  13
BRANCH   5  21
HETATM   21  C   UNL     1      -7.479  11.902  67.723  1.00  0.00    -0.121 C  
BRANCH  21  22
HETATM   22  C   UNL     1      -7.414  11.048  68.965  1.00  0.00    -0.129 A  
HETATM   23  C   UNL     1      -6.103  10.045  70.729  1.00  0.00    -0.092 A  
HETATM   24  C   UNL     1      -8.370   9.336  70.420  1.00  0.00    -0.224 A  
HETATM   25  C   UNL     1      -6.224  10.958  69.686  1.00  0.00    -0.085 A  
HETATM   26  C   UNL     1      -7.137   9.152  71.029  1.00  0.00    -0.098 A  
HETATM   27  C   UNL     1      -8.519  10.337  69.462  1.00  0.00    -0.156 A  
BRANCH  26  28
HETATM   28  O   UNL     1      -7.020   8.070  71.880  1.00  0.00    -0.061 OA 
BRANCH  28  29
HETATM   29  C   UNL     1      -6.948   6.830  71.170  1.00  0.00    -0.070 C  
BRANCH  29  30
HETATM   30  C   UNL     1      -8.086   5.842  71.460  1.00  0.00    -0.118 C  
BRANCH  30  31
HETATM   31  N   UNL     1      -8.935   5.641  70.246  1.00  0.00    -0.138 NA 
HETATM   32  C   UNL     1     -10.210   6.369  70.365  1.00  0.00    -0.192 C  
HETATM   33  C   UNL     1     -11.209   6.261  69.214  1.00  0.00    -0.458 C  
HETATM   34  C   UNL     1     -10.771   7.029  67.983  1.00  0.00    -0.252 C  
HETATM   35  C   UNL     1      -9.830   6.253  67.076  1.00  0.00    -0.185 C  
HETATM   36  C   UNL     1      -8.810   5.359  67.772  1.00  0.00    -0.105 C  
HETATM   37  C   UNL     1      -8.170   5.951  69.032  1.00  0.00    -0.103 C  
ENDBRANCH  30  31
ENDBRANCH  29  30
ENDBRANCH  28  29
ENDBRANCH  26  28
ENDBRANCH  21  22
ENDBRANCH   5  21
TORSDOF 7
ENDMDL
MODEL      136
REMARK 921   NORMALIZED FREE ENERGY PREDICTED BY IDOCK:   -4.48 KCAL/MOL
REMARK 922        TOTAL FREE ENERGY PREDICTED BY IDOCK:   -9.38 KCAL/MOL
REMARK 923 INTER-LIGAND FREE ENERGY PREDICTED BY IDOCK:   -8.06 KCAL/MOL
REMARK 924 INTRA-LIGAND FREE ENERGY PREDICTED BY IDOCK:   -1.33 KCAL/MOL
REMARK 927      BINDING AFFINITY PREDICTED BY RF-SCORE:    0.00 PKD
ROOT
HETATM    1  C   UNL     1     -10.530  10.558  63.398  1.00  0.00     0.274 C  
HETATM    2  C   UNL     1     -10.249  10.976  64.807  1.00  0.00    -0.381 A  
HETATM    3  C   UNL     1      -9.231  10.585  65.688  1.00  0.00    -0.186 A  
HETATM    4  C   UNL     1     -11.904  14.202  66.911  1.00  0.00    -0.458 A  
HETATM    5  N   UNL     1      -9.409  11.360  66.857  1.00  0.00    -0.177 NA 
HETATM    6  O   UNL     1     -13.743  14.485  65.484  1.00  0.00    -0.367 OA 
HETATM    7  C   UNL     1     -10.362  12.346  66.616  1.00  0.00    -0.226 A  
HETATM    8  C   UNL     1     -12.618  13.787  65.810  1.00  0.00    -0.480 A  
HETATM    9  C   UNL     1     -11.018  11.999  65.438  1.00  0.00    -0.347 A  
HETATM   10  H   UNL     1     -14.047  15.215  66.011  1.00  0.00     0.000 HD 
HETATM   11  C   UNL     1     -10.753  13.514  67.296  1.00  0.00    -0.272 A  
HETATM   12  C   UNL     1     -12.172  12.720  65.040  1.00  0.00    -0.527 A  
ENDROOT
BRANCH   3  13
HETATM   13  C   UNL     1      -8.158   9.571  65.472  1.00  0.00    -0.116 A  
HETATM   14  C   UNL     1      -6.137   7.605  65.229  1.00  0.00    -0.038 A  
HETATM   15  H   UNL     1      -4.324   6.780  65.620  1.00  0.00     0.000 HD 
HETATM   16  C   UNL     1      -6.901   9.723  66.082  1.00  0.00    -0.090 A  
HETATM   17  C   UNL     1      -5.912   8.736  65.994  1.00  0.00    -0.051 A  
HETATM   18  O   UNL     1      -5.149   6.670  65.162  1.00  0.00    -0.020 OA 
HETATM   19  C   UNL     1      -8.355   8.407  64.710  1.00  0.00    -0.151 A  
HETATM   20  C   UNL     1      -7.343   7.444  64.559  1.00  0.00    -0.087 A  
ENDBRANCH   3  13
BRANCH   5  21
HETATM   21  C   UNL     1      -8.680  11.125  68.132  1.00  0.00    -0.144 C  
BRANCH  21  22
HETATM   22  C   UNL     1      -9.467  10.566  69.292  1.00  0.00    -0.191 A  
HETATM   23  C   UNL     1      -9.602   9.057  71.174  1.00  0.00    -0.356 A  
HETATM   24  C   UNL     1     -11.597  10.140  70.407  1.00  0.00    -0.396 A  
HETATM   25  C   UNL     1      -8.849   9.711  70.204  1.00  0.00    -0.266 A  
HETATM   26  C   UNL     1     -10.995   9.182  71.210  1.00  0.00    -0.330 A  
HETATM   27  C   UNL     1     -10.815  10.882  69.523  1.00  0.00    -0.286 A  
BRANCH  26  28
HETATM   28  O   UNL     1     -11.835   8.397  71.976  1.00  0.00    -0.305 OA 
BRANCH  28  29
HETATM   29  C   UNL     1     -11.140   7.319  72.608  1.00  0.00    -0.313 C  
BRANCH  29  30
HETATM   30  C   UNL     1     -11.347   5.939  71.967  1.00  0.00    -0.267 C  
BRANCH  30  31
HETATM   31  N   UNL     1     -10.505   5.793  70.741  1.00  0.00    -0.242 NA 
HETATM   32  C   UNL     1      -9.928   4.441  70.653  1.00  0.00    -0.183 C  
HETATM   33  C   UNL     1      -9.024   4.122  69.464  1.00  0.00    -0.161 C  
HETATM   34  C   UNL     1      -9.791   3.987  68.163  1.00  0.00    -0.060 C  
HETATM   35  C   UNL     1     -10.044   5.310  67.458  1.00  0.00    -0.222 C  
HETATM   36  C   UNL     1     -10.346   6.504  68.357  1.00  0.00    -0.220 C  
HETATM   37  C   UNL     1     -11.259   6.211  69.553  1.00  0.00    -0.411 C  
ENDBRANCH  30  31
ENDBRANCH  29  30
ENDBRANCH  28  29
ENDBRANCH  26  28
ENDBRANCH  21  22
ENDBRANCH   5  21
TORSDOF 7
ENDMDL
MODEL      137
REMARK 921   NORMALIZED FREE ENERGY PREDICTED BY IDOCK:   -4.42 KCAL/MOL
REMARK 922        TOTAL FREE ENERGY PREDICTED BY IDOCK:   -9.29 KCAL/MOL
REMARK 923 INTER-LIGAND FREE ENERGY PREDICTED BY IDOCK:   -6.98 KCAL/MOL
REMARK 924 INTRA-LIGAND FREE ENERGY PREDICTED BY IDOCK:   -2.31 KCAL/MOL
REMARK 927      BINDING AFFINITY PREDICTED BY RF-SCORE:    0.00 PKD
ROOT
HETATM    1  C   UNL     1      -8.417   6.971  67.206  1.00  0.00    -0.121 C  
HETATM    2  C   UNL     1      -9.273   8.193  67.095  1.00  0.00    -0.175 A  
HETATM    3  C   UNL     1     -10.066   8.841  68.054  1.00  0.00    -0.196 A  
HETATM    4  C   UNL     1      -9.348  11.009  63.991  1.00  0.00    -0.231 A  
HETATM    5  N   UNL     1     -10.588   9.990  67.416  1.00  0.00    -0.261 NA 
HETATM    6  O   UNL     1      -8.295   9.635  62.411  1.00  0.00    -0.129 OA 
HETATM    7  C   UNL     1      -9.960  10.158  66.184  1.00  0.00    -0.246 A  
HETATM    8  C   UNL     1      -8.800   9.789  63.668  1.00  0.00    -0.236 A  
HETATM    9  C   UNL     1      -9.303   8.966  65.895  1.00  0.00    -0.301 A  
HETATM   10  H   UNL     1      -8.342  10.330  61.765  1.00  0.00     0.000 HD 
HETATM   11  C   UNL     1      -9.892  11.216  65.259  1.00  0.00    -0.296 A  
HETATM   12  C   UNL     1      -8.730   8.774  64.613  1.00  0.00    -0.103 A  
ENDROOT
BRANCH   3  13
HETATM   13  C   UNL     1     -10.323   8.439  69.468  1.00  0.00    -0.219 A  
HETATM   14  C   UNL     1     -10.935   7.797  72.155  1.00  0.00    -0.266 A  
HETATM   15  H   UNL     1     -11.066   8.172  74.146  1.00  0.00     0.000 HD 
HETATM   16  C   UNL     1     -10.027   9.318  70.524  1.00  0.00    -0.307 A  
HETATM   17  C   UNL     1     -10.361   9.020  71.851  1.00  0.00    -0.357 A  
HETATM   18  O   UNL     1     -11.239   7.541  73.458  1.00  0.00    -0.271 OA 
HETATM   19  C   UNL     1     -10.913   7.211  69.813  1.00  0.00    -0.256 A  
HETATM   20  C   UNL     1     -11.188   6.875  71.149  1.00  0.00    -0.314 A  
ENDBRANCH   3  13
BRANCH   5  21
HETATM   21  C   UNL     1     -11.647  10.857  67.997  1.00  0.00    -0.215 C  
BRANCH  21  22
HETATM   22  C   UNL     1     -11.326  12.319  68.186  1.00  0.00    -0.349 A  
HETATM   23  C   UNL     1     -11.351  14.578  67.327  1.00  0.00    -0.363 A  
HETATM   24  C   UNL     1     -10.056  14.092  69.284  1.00  0.00     0.122 A  
HETATM   25  C   UNL     1     -11.782  13.256  67.260  1.00  0.00    -0.424 A  
HETATM   26  C   UNL     1     -10.399  14.977  68.272  1.00  0.00    -0.236 A  
HETATM   27  C   UNL     1     -10.591  12.805  69.279  1.00  0.00     0.117 A  
BRANCH  26  28
HETATM   28  O   UNL     1      -9.746  16.194  68.263  1.00  0.00    -0.214 OA 
BRANCH  28  29
HETATM   29  C   UNL     1      -8.538  16.164  69.028  1.00  0.00    -0.251 C  
BRANCH  29  30
HETATM   30  C   UNL     1      -7.242  16.109  68.206  1.00  0.00    -0.135 C  
BRANCH  30  31
HETATM   31  N   UNL     1      -6.481  14.857  68.502  1.00  0.00    -0.087 NA 
HETATM   32  C   UNL     1      -6.475  14.570  69.947  1.00  0.00    -0.161 C  
HETATM   33  C   UNL     1      -5.726  13.329  70.429  1.00  0.00    -0.171 C  
HETATM   34  C   UNL     1      -6.438  12.038  70.074  1.00  0.00     0.026 C  
HETATM   35  C   UNL     1      -6.129  11.530  68.675  1.00  0.00    -0.047 C  
HETATM   36  C   UNL     1      -5.973  12.592  67.593  1.00  0.00    -0.136 C  
HETATM   37  C   UNL     1      -6.970  13.754  67.665  1.00  0.00    -0.174 C  
ENDBRANCH  30  31
ENDBRANCH  29  30
ENDBRANCH  28  29
ENDBRANCH  26  28
ENDBRANCH  21  22
ENDBRANCH   5  21
TORSDOF 7
ENDMDL
MODEL      138
REMARK 921   NORMALIZED FREE ENERGY PREDICTED BY IDOCK:   -4.39 KCAL/MOL
REMARK 922        TOTAL FREE ENERGY PREDICTED BY IDOCK:   -9.25 KCAL/MOL
REMARK 923 INTER-LIGAND FREE ENERGY PREDICTED BY IDOCK:   -6.89 KCAL/MOL
REMARK 924 INTRA-LIGAND FREE ENERGY PREDICTED BY IDOCK:   -2.36 KCAL/MOL
REMARK 927      BINDING AFFINITY PREDICTED BY RF-SCORE:    0.00 PKD
ROOT
HETATM    1  C   UNL     1      -7.147   8.848  70.926  1.00  0.00    -0.085 C  
HETATM    2  C   UNL     1      -7.170   9.240  69.482  1.00  0.00    -0.061 A  
HETATM    3  C   UNL     1      -7.635   8.544  68.356  1.00  0.00    -0.096 A  
HETATM    4  C   UNL     1      -6.518  13.039  67.836  1.00  0.00    -0.130 A  
HETATM    5  N   UNL     1      -7.481   9.427  67.262  1.00  0.00    -0.091 NA 
HETATM    6  O   UNL     1      -5.453  13.926  69.727  1.00  0.00    -0.092 OA 
HETATM    7  C   UNL     1      -7.145  10.693  67.736  1.00  0.00    -0.083 A  
HETATM    8  C   UNL     1      -6.036  12.858  69.113  1.00  0.00    -0.092 A  
HETATM    9  C   UNL     1      -6.763  10.542  69.066  1.00  0.00    -0.063 A  
HETATM   10  H   UNL     1      -5.352  14.762  69.286  1.00  0.00     0.000 HD 
HETATM   11  C   UNL     1      -7.111  11.975  67.157  1.00  0.00    -0.130 A  
HETATM   12  C   UNL     1      -6.185  11.637  69.757  1.00  0.00    -0.139 A  
ENDROOT
BRANCH   3  13
HETATM   13  C   UNL     1      -8.192   7.162  68.286  1.00  0.00    -0.124 A  
HETATM   14  C   UNL     1      -9.257   4.540  68.324  1.00  0.00    -0.132 A  
HETATM   15  H   UNL     1      -9.237   2.558  68.763  1.00  0.00     0.000 HD 
HETATM   16  C   UNL     1      -7.453   6.070  68.773  1.00  0.00    -0.086 A  
HETATM   17  C   UNL     1      -7.990   4.778  68.827  1.00  0.00    -0.079 A  
HETATM   18  O   UNL     1      -9.743   3.269  68.389  1.00  0.00    -0.118 OA 
HETATM   19  C   UNL     1      -9.478   6.885  67.790  1.00  0.00    -0.128 A  
HETATM   20  C   UNL     1      -9.997   5.580  67.777  1.00  0.00    -0.188 A  
ENDBRANCH   3  13
BRANCH   5  21
HETATM   21  C   UNL     1      -7.653   9.029  65.840  1.00  0.00    -0.094 C  
BRANCH  21  22
HETATM   22  C   UNL     1      -8.795   9.652  65.075  1.00  0.00    -0.221 A  
HETATM   23  C   UNL     1      -9.700  10.453  62.983  1.00  0.00    -0.288 A  
HETATM   24  C   UNL     1     -10.844  10.977  65.021  1.00  0.00    -0.194 A  
HETATM   25  C   UNL     1      -8.739   9.731  63.684  1.00  0.00    -0.235 A  
HETATM   26  C   UNL     1     -10.694  11.172  63.655  1.00  0.00    -0.308 A  
HETATM   27  C   UNL     1      -9.949  10.151  65.699  1.00  0.00    -0.348 A  
BRANCH  26  28
HETATM   28  O   UNL     1     -11.535  12.093  63.062  1.00  0.00    -0.236 OA 
BRANCH  28  29
HETATM   29  C   UNL     1     -12.334  12.791  64.022  1.00  0.00    -0.411 C  
BRANCH  29  30
HETATM   30  C   UNL     1     -12.237  14.322  63.967  1.00  0.00    -0.299 C  
BRANCH  30  31
HETATM   31  N   UNL     1     -11.659  14.862  65.235  1.00  0.00    -0.330 NA 
HETATM   32  C   UNL     1     -12.038  14.026  66.387  1.00  0.00    -0.455 C  
HETATM   33  C   UNL     1     -11.543  14.444  67.771  1.00  0.00    -0.384 C  
HETATM   34  C   UNL     1     -10.058  14.205  67.959  1.00  0.00    -0.233 C  
HETATM   35  C   UNL     1      -9.182  15.335  67.441  1.00  0.00    -0.201 C  
HETATM   36  C   UNL     1      -9.650  16.013  66.158  1.00  0.00    -0.366 C  
HETATM   37  C   UNL     1     -10.215  15.073  65.086  1.00  0.00    -0.365 C  
ENDBRANCH  30  31
ENDBRANCH  29  30
ENDBRANCH  28  29
ENDBRANCH  26  28
ENDBRANCH  21  22
ENDBRANCH   5  21
TORSDOF 7
ENDMDL
MODEL      139
REMARK 921   NORMALIZED FREE ENERGY PREDICTED BY IDOCK:   -4.38 KCAL/MOL
REMARK 922        TOTAL FREE ENERGY PREDICTED BY IDOCK:   -9.24 KCAL/MOL
REMARK 923 INTER-LIGAND FREE ENERGY PREDICTED BY IDOCK:   -6.62 KCAL/MOL
REMARK 924 INTRA-LIGAND FREE ENERGY PREDICTED BY IDOCK:   -2.62 KCAL/MOL
REMARK 927      BINDING AFFINITY PREDICTED BY RF-SCORE:    0.00 PKD
ROOT
HETATM    1  C   UNL     1      -9.093  14.920  68.067  1.00  0.00    -0.180 C  
HETATM    2  C   UNL     1      -9.270  13.879  67.008  1.00  0.00    -0.257 A  
HETATM    3  C   UNL     1      -8.786  12.565  66.932  1.00  0.00    -0.203 A  
HETATM    4  C   UNL     1     -11.974  13.901  63.805  1.00  0.00    -0.305 A  
HETATM    5  N   UNL     1      -9.331  12.017  65.748  1.00  0.00    -0.179 NA 
HETATM    6  O   UNL     1     -12.402  16.204  63.884  1.00  0.00    -1.100 OA 
HETATM    7  C   UNL     1     -10.289  12.889  65.236  1.00  0.00    -0.300 A  
HETATM    8  C   UNL     1     -11.722  15.129  64.372  1.00  0.00    -0.295 A  
HETATM    9  C   UNL     1     -10.120  14.108  65.885  1.00  0.00    -0.337 A  
HETATM   10  H   UNL     1     -13.009  16.123  63.158  1.00  0.00     0.000 HD 
HETATM   11  C   UNL     1     -11.295  12.769  64.258  1.00  0.00    -0.416 A  
HETATM   12  C   UNL     1     -10.834  15.247  65.435  1.00  0.00    -0.399 A  
ENDROOT
BRANCH   3  13
HETATM   13  C   UNL     1      -7.888  11.851  67.887  1.00  0.00    -0.138 A  
HETATM   14  C   UNL     1      -6.255  10.350  69.644  1.00  0.00    -0.058 A  
HETATM   15  H   UNL     1      -5.904   9.118  71.219  1.00  0.00     0.000 HD 
HETATM   16  C   UNL     1      -8.421  11.186  69.004  1.00  0.00    -0.044 A  
HETATM   17  C   UNL     1      -7.622  10.412  69.855  1.00  0.00    -0.112 A  
HETATM   18  O   UNL     1      -5.510   9.592  70.496  1.00  0.00    -0.038 OA 
HETATM   19  C   UNL     1      -6.499  11.760  67.698  1.00  0.00    -0.082 A  
HETATM   20  C   UNL     1      -5.680  11.043  68.587  1.00  0.00    -0.043 A  
ENDBRANCH   3  13
BRANCH   5  21
HETATM   21  C   UNL     1      -8.915  10.714  65.164  1.00  0.00    -0.198 C  
BRANCH  21  22
HETATM   22  C   UNL     1      -9.076   9.483  66.021  1.00  0.00    -0.220 A  
HETATM   23  C   UNL     1     -10.450   8.136  67.483  1.00  0.00    -0.326 A  
HETATM   24  C   UNL     1      -8.108   7.657  67.321  1.00  0.00    -0.119 A  
HETATM   25  C   UNL     1     -10.324   9.166  66.556  1.00  0.00    -0.269 A  
HETATM   26  C   UNL     1      -9.325   7.450  67.954  1.00  0.00    -0.134 A  
HETATM   27  C   UNL     1      -8.017   8.605  66.304  1.00  0.00    -0.102 A  
BRANCH  26  28
HETATM   28  O   UNL     1      -9.326   6.586  69.033  1.00  0.00    -0.130 OA 
BRANCH  28  29
HETATM   29  C   UNL     1      -8.041   5.999  69.255  1.00  0.00    -0.108 C  
BRANCH  29  30
HETATM   30  C   UNL     1      -7.996   4.467  69.166  1.00  0.00    -0.068 C  
BRANCH  30  31
HETATM   31  N   UNL     1      -7.520   4.029  67.818  1.00  0.00    -0.067 NA 
HETATM   32  C   UNL     1      -6.643   2.850  67.925  1.00  0.00    -0.037 C  
HETATM   33  C   UNL     1      -6.052   2.277  66.637  1.00  0.00    -0.023 C  
HETATM   34  C   UNL     1      -7.082   1.558  65.788  1.00  0.00    -0.046 C  
HETATM   35  C   UNL     1      -7.873   2.476  64.870  1.00  0.00    -0.078 C  
HETATM   36  C   UNL     1      -8.229   3.847  65.435  1.00  0.00    -0.101 C  
HETATM   37  C   UNL     1      -8.658   3.859  66.907  1.00  0.00    -0.107 C  
ENDBRANCH  30  31
ENDBRANCH  29  30
ENDBRANCH  28  29
ENDBRANCH  26  28
ENDBRANCH  21  22
ENDBRANCH   5  21
TORSDOF 7
ENDMDL
MODEL      140
REMARK 921   NORMALIZED FREE ENERGY PREDICTED BY IDOCK:   -4.35 KCAL/MOL
REMARK 922        TOTAL FREE ENERGY PREDICTED BY IDOCK:   -9.20 KCAL/MOL
REMARK 923 INTER-LIGAND FREE ENERGY PREDICTED BY IDOCK:   -7.84 KCAL/MOL
REMARK 924 INTRA-LIGAND FREE ENERGY PREDICTED BY IDOCK:   -1.36 KCAL/MOL
REMARK 927      BINDING AFFINITY PREDICTED BY RF-SCORE:    0.00 PKD
ROOT
HETATM    1  C   UNL     1     -10.371  15.769  67.648  1.00  0.00    -0.281 C  
HETATM    2  C   UNL     1      -9.396  14.642  67.503  1.00  0.00    -0.195 A  
HETATM    3  C   UNL     1      -9.410  13.529  66.650  1.00  0.00    -0.245 A  
HETATM    4  C   UNL     1      -5.511  14.386  69.055  1.00  0.00    -0.084 A  
HETATM    5  N   UNL     1      -8.199  12.840  66.889  1.00  0.00    -0.088 NA 
HETATM    6  O   UNL     1      -5.795  16.070  70.660  1.00  0.00    -0.069 OA 
HETATM    7  C   UNL     1      -7.375  13.623  67.694  1.00  0.00    -0.176 A  
HETATM    8  C   UNL     1      -6.330  15.307  69.666  1.00  0.00    -0.154 A  
HETATM    9  C   UNL     1      -8.169  14.632  68.232  1.00  0.00    -0.146 A  
HETATM   10  H   UNL     1      -4.897  15.956  70.949  1.00  0.00     0.000 HD 
HETATM   11  C   UNL     1      -6.012  13.570  68.040  1.00  0.00    -0.131 A  
HETATM   12  C   UNL     1      -7.643  15.474  69.244  1.00  0.00    -0.221 A  
ENDROOT
BRANCH   3  13
HETATM   13  C   UNL     1     -10.462  13.124  65.672  1.00  0.00    -0.290 A  
HETATM   14  C   UNL     1     -12.383  12.201  63.811  1.00  0.00    -0.532 A  
HETATM   15  H   UNL     1     -13.004  11.513  62.004  1.00  0.00     0.000 HD 
HETATM   16  C   UNL     1     -10.126  12.855  64.334  1.00  0.00    -0.265 A  
HETATM   17  C   UNL     1     -11.065  12.363  63.420  1.00  0.00    -0.465 A  
HETATM   18  O   UNL     1     -13.269  11.727  62.891  1.00  0.00    -0.357 OA 
HETATM   19  C   UNL     1     -11.807  12.941  66.036  1.00  0.00    -0.485 A  
HETATM   20  C   UNL     1     -12.770  12.515  65.106  1.00  0.00    -0.208 A  
ENDBRANCH   3  13
BRANCH   5  21
HETATM   21  C   UNL     1      -7.889  11.488  66.354  1.00  0.00    -0.020 C  
BRANCH  21  22
HETATM   22  C   UNL     1      -8.599  10.312  66.979  1.00  0.00    -0.129 A  
HETATM   23  C   UNL     1      -8.901   8.832  68.865  1.00  0.00    -0.137 A  
HETATM   24  C   UNL     1      -9.906   8.261  66.767  1.00  0.00    -0.333 A  
HETATM   25  C   UNL     1      -8.390  10.008  68.323  1.00  0.00    -0.110 A  
HETATM   26  C   UNL     1      -9.566   7.899  68.063  1.00  0.00    -0.151 A  
HETATM   27  C   UNL     1      -9.497   9.497  66.270  1.00  0.00    -0.267 A  
BRANCH  26  28
HETATM   28  O   UNL     1      -9.896   6.617  68.457  1.00  0.00    -0.136 OA 
BRANCH  28  29
HETATM   29  C   UNL     1     -11.275   6.500  68.817  1.00  0.00    -0.236 C  
BRANCH  29  30
HETATM   30  C   UNL     1     -11.610   6.889  70.264  1.00  0.00    -0.311 C  
BRANCH  30  31
HETATM   31  N   UNL     1     -10.934   5.970  71.229  1.00  0.00    -0.274 NA 
HETATM   32  C   UNL     1      -9.499   6.283  71.341  1.00  0.00    -0.156 C  
HETATM   33  C   UNL     1      -8.648   5.427  72.278  1.00  0.00    -0.126 C  
HETATM   34  C   UNL     1      -8.925   5.706  73.742  1.00  0.00    -0.123 C  
HETATM   35  C   UNL     1     -10.105   4.929  74.304  1.00  0.00    -0.256 C  
HETATM   36  C   UNL     1     -11.291   4.736  73.366  1.00  0.00    -0.397 C  
HETATM   37  C   UNL     1     -11.654   5.953  72.508  1.00  0.00    -0.277 C  
ENDBRANCH  30  31
ENDBRANCH  29  30
ENDBRANCH  28  29
ENDBRANCH  26  28
ENDBRANCH  21  22
ENDBRANCH   5  21
TORSDOF 7
ENDMDL
MODEL      141
REMARK 921   NORMALIZED FREE ENERGY PREDICTED BY IDOCK:   -4.34 KCAL/MOL
REMARK 922        TOTAL FREE ENERGY PREDICTED BY IDOCK:   -9.19 KCAL/MOL
REMARK 923 INTER-LIGAND FREE ENERGY PREDICTED BY IDOCK:   -7.47 KCAL/MOL
REMARK 924 INTRA-LIGAND FREE ENERGY PREDICTED BY IDOCK:   -1.71 KCAL/MOL
REMARK 927      BINDING AFFINITY PREDICTED BY RF-SCORE:    0.00 PKD
ROOT
HETATM    1  C   UNL     1      -9.887  15.145  66.268  1.00  0.00    -0.317 C  
HETATM    2  C   UNL     1     -10.530  14.100  67.123  1.00  0.00    -0.270 A  
HETATM    3  C   UNL     1     -10.628  12.712  66.947  1.00  0.00    -0.240 A  
HETATM    4  C   UNL     1     -11.884  14.481  71.072  1.00  0.00    -0.350 A  
HETATM    5  N   UNL     1     -11.270  12.217  68.105  1.00  0.00    -0.246 NA 
HETATM    6  O   UNL     1     -11.969  16.824  71.058  1.00  0.00    -0.207 OA 
HETATM    7  C   UNL     1     -11.360  13.234  69.052  1.00  0.00    -0.285 A  
HETATM    8  C   UNL     1     -11.727  15.664  70.385  1.00  0.00    -0.357 A  
HETATM    9  C   UNL     1     -11.090  14.430  68.394  1.00  0.00    -0.272 A  
HETATM   10  H   UNL     1     -12.266  16.825  71.960  1.00  0.00     0.000 HD 
HETATM   11  C   UNL     1     -11.662  13.264  70.427  1.00  0.00    -0.161 A  
HETATM   12  C   UNL     1     -11.293  15.662  69.066  1.00  0.00    -0.332 A  
ENDROOT
BRANCH   3  13
HETATM   13  C   UNL     1     -10.158  11.889  65.794  1.00  0.00    -0.272 A  
HETATM   14  C   UNL     1      -9.312  10.187  63.697  1.00  0.00    -0.290 A  
HETATM   15  H   UNL     1      -8.149   8.752  62.856  1.00  0.00     0.000 HD 
HETATM   16  C   UNL     1      -9.030  11.060  65.924  1.00  0.00    -0.208 A  
HETATM   17  C   UNL     1      -8.630  10.190  64.902  1.00  0.00    -0.188 A  
HETATM   18  O   UNL     1      -8.890   9.332  62.725  1.00  0.00    -0.233 OA 
HETATM   19  C   UNL     1     -10.831  11.854  64.561  1.00  0.00    -0.368 A  
HETATM   20  C   UNL     1     -10.394  11.036  63.506  1.00  0.00    -0.402 A  
ENDBRANCH   3  13
BRANCH   5  21
HETATM   21  C   UNL     1     -11.767  10.823  68.251  1.00  0.00    -0.127 C  
BRANCH  21  22
HETATM   22  C   UNL     1     -11.099   9.950  69.285  1.00  0.00    -0.220 A  
HETATM   23  C   UNL     1      -9.278   8.487  69.903  1.00  0.00    -0.154 A  
HETATM   24  C   UNL     1     -11.202   8.612  71.325  1.00  0.00    -0.338 A  
HETATM   25  C   UNL     1      -9.830   9.427  69.039  1.00  0.00    -0.171 A  
HETATM   26  C   UNL     1     -10.007   7.992  70.990  1.00  0.00    -0.182 A  
HETATM   27  C   UNL     1     -11.690   9.642  70.521  1.00  0.00    -0.312 A  
BRANCH  26  28
HETATM   28  O   UNL     1      -9.637   6.902  71.754  1.00  0.00    -0.160 OA 
BRANCH  28  29
HETATM   29  C   UNL     1      -9.250   5.785  70.948  1.00  0.00    -0.156 C  
BRANCH  29  30
HETATM   30  C   UNL     1     -10.209   4.586  70.985  1.00  0.00    -0.097 C  
BRANCH  30  31
HETATM   31  N   UNL     1      -9.595   3.440  71.721  1.00  0.00    -0.144 NA 
HETATM   32  C   UNL     1      -8.195   3.235  71.309  1.00  0.00    -0.063 C  
HETATM   33  C   UNL     1      -7.417   2.089  71.954  1.00  0.00    -0.040 C  
HETATM   34  C   UNL     1      -7.055   2.366  73.400  1.00  0.00    -0.032 C  
HETATM   35  C   UNL     1      -8.155   2.012  74.388  1.00  0.00    -0.053 C  
HETATM   36  C   UNL     1      -9.583   2.290  73.933  1.00  0.00    -0.111 C  
HETATM   37  C   UNL     1      -9.785   3.602  73.167  1.00  0.00    -0.117 C  
ENDBRANCH  30  31
ENDBRANCH  29  30
ENDBRANCH  28  29
ENDBRANCH  26  28
ENDBRANCH  21  22
ENDBRANCH   5  21
TORSDOF 7
ENDMDL
MODEL      142
REMARK 921   NORMALIZED FREE ENERGY PREDICTED BY IDOCK:   -4.32 KCAL/MOL
REMARK 922        TOTAL FREE ENERGY PREDICTED BY IDOCK:   -9.16 KCAL/MOL
REMARK 923 INTER-LIGAND FREE ENERGY PREDICTED BY IDOCK:   -7.23 KCAL/MOL
REMARK 924 INTRA-LIGAND FREE ENERGY PREDICTED BY IDOCK:   -1.93 KCAL/MOL
REMARK 927      BINDING AFFINITY PREDICTED BY RF-SCORE:    0.00 PKD
ROOT
HETATM    1  C   UNL     1     -11.214   6.009  66.822  1.00  0.00    -0.042 C  
HETATM    2  C   UNL     1     -10.109   6.633  67.616  1.00  0.00    -0.192 A  
HETATM    3  C   UNL     1      -9.254   7.700  67.305  1.00  0.00    -0.131 A  
HETATM    4  C   UNL     1      -9.246   6.100  71.682  1.00  0.00    -0.150 A  
HETATM    5  N   UNL     1      -8.460   7.910  68.455  1.00  0.00    -0.128 NA 
HETATM    6  O   UNL     1     -10.476   4.119  71.919  1.00  0.00    -0.095 OA 
HETATM    7  C   UNL     1      -8.963   7.149  69.508  1.00  0.00    -0.140 A  
HETATM    8  C   UNL     1     -10.024   5.120  71.111  1.00  0.00    -0.206 A  
HETATM    9  C   UNL     1      -9.843   6.223  68.956  1.00  0.00    -0.165 A  
HETATM   10  H   UNL     1     -10.242   4.075  72.839  1.00  0.00     0.000 HD 
HETATM   11  C   UNL     1      -8.746   7.141  70.898  1.00  0.00    -0.146 A  
HETATM   12  C   UNL     1     -10.367   5.184  69.767  1.00  0.00    -0.332 A  
ENDROOT
BRANCH   3  13
HETATM   13  C   UNL     1      -9.173   8.484  66.038  1.00  0.00    -0.262 A  
HETATM   14  C   UNL     1      -9.088   9.836  63.553  1.00  0.00    -0.228 A  
HETATM   15  H   UNL     1      -8.458  10.129  61.645  1.00  0.00     0.000 HD 
HETATM   16  C   UNL     1      -8.289   8.098  65.016  1.00  0.00    -0.146 A  
HETATM   17  C   UNL     1      -8.270   8.741  63.772  1.00  0.00    -0.163 A  
HETATM   18  O   UNL     1      -9.036  10.439  62.333  1.00  0.00    -0.211 OA 
HETATM   19  C   UNL     1      -9.994   9.595  65.778  1.00  0.00    -0.342 A  
HETATM   20  C   UNL     1      -9.931  10.289  64.558  1.00  0.00    -0.359 A  
ENDBRANCH   3  13
BRANCH   5  21
HETATM   21  C   UNL     1      -7.274   8.807  68.498  1.00  0.00    -0.074 C  
BRANCH  21  22
HETATM   22  C   UNL     1      -7.515  10.289  68.342  1.00  0.00    -0.090 A  
HETATM   23  C   UNL     1      -8.968  12.197  68.631  1.00  0.00    -0.004 A  
HETATM   24  C   UNL     1      -7.009  12.423  67.271  1.00  0.00    -0.129 A  
HETATM   25  C   UNL     1      -8.646  10.873  68.910  1.00  0.00    -0.143 A  
HETATM   26  C   UNL     1      -8.213  12.946  67.721  1.00  0.00    -0.174 A  
HETATM   27  C   UNL     1      -6.632  11.138  67.656  1.00  0.00    -0.070 A  
BRANCH  26  28
HETATM   28  O   UNL     1      -8.588  14.173  67.210  1.00  0.00    -0.196 OA 
BRANCH  28  29
HETATM   29  C   UNL     1      -7.507  15.110  67.206  1.00  0.00    -0.194 C  
BRANCH  29  30
HETATM   30  C   UNL     1      -7.707  16.345  68.095  1.00  0.00    -0.160 C  
BRANCH  30  31
HETATM   31  N   UNL     1      -8.307  17.469  67.313  1.00  0.00    -0.209 NA 
HETATM   32  C   UNL     1      -9.704  17.174  66.951  1.00  0.00    -0.268 C  
HETATM   33  C   UNL     1     -10.468  18.214  66.133  1.00  0.00    -0.377 C  
HETATM   34  C   UNL     1     -10.833  19.444  66.941  1.00  0.00    -0.509 C  
HETATM   35  C   UNL     1      -9.728  20.487  67.006  1.00  0.00    -0.548 C  
HETATM   36  C   UNL     1      -8.304  19.953  67.103  1.00  0.00    -0.367 C  
HETATM   37  C   UNL     1      -8.118  18.740  68.022  1.00  0.00    -0.283 C  
ENDBRANCH  30  31
ENDBRANCH  29  30
ENDBRANCH  28  29
ENDBRANCH  26  28
ENDBRANCH  21  22
ENDBRANCH   5  21
TORSDOF 7
ENDMDL
MODEL      143
REMARK 921   NORMALIZED FREE ENERGY PREDICTED BY IDOCK:   -4.30 KCAL/MOL
REMARK 922        TOTAL FREE ENERGY PREDICTED BY IDOCK:   -9.13 KCAL/MOL
REMARK 923 INTER-LIGAND FREE ENERGY PREDICTED BY IDOCK:   -7.05 KCAL/MOL
REMARK 924 INTRA-LIGAND FREE ENERGY PREDICTED BY IDOCK:   -2.08 KCAL/MOL
REMARK 927      BINDING AFFINITY PREDICTED BY RF-SCORE:    0.00 PKD
ROOT
HETATM    1  C   UNL     1     -11.123   7.442  68.316  1.00  0.00     0.121 C  
HETATM    2  C   UNL     1      -9.707   7.924  68.289  1.00  0.00    -0.172 A  
HETATM    3  C   UNL     1      -9.129   9.018  67.627  1.00  0.00    -0.133 A  
HETATM    4  C   UNL     1      -6.545   6.762  70.782  1.00  0.00    -0.053 A  
HETATM    5  N   UNL     1      -7.772   9.040  68.024  1.00  0.00    -0.096 NA 
HETATM    6  O   UNL     1      -7.556   4.780  71.523  1.00  0.00    -0.074 OA 
HETATM    7  C   UNL     1      -7.580   8.130  69.061  1.00  0.00    -0.097 A  
HETATM    8  C   UNL     1      -7.608   5.889  70.732  1.00  0.00    -0.092 A  
HETATM    9  C   UNL     1      -8.704   7.309  69.096  1.00  0.00    -0.136 A  
HETATM   10  H   UNL     1      -6.802   4.593  72.071  1.00  0.00     0.000 HD 
HETATM   11  C   UNL     1      -6.541   7.905  69.983  1.00  0.00    -0.037 A  
HETATM   12  C   UNL     1      -8.709   6.164  69.932  1.00  0.00    -0.136 A  
ENDROOT
BRANCH   3  13
HETATM   13  C   UNL     1      -9.779   9.987  66.697  1.00  0.00    -0.246 A  
HETATM   14  C   UNL     1     -11.115  11.698  64.882  1.00  0.00    -0.253 A  
HETATM   15  H   UNL     1     -11.688  12.329  63.039  1.00  0.00     0.000 HD 
HETATM   16  C   UNL     1      -9.644   9.839  65.306  1.00  0.00    -0.368 A  
HETATM   17  C   UNL     1     -10.332  10.660  64.405  1.00  0.00    -0.347 A  
HETATM   18  O   UNL     1     -11.764  12.479  63.975  1.00  0.00    -0.355 OA 
HETATM   19  C   UNL     1     -10.587  11.045  67.146  1.00  0.00    -0.294 A  
HETATM   20  C   UNL     1     -11.226  11.917  66.248  1.00  0.00    -0.392 A  
ENDBRANCH   3  13
BRANCH   5  21
HETATM   21  C   UNL     1      -6.736   9.907  67.402  1.00  0.00    -0.074 C  
BRANCH  21  22
HETATM   22  C   UNL     1      -6.615  11.322  67.911  1.00  0.00    -0.059 A  
HETATM   23  C   UNL     1      -5.994  12.847  69.680  1.00  0.00    -0.120 A  
HETATM   24  C   UNL     1      -7.262  13.675  67.823  1.00  0.00    -0.169 A  
HETATM   25  C   UNL     1      -5.963  11.574  69.117  1.00  0.00    -0.056 A  
HETATM   26  C   UNL     1      -6.737  13.876  69.092  1.00  0.00    -0.113 A  
HETATM   27  C   UNL     1      -7.118  12.431  67.211  1.00  0.00    -0.128 A  
BRANCH  26  28
HETATM   28  O   UNL     1      -7.015  15.088  69.694  1.00  0.00    -0.169 OA 
BRANCH  28  29
HETATM   29  C   UNL     1      -6.437  16.188  68.987  1.00  0.00    -0.154 C  
BRANCH  29  30
HETATM   30  C   UNL     1      -7.067  17.558  69.276  1.00  0.00    -0.130 C  
BRANCH  30  31
HETATM   31  N   UNL     1      -7.967  17.973  68.157  1.00  0.00    -0.259 NA 
HETATM   32  C   UNL     1      -9.331  17.454  68.354  1.00  0.00    -0.285 C  
HETATM   33  C   UNL     1     -10.381  17.772  67.291  1.00  0.00    -0.364 C  
HETATM   34  C   UNL     1     -10.822  19.223  67.318  1.00  0.00    -0.554 C  
HETATM   35  C   UNL     1      -9.918  20.155  66.527  1.00  0.00    -0.586 C  
HETATM   36  C   UNL     1      -8.425  19.851  66.582  1.00  0.00    -0.381 C  
HETATM   37  C   UNL     1      -7.892  19.425  67.955  1.00  0.00    -0.290 C  
ENDBRANCH  30  31
ENDBRANCH  29  30
ENDBRANCH  28  29
ENDBRANCH  26  28
ENDBRANCH  21  22
ENDBRANCH   5  21
TORSDOF 7
ENDMDL
MODEL      144
REMARK 921   NORMALIZED FREE ENERGY PREDICTED BY IDOCK:   -4.30 KCAL/MOL
REMARK 922        TOTAL FREE ENERGY PREDICTED BY IDOCK:   -9.12 KCAL/MOL
REMARK 923 INTER-LIGAND FREE ENERGY PREDICTED BY IDOCK:   -6.94 KCAL/MOL
REMARK 924 INTRA-LIGAND FREE ENERGY PREDICTED BY IDOCK:   -2.19 KCAL/MOL
REMARK 927      BINDING AFFINITY PREDICTED BY RF-SCORE:    0.00 PKD
ROOT
HETATM    1  C   UNL     1     -10.981   6.022  67.221  1.00  0.00    -0.356 C  
HETATM    2  C   UNL     1     -10.101   6.927  68.024  1.00  0.00    -0.193 A  
HETATM    3  C   UNL     1      -8.940   7.627  67.661  1.00  0.00    -0.127 A  
HETATM    4  C   UNL     1     -10.891   8.619  71.776  1.00  0.00    -0.395 A  
HETATM    5  N   UNL     1      -8.574   8.387  68.796  1.00  0.00    -0.134 NA 
HETATM    6  O   UNL     1     -12.606   7.125  72.343  1.00  0.00    -0.506 OA 
HETATM    7  C   UNL     1      -9.597   8.328  69.740  1.00  0.00    -0.171 A  
HETATM    8  C   UNL     1     -11.651   7.518  71.454  1.00  0.00    -0.275 A  
HETATM    9  C   UNL     1     -10.441   7.288  69.362  1.00  0.00    -0.223 A  
HETATM   10  H   UNL     1     -12.729   7.570  73.173  1.00  0.00     0.000 HD 
HETATM   11  C   UNL     1      -9.891   9.056  70.907  1.00  0.00    -0.330 A  
HETATM   12  C   UNL     1     -11.471   6.867  70.240  1.00  0.00    -0.373 A  
ENDROOT
BRANCH   3  13
HETATM   13  C   UNL     1      -8.216   7.607  66.357  1.00  0.00    -0.124 A  
HETATM   14  C   UNL     1      -6.946   7.443  63.833  1.00  0.00    -0.058 A  
HETATM   15  H   UNL     1      -5.857   6.529  62.384  1.00  0.00     0.000 HD 
HETATM   16  C   UNL     1      -7.434   6.497  65.993  1.00  0.00    -0.081 A  
HETATM   17  C   UNL     1      -6.834   6.395  64.732  1.00  0.00    -0.050 A  
HETATM   18  O   UNL     1      -6.344   7.310  62.619  1.00  0.00    -0.052 OA 
HETATM   19  C   UNL     1      -8.314   8.647  65.418  1.00  0.00    -0.165 A  
HETATM   20  C   UNL     1      -7.658   8.584  64.177  1.00  0.00    -0.123 A  
ENDBRANCH   3  13
BRANCH   5  21
HETATM   21  C   UNL     1      -7.285   9.117  68.929  1.00  0.00    -0.073 C  
BRANCH  21  22
HETATM   22  C   UNL     1      -7.302  10.608  68.693  1.00  0.00    -0.094 A  
HETATM   23  C   UNL     1      -7.720  12.470  67.211  1.00  0.00    -0.146 A  
HETATM   24  C   UNL     1      -6.551  12.859  69.266  1.00  0.00    -0.085 A  
HETATM   25  C   UNL     1      -7.853  11.120  67.519  1.00  0.00    -0.117 A  
HETATM   26  C   UNL     1      -6.973  13.325  68.029  1.00  0.00    -0.120 A  
HETATM   27  C   UNL     1      -6.798  11.534  69.620  1.00  0.00    -0.038 A  
BRANCH  26  28
HETATM   28  O   UNL     1      -6.595  14.609  67.687  1.00  0.00    -0.166 OA 
BRANCH  28  29
HETATM   29  C   UNL     1      -7.678  15.537  67.793  1.00  0.00    -0.140 C  
BRANCH  29  30
HETATM   30  C   UNL     1      -8.208  16.082  66.459  1.00  0.00    -0.299 C  
BRANCH  30  31
HETATM   31  N   UNL     1      -9.646  15.719  66.274  1.00  0.00    -0.287 NA 
HETATM   32  C   UNL     1      -9.826  14.861  65.090  1.00  0.00    -0.130 C  
HETATM   33  C   UNL     1     -11.243  14.406  64.742  1.00  0.00    -0.391 C  
HETATM   34  C   UNL     1     -11.777  13.363  65.703  1.00  0.00    -0.374 C  
HETATM   35  C   UNL     1     -12.406  13.947  66.958  1.00  0.00    -0.287 C  
HETATM   36  C   UNL     1     -11.728  15.184  67.536  1.00  0.00    -0.214 C  
HETATM   37  C   UNL     1     -10.196  15.163  67.516  1.00  0.00    -0.238 C  
ENDBRANCH  30  31
ENDBRANCH  29  30
ENDBRANCH  28  29
ENDBRANCH  26  28
ENDBRANCH  21  22
ENDBRANCH   5  21
TORSDOF 7
ENDMDL
MODEL      145
REMARK 921   NORMALIZED FREE ENERGY PREDICTED BY IDOCK:   -4.29 KCAL/MOL
REMARK 922        TOTAL FREE ENERGY PREDICTED BY IDOCK:   -9.11 KCAL/MOL
REMARK 923 INTER-LIGAND FREE ENERGY PREDICTED BY IDOCK:   -7.67 KCAL/MOL
REMARK 924 INTRA-LIGAND FREE ENERGY PREDICTED BY IDOCK:   -1.45 KCAL/MOL
REMARK 927      BINDING AFFINITY PREDICTED BY RF-SCORE:    0.00 PKD
ROOT
HETATM    1  C   UNL     1      -9.297   7.568  70.829  1.00  0.00    -0.162 C  
HETATM    2  C   UNL     1      -9.532   8.606  69.777  1.00  0.00    -0.166 A  
HETATM    3  C   UNL     1      -9.004   8.730  68.484  1.00  0.00    -0.138 A  
HETATM    4  C   UNL     1     -12.532  11.532  69.676  1.00  0.00    -0.089 A  
HETATM    5  N   UNL     1      -9.637   9.856  67.910  1.00  0.00    -0.138 NA 
HETATM    6  O   UNL     1     -13.046  11.410  71.960  1.00  0.00    -0.487 OA 
HETATM    7  C   UNL     1     -10.676  10.272  68.740  1.00  0.00    -0.219 A  
HETATM    8  C   UNL     1     -12.277  10.991  70.916  1.00  0.00    -0.367 A  
HETATM    9  C   UNL     1     -10.496   9.642  69.967  1.00  0.00    -0.301 A  
HETATM   10  H   UNL     1     -13.716  12.075  71.852  1.00  0.00     0.000 HD 
HETATM   11  C   UNL     1     -11.766  11.148  68.575  1.00  0.00    -0.368 A  
HETATM   12  C   UNL     1     -11.297  10.019  71.074  1.00  0.00    -0.434 A  
ENDROOT
BRANCH   3  13
HETATM   13  C   UNL     1      -7.989   7.867  67.811  1.00  0.00    -0.124 A  
HETATM   14  C   UNL     1      -6.162   6.237  66.394  1.00  0.00    -0.037 A  
HETATM   15  H   UNL     1      -5.581   4.556  65.414  1.00  0.00     0.000 HD 
HETATM   16  C   UNL     1      -8.306   6.548  67.444  1.00  0.00    -0.120 A  
HETATM   17  C   UNL     1      -7.419   5.751  66.711  1.00  0.00    -0.084 A  
HETATM   18  O   UNL     1      -5.324   5.429  65.686  1.00  0.00    -0.012 OA 
HETATM   19  C   UNL     1      -6.708   8.330  67.466  1.00  0.00    -0.063 A  
HETATM   20  C   UNL     1      -5.786   7.512  66.792  1.00  0.00    -0.028 A  
ENDBRANCH   3  13
BRANCH   5  21
HETATM   21  C   UNL     1      -9.226  10.479  66.624  1.00  0.00    -0.156 C  
BRANCH  21  22
HETATM   22  C   UNL     1      -9.411  11.970  66.481  1.00  0.00    -0.226 A  
HETATM   23  C   UNL     1      -8.888  14.207  67.229  1.00  0.00    -0.227 A  
HETATM   24  C   UNL     1     -10.709  13.886  65.705  1.00  0.00    -0.292 A  
HETATM   25  C   UNL     1      -8.614  12.843  67.221  1.00  0.00    -0.205 A  
HETATM   26  C   UNL     1     -10.004  14.722  66.560  1.00  0.00    -0.271 A  
HETATM   27  C   UNL     1     -10.349  12.543  65.608  1.00  0.00    -0.294 A  
BRANCH  26  28
HETATM   28  O   UNL     1     -10.481  16.010  66.703  1.00  0.00    -0.300 OA 
BRANCH  28  29
HETATM   29  C   UNL     1     -10.348  16.489  68.044  1.00  0.00    -0.294 C  
BRANCH  29  30
HETATM   30  C   UNL     1     -10.315  18.016  68.195  1.00  0.00    -0.388 C  
BRANCH  30  31
HETATM   31  N   UNL     1      -8.957  18.477  68.617  1.00  0.00    -0.318 NA 
HETATM   32  C   UNL     1      -8.060  17.333  68.853  1.00  0.00    -0.189 C  
HETATM   33  C   UNL     1      -6.630  17.624  69.308  1.00  0.00    -0.233 C  
HETATM   34  C   UNL     1      -5.768  18.200  68.202  1.00  0.00    -0.161 C  
HETATM   35  C   UNL     1      -5.893  19.707  68.047  1.00  0.00    -0.230 C  
HETATM   36  C   UNL     1      -7.285  20.291  68.259  1.00  0.00    -0.236 C  
HETATM   37  C   UNL     1      -8.439  19.471  67.670  1.00  0.00    -0.310 C  
ENDBRANCH  30  31
ENDBRANCH  29  30
ENDBRANCH  28  29
ENDBRANCH  26  28
ENDBRANCH  21  22
ENDBRANCH   5  21
TORSDOF 7
ENDMDL
MODEL      146
REMARK 921   NORMALIZED FREE ENERGY PREDICTED BY IDOCK:   -4.29 KCAL/MOL
REMARK 922        TOTAL FREE ENERGY PREDICTED BY IDOCK:   -9.11 KCAL/MOL
REMARK 923 INTER-LIGAND FREE ENERGY PREDICTED BY IDOCK:   -6.52 KCAL/MOL
REMARK 924 INTRA-LIGAND FREE ENERGY PREDICTED BY IDOCK:   -2.59 KCAL/MOL
REMARK 927      BINDING AFFINITY PREDICTED BY RF-SCORE:    0.00 PKD
ROOT
HETATM    1  C   UNL     1     -13.097   9.718  71.027  1.00  0.00    -0.363 C  
HETATM    2  C   UNL     1     -11.695  10.032  70.610  1.00  0.00    -0.421 A  
HETATM    3  C   UNL     1     -10.508   9.306  70.783  1.00  0.00    -0.276 A  
HETATM    4  C   UNL     1     -10.407  13.006  67.951  1.00  0.00    -0.233 A  
HETATM    5  N   UNL     1      -9.500  10.041  70.118  1.00  0.00    -0.159 NA 
HETATM    6  O   UNL     1     -12.377  14.273  68.056  1.00  0.00    -0.582 OA 
HETATM    7  C   UNL     1     -10.089  11.063  69.377  1.00  0.00    -0.030 A  
HETATM    8  C   UNL     1     -11.664  13.191  68.480  1.00  0.00    -0.352 A  
HETATM    9  C   UNL     1     -11.402  11.186  69.823  1.00  0.00    -0.354 A  
HETATM   10  H   UNL     1     -12.015  14.899  67.440  1.00  0.00     0.000 HD 
HETATM   11  C   UNL     1      -9.630  11.922  68.361  1.00  0.00    -0.196 A  
HETATM   12  C   UNL     1     -12.194  12.276  69.381  1.00  0.00    -0.120 A  
ENDROOT
BRANCH   3  13
HETATM   13  C   UNL     1     -10.308   8.015  71.505  1.00  0.00    -0.258 A  
HETATM   14  C   UNL     1     -10.097   5.571  72.916  1.00  0.00    -0.176 A  
HETATM   15  H   UNL     1     -10.154   4.398  74.572  1.00  0.00     0.000 HD 
HETATM   16  C   UNL     1     -10.420   7.957  72.905  1.00  0.00    -0.422 A  
HETATM   17  C   UNL     1     -10.352   6.745  73.603  1.00  0.00    -0.372 A  
HETATM   18  O   UNL     1     -10.032   4.413  73.630  1.00  0.00    -0.126 OA 
HETATM   19  C   UNL     1     -10.058   6.803  70.839  1.00  0.00    -0.207 A  
HETATM   20  C   UNL     1      -9.920   5.593  71.539  1.00  0.00    -0.230 A  
ENDBRANCH   3  13
BRANCH   5  21
HETATM   21  C   UNL     1      -8.046   9.747  70.223  1.00  0.00    -0.154 C  
BRANCH  21  22
HETATM   22  C   UNL     1      -7.423   8.914  69.130  1.00  0.00    -0.073 A  
HETATM   23  C   UNL     1      -5.732   7.337  68.430  1.00  0.00    -0.023 A  
HETATM   24  C   UNL     1      -7.033   8.462  66.763  1.00  0.00    -0.073 A  
HETATM   25  C   UNL     1      -6.432   7.985  69.443  1.00  0.00    -0.035 A  
HETATM   26  C   UNL     1      -5.952   7.654  67.085  1.00  0.00    -0.047 A  
HETATM   27  C   UNL     1      -7.809   9.010  67.783  1.00  0.00    -0.101 A  
BRANCH  26  28
HETATM   28  O   UNL     1      -5.151   7.240  66.039  1.00  0.00    -0.022 OA 
BRANCH  28  29
HETATM   29  C   UNL     1      -5.838   6.352  65.152  1.00  0.00    -0.022 C  
BRANCH  29  30
HETATM   30  C   UNL     1      -5.826   4.874  65.566  1.00  0.00    -0.018 C  
BRANCH  30  31
HETATM   31  N   UNL     1      -7.201   4.413  65.926  1.00  0.00    -0.074 NA 
HETATM   32  C   UNL     1      -7.400   4.431  67.385  1.00  0.00    -0.069 C  
HETATM   33  C   UNL     1      -8.752   3.974  67.931  1.00  0.00    -0.118 C  
HETATM   34  C   UNL     1      -9.860   4.975  67.668  1.00  0.00    -0.202 C  
HETATM   35  C   UNL     1     -10.504   4.833  66.298  1.00  0.00    -0.311 C  
HETATM   36  C   UNL     1      -9.570   4.469  65.150  1.00  0.00    -0.167 C  
HETATM   37  C   UNL     1      -8.206   5.168  65.166  1.00  0.00    -0.132 C  
ENDBRANCH  30  31
ENDBRANCH  29  30
ENDBRANCH  28  29
ENDBRANCH  26  28
ENDBRANCH  21  22
ENDBRANCH   5  21
TORSDOF 7
ENDMDL
MODEL      147
REMARK 921   NORMALIZED FREE ENERGY PREDICTED BY IDOCK:   -4.28 KCAL/MOL
REMARK 922        TOTAL FREE ENERGY PREDICTED BY IDOCK:   -9.09 KCAL/MOL
REMARK 923 INTER-LIGAND FREE ENERGY PREDICTED BY IDOCK:   -6.61 KCAL/MOL
REMARK 924 INTRA-LIGAND FREE ENERGY PREDICTED BY IDOCK:   -2.48 KCAL/MOL
REMARK 927      BINDING AFFINITY PREDICTED BY RF-SCORE:    0.00 PKD
ROOT
HETATM    1  C   UNL     1     -10.092   7.221  66.467  1.00  0.00    -0.163 C  
HETATM    2  C   UNL     1      -8.941   8.101  66.840  1.00  0.00    -0.163 A  
HETATM    3  C   UNL     1      -8.639   8.743  68.050  1.00  0.00    -0.134 A  
HETATM    4  C   UNL     1      -5.371   8.700  64.728  1.00  0.00    -0.039 A  
HETATM    5  N   UNL     1      -7.390   9.374  67.855  1.00  0.00    -0.083 NA 
HETATM    6  O   UNL     1      -6.177   7.887  62.683  1.00  0.00    -0.074 OA 
HETATM    7  C   UNL     1      -6.843   8.949  66.646  1.00  0.00    -0.076 A  
HETATM    8  C   UNL     1      -6.414   8.192  63.990  1.00  0.00    -0.067 A  
HETATM    9  C   UNL     1      -7.864   8.329  65.933  1.00  0.00    -0.093 A  
HETATM   10  H   UNL     1      -5.331   8.045  62.279  1.00  0.00     0.000 HD 
HETATM   11  C   UNL     1      -5.564   9.042  66.067  1.00  0.00    -0.045 A  
HETATM   12  C   UNL     1      -7.650   7.960  64.580  1.00  0.00    -0.109 A  
ENDROOT
BRANCH   3  13
HETATM   13  C   UNL     1      -9.440   8.771  69.309  1.00  0.00    -0.161 A  
HETATM   14  C   UNL     1     -11.098   8.789  71.602  1.00  0.00    -0.327 A  
HETATM   15  H   UNL     1     -12.593   9.498  72.779  1.00  0.00     0.000 HD 
HETATM   16  C   UNL     1     -10.382   9.789  69.532  1.00  0.00    -0.247 A  
HETATM   17  C   UNL     1     -11.230   9.782  70.647  1.00  0.00    -0.402 A  
HETATM   18  O   UNL     1     -11.935   8.819  72.676  1.00  0.00    -0.298 OA 
HETATM   19  C   UNL     1      -9.339   7.775  70.295  1.00  0.00    -0.156 A  
HETATM   20  C   UNL     1     -10.137   7.798  71.451  1.00  0.00    -0.211 A  
ENDBRANCH   3  13
BRANCH   5  21
HETATM   21  C   UNL     1      -6.787  10.343  68.809  1.00  0.00    -0.059 C  
BRANCH  21  22
HETATM   22  C   UNL     1      -7.094  11.806  68.604  1.00  0.00    -0.101 A  
HETATM   23  C   UNL     1      -8.306  13.526  67.417  1.00  0.00    -0.199 A  
HETATM   24  C   UNL     1      -6.487  14.159  68.842  1.00  0.00    -0.094 A  
HETATM   25  C   UNL     1      -8.125  12.187  67.747  1.00  0.00    -0.152 A  
HETATM   26  C   UNL     1      -7.419  14.507  67.875  1.00  0.00    -0.150 A  
HETATM   27  C   UNL     1      -6.395  12.832  69.260  1.00  0.00    -0.108 A  
BRANCH  26  28
HETATM   28  O   UNL     1      -7.382  15.809  67.416  1.00  0.00    -0.159 OA 
BRANCH  28  29
HETATM   29  C   UNL     1      -8.344  16.641  68.072  1.00  0.00    -0.187 C  
BRANCH  29  30
HETATM   30  C   UNL     1      -9.597  16.969  67.248  1.00  0.00    -0.244 C  
BRANCH  30  31
HETATM   31  N   UNL     1     -10.768  16.174  67.727  1.00  0.00    -0.320 NA 
HETATM   32  C   UNL     1     -11.068  15.065  66.805  1.00  0.00    -0.326 C  
HETATM   33  C   UNL     1     -12.250  14.156  67.137  1.00  0.00    -0.348 C  
HETATM   34  C   UNL     1     -11.974  13.237  68.311  1.00  0.00    -0.338 C  
HETATM   35  C   UNL     1     -12.243  13.874  69.666  1.00  0.00    -0.374 C  
HETATM   36  C   UNL     1     -11.882  15.349  69.799  1.00  0.00    -0.367 C  
HETATM   37  C   UNL     1     -10.571  15.768  69.123  1.00  0.00    -0.242 C  
ENDBRANCH  30  31
ENDBRANCH  29  30
ENDBRANCH  28  29
ENDBRANCH  26  28
ENDBRANCH  21  22
ENDBRANCH   5  21
TORSDOF 7
ENDMDL
MODEL      148
REMARK 921   NORMALIZED FREE ENERGY PREDICTED BY IDOCK:   -4.25 KCAL/MOL
REMARK 922        TOTAL FREE ENERGY PREDICTED BY IDOCK:   -9.06 KCAL/MOL
REMARK 923 INTER-LIGAND FREE ENERGY PREDICTED BY IDOCK:   -7.82 KCAL/MOL
REMARK 924 INTRA-LIGAND FREE ENERGY PREDICTED BY IDOCK:   -1.23 KCAL/MOL
REMARK 927      BINDING AFFINITY PREDICTED BY RF-SCORE:    0.00 PKD
ROOT
HETATM    1  C   UNL     1     -10.665  16.148  67.871  1.00  0.00    -0.321 C  
HETATM    2  C   UNL     1     -11.104  14.741  68.133  1.00  0.00    -0.288 A  
HETATM    3  C   UNL     1     -11.775  14.186  69.232  1.00  0.00    -0.323 A  
HETATM    4  C   UNL     1     -11.286  11.555  65.416  1.00  0.00    -0.207 A  
HETATM    5  N   UNL     1     -12.002  12.829  68.904  1.00  0.00    -0.286 NA 
HETATM    6  O   UNL     1      -9.858  12.526  63.830  1.00  0.00    -0.612 OA 
HETATM    7  C   UNL     1     -11.681  12.619  67.565  1.00  0.00    -0.368 A  
HETATM    8  C   UNL     1     -10.472  12.601  65.045  1.00  0.00    -0.308 A  
HETATM    9  C   UNL     1     -10.951  13.726  67.142  1.00  0.00    -0.299 A  
HETATM   10  H   UNL     1      -9.959  11.769  63.265  1.00  0.00     0.000 HD 
HETATM   11  C   UNL     1     -11.927  11.575  66.655  1.00  0.00     0.488 A  
HETATM   12  C   UNL     1     -10.325  13.708  65.870  1.00  0.00    -0.304 A  
ENDROOT
BRANCH   3  13
HETATM   13  C   UNL     1     -12.190  14.855  70.499  1.00  0.00    -0.388 A  
HETATM   14  C   UNL     1     -13.059  15.979  72.946  1.00  0.00    -0.458 A  
HETATM   15  H   UNL     1     -14.449  16.647  74.267  1.00  0.00     0.000 HD 
HETATM   16  C   UNL     1     -13.542  15.158  70.735  1.00  0.00    -0.299 A  
HETATM   17  C   UNL     1     -13.981  15.680  71.958  1.00  0.00    -0.515 A  
HETATM   18  O   UNL     1     -13.523  16.492  74.120  1.00  0.00    -0.295 OA 
HETATM   19  C   UNL     1     -11.284  15.164  71.527  1.00  0.00    -0.323 A  
HETATM   20  C   UNL     1     -11.707  15.753  72.730  1.00  0.00    -0.515 A  
ENDBRANCH   3  13
BRANCH   5  21
HETATM   21  C   UNL     1     -12.498  11.811  69.868  1.00  0.00    -0.020 C  
BRANCH  21  22
HETATM   22  C   UNL     1     -11.540  10.723  70.288  1.00  0.00    -0.427 A  
HETATM   23  C   UNL     1     -11.075   8.775  71.639  1.00  0.00    -0.398 A  
HETATM   24  C   UNL     1      -9.267   9.859  70.500  1.00  0.00     0.063 A  
HETATM   25  C   UNL     1     -11.983   9.685  71.106  1.00  0.00    -0.452 A  
HETATM   26  C   UNL     1      -9.699   8.923  71.429  1.00  0.00    -0.300 A  
HETATM   27  C   UNL     1     -10.199  10.686  69.876  1.00  0.00    -0.011 A  
BRANCH  26  28
HETATM   28  O   UNL     1      -8.721   8.217  72.102  1.00  0.00    -0.141 OA 
BRANCH  28  29
HETATM   29  C   UNL     1      -7.404   8.600  71.697  1.00  0.00    -0.093 C  
BRANCH  29  30
HETATM   30  C   UNL     1      -6.914   7.975  70.383  1.00  0.00    -0.041 C  
BRANCH  30  31
HETATM   31  N   UNL     1      -6.067   8.942  69.621  1.00  0.00    -0.039 NA 
HETATM   32  C   UNL     1      -6.279   8.802  68.170  1.00  0.00    -0.051 C  
HETATM   33  C   UNL     1      -5.477   9.707  67.236  1.00  0.00    -0.036 C  
HETATM   34  C   UNL     1      -5.949  11.148  67.267  1.00  0.00    -0.064 C  
HETATM   35  C   UNL     1      -5.339  11.972  68.389  1.00  0.00    -0.050 C  
HETATM   36  C   UNL     1      -5.129  11.250  69.716  1.00  0.00    -0.046 C  
HETATM   37  C   UNL     1      -6.259  10.303  70.134  1.00  0.00    -0.099 C  
ENDBRANCH  30  31
ENDBRANCH  29  30
ENDBRANCH  28  29
ENDBRANCH  26  28
ENDBRANCH  21  22
ENDBRANCH   5  21
TORSDOF 7
ENDMDL
MODEL      149
REMARK 921   NORMALIZED FREE ENERGY PREDICTED BY IDOCK:   -4.24 KCAL/MOL
REMARK 922        TOTAL FREE ENERGY PREDICTED BY IDOCK:   -9.05 KCAL/MOL
REMARK 923 INTER-LIGAND FREE ENERGY PREDICTED BY IDOCK:   -7.06 KCAL/MOL
REMARK 924 INTRA-LIGAND FREE ENERGY PREDICTED BY IDOCK:   -1.99 KCAL/MOL
REMARK 927      BINDING AFFINITY PREDICTED BY RF-SCORE:    0.00 PKD
ROOT
HETATM    1  C   UNL     1     -13.245  11.245  71.380  1.00  0.00    -0.267 C  
HETATM    2  C   UNL     1     -12.019  11.462  70.551  1.00  0.00    -0.451 A  
HETATM    3  C   UNL     1     -11.023  10.561  70.143  1.00  0.00    -0.270 A  
HETATM    4  C   UNL     1     -11.049  14.805  68.216  1.00  0.00    -0.284 A  
HETATM    5  N   UNL     1     -10.150  11.298  69.310  1.00  0.00    -0.069 NA 
HETATM    6  O   UNL     1     -12.562  16.259  69.262  1.00  0.00    -0.335 OA 
HETATM    7  C   UNL     1     -10.713  12.542  69.038  1.00  0.00    -0.097 A  
HETATM    8  C   UNL     1     -11.999  15.020  69.188  1.00  0.00    -0.275 A  
HETATM    9  C   UNL     1     -11.754  12.725  69.943  1.00  0.00    -0.321 A  
HETATM   10  H   UNL     1     -12.292  16.965  68.686  1.00  0.00     0.000 HD 
HETATM   11  C   UNL     1     -10.432  13.559  68.106  1.00  0.00    -0.249 A  
HETATM   12  C   UNL     1     -12.394  13.988  70.030  1.00  0.00    -0.397 A  
ENDROOT
BRANCH   3  13
HETATM   13  C   UNL     1     -10.883   9.116  70.488  1.00  0.00    -0.306 A  
HETATM   14  C   UNL     1     -10.771   6.385  71.218  1.00  0.00    -0.241 A  
HETATM   15  H   UNL     1     -10.682   4.840  72.532  1.00  0.00     0.000 HD 
HETATM   16  C   UNL     1     -10.730   8.714  71.826  1.00  0.00    -0.392 A  
HETATM   17  C   UNL     1     -10.711   7.364  72.195  1.00  0.00    -0.262 A  
HETATM   18  O   UNL     1     -10.744   5.082  71.616  1.00  0.00    -0.165 OA 
HETATM   19  C   UNL     1     -10.949   8.096  69.524  1.00  0.00    -0.056 A  
HETATM   20  C   UNL     1     -10.861   6.740  69.879  1.00  0.00    -0.310 A  
ENDBRANCH   3  13
BRANCH   5  21
HETATM   21  C   UNL     1      -8.838  10.793  68.825  1.00  0.00    -0.163 C  
BRANCH  21  22
HETATM   22  C   UNL     1      -8.729  10.426  67.365  1.00  0.00    -0.125 A  
HETATM   23  C   UNL     1      -7.357  10.102  65.402  1.00  0.00    -0.144 A  
HETATM   24  C   UNL     1      -9.740  10.165  65.158  1.00  0.00    -0.370 A  
HETATM   25  C   UNL     1      -7.474  10.270  66.779  1.00  0.00    -0.107 A  
HETATM   26  C   UNL     1      -8.482  10.160  64.572  1.00  0.00    -0.177 A  
HETATM   27  C   UNL     1      -9.849  10.208  66.547  1.00  0.00    -0.268 A  
BRANCH  26  28
HETATM   28  O   UNL     1      -8.438  10.239  63.193  1.00  0.00    -0.160 OA 
BRANCH  28  29
HETATM   29  C   UNL     1      -8.865   9.024  62.570  1.00  0.00    -0.143 C  
BRANCH  29  30
HETATM   30  C   UNL     1      -7.769   7.966  62.377  1.00  0.00    -0.122 C  
BRANCH  30  31
HETATM   31  N   UNL     1      -7.948   6.838  63.341  1.00  0.00    -0.104 NA 
HETATM   32  C   UNL     1      -8.393   5.616  62.649  1.00  0.00    -0.091 C  
HETATM   33  C   UNL     1      -8.641   4.365  63.490  1.00  0.00    -0.115 C  
HETATM   34  C   UNL     1      -7.358   3.732  63.993  1.00  0.00    -0.059 C  
HETATM   35  C   UNL     1      -6.834   4.344  65.282  1.00  0.00    -0.057 C  
HETATM   36  C   UNL     1      -7.004   5.853  65.427  1.00  0.00    -0.063 C  
HETATM   37  C   UNL     1      -6.740   6.668  64.157  1.00  0.00    -0.044 C  
ENDBRANCH  30  31
ENDBRANCH  29  30
ENDBRANCH  28  29
ENDBRANCH  26  28
ENDBRANCH  21  22
ENDBRANCH   5  21
TORSDOF 7
ENDMDL
MODEL      150
REMARK 921   NORMALIZED FREE ENERGY PREDICTED BY IDOCK:   -4.17 KCAL/MOL
REMARK 922        TOTAL FREE ENERGY PREDICTED BY IDOCK:   -8.95 KCAL/MOL
REMARK 923 INTER-LIGAND FREE ENERGY PREDICTED BY IDOCK:   -6.23 KCAL/MOL
REMARK 924 INTRA-LIGAND FREE ENERGY PREDICTED BY IDOCK:   -2.72 KCAL/MOL
REMARK 927      BINDING AFFINITY PREDICTED BY RF-SCORE:    0.00 PKD
ROOT
HETATM    1  C   UNL     1     -11.124  16.198  66.929  1.00  0.00     0.011 C  
HETATM    2  C   UNL     1      -9.774  15.793  67.431  1.00  0.00    -0.223 A  
HETATM    3  C   UNL     1      -9.383  14.698  68.216  1.00  0.00    -0.199 A  
HETATM    4  C   UNL     1      -6.036  17.263  66.229  1.00  0.00    -0.188 A  
HETATM    5  N   UNL     1      -7.975  14.773  68.315  1.00  0.00    -0.123 NA 
HETATM    6  O   UNL     1      -6.867  19.223  65.248  1.00  0.00    -0.400 OA 
HETATM    7  C   UNL     1      -7.502  15.747  67.439  1.00  0.00    -0.194 A  
HETATM    8  C   UNL     1      -7.110  18.071  65.936  1.00  0.00    -0.267 A  
HETATM    9  C   UNL     1      -8.600  16.506  67.042  1.00  0.00    -0.219 A  
HETATM   10  H   UNL     1      -5.986  19.481  65.003  1.00  0.00     0.000 HD 
HETATM   11  C   UNL     1      -6.228  16.079  66.943  1.00  0.00     0.189 A  
HETATM   12  C   UNL     1      -8.398  17.693  66.294  1.00  0.00    -0.251 A  
ENDROOT
BRANCH   3  13
HETATM   13  C   UNL     1     -10.244  13.646  68.830  1.00  0.00    -0.088 A  
HETATM   14  C   UNL     1     -12.009  11.718  69.914  1.00  0.00    -0.332 A  
HETATM   15  H   UNL     1     -13.575  11.096  71.047  1.00  0.00     0.000 HD 
HETATM   16  C   UNL     1     -11.219  13.988  69.783  1.00  0.00    -0.175 A  
HETATM   17  C   UNL     1     -12.118  13.044  70.294  1.00  0.00    -0.388 A  
HETATM   18  O   UNL     1     -12.898  10.828  70.437  1.00  0.00    -0.313 OA 
HETATM   19  C   UNL     1     -10.168  12.292  68.461  1.00  0.00    -0.213 A  
HETATM   20  C   UNL     1     -11.020  11.326  69.021  1.00  0.00    -0.288 A  
ENDBRANCH   3  13
BRANCH   5  21
HETATM   21  C   UNL     1      -7.158  13.931  69.229  1.00  0.00    -0.027 C  
BRANCH  21  22
HETATM   22  C   UNL     1      -6.773  12.553  68.750  1.00  0.00    -0.093 A  
HETATM   23  C   UNL     1      -6.420  11.015  66.920  1.00  0.00    -0.108 A  
HETATM   24  C   UNL     1      -6.487  10.163  69.158  1.00  0.00    -0.049 A  
HETATM   25  C   UNL     1      -6.605  12.313  67.387  1.00  0.00    -0.154 A  
HETATM   26  C   UNL     1      -6.471   9.922  67.792  1.00  0.00    -0.063 A  
HETATM   27  C   UNL     1      -6.548  11.476  69.622  1.00  0.00    -0.112 A  
BRANCH  26  28
HETATM   28  O   UNL     1      -6.532   8.601  67.393  1.00  0.00    -0.056 OA 
BRANCH  28  29
HETATM   29  C   UNL     1      -7.100   8.456  66.088  1.00  0.00    -0.076 C  
BRANCH  29  30
HETATM   30  C   UNL     1      -8.610   8.178  66.057  1.00  0.00    -0.147 C  
BRANCH  30  31
HETATM   31  N   UNL     1      -9.281   9.014  65.017  1.00  0.00    -0.129 NA 
HETATM   32  C   UNL     1     -10.007  10.140  65.630  1.00  0.00    -0.279 C  
HETATM   33  C   UNL     1     -10.767  11.092  64.707  1.00  0.00    -0.304 C  
HETATM   34  C   UNL     1      -9.847  11.992  63.906  1.00  0.00    -0.266 C  
HETATM   35  C   UNL     1      -9.331  11.359  62.624  1.00  0.00    -0.247 C  
HETATM   36  C   UNL     1      -9.009   9.870  62.691  1.00  0.00    -0.279 C  
HETATM   37  C   UNL     1      -8.320   9.405  63.979  1.00  0.00    -0.174 C  
ENDBRANCH  30  31
ENDBRANCH  29  30
ENDBRANCH  28  29
ENDBRANCH  26  28
ENDBRANCH  21  22
ENDBRANCH   5  21
TORSDOF 7
ENDMDL
MODEL      151
REMARK 921   NORMALIZED FREE ENERGY PREDICTED BY IDOCK:   -4.14 KCAL/MOL
REMARK 922        TOTAL FREE ENERGY PREDICTED BY IDOCK:   -8.91 KCAL/MOL
REMARK 923 INTER-LIGAND FREE ENERGY PREDICTED BY IDOCK:   -6.96 KCAL/MOL
REMARK 924 INTRA-LIGAND FREE ENERGY PREDICTED BY IDOCK:   -1.95 KCAL/MOL
REMARK 927      BINDING AFFINITY PREDICTED BY RF-SCORE:    0.00 PKD
ROOT
HETATM    1  C   UNL     1     -10.738   7.231  66.966  1.00  0.00    -0.406 C  
HETATM    2  C   UNL     1      -9.659   7.740  67.869  1.00  0.00    -0.167 A  
HETATM    3  C   UNL     1      -9.480   9.003  68.453  1.00  0.00    -0.146 A  
HETATM    4  C   UNL     1      -6.747   5.518  69.907  1.00  0.00    -0.051 A  
HETATM    5  N   UNL     1      -8.334   8.893  69.274  1.00  0.00    -0.117 NA 
HETATM    6  O   UNL     1      -6.965   3.593  68.587  1.00  0.00    -0.048 OA 
HETATM    7  C   UNL     1      -7.958   7.555  69.363  1.00  0.00    -0.123 A  
HETATM    8  C   UNL     1      -7.337   4.880  68.840  1.00  0.00    -0.057 A  
HETATM    9  C   UNL     1      -8.637   6.872  68.358  1.00  0.00    -0.125 A  
HETATM   10  H   UNL     1      -6.300   3.155  69.105  1.00  0.00     0.000 HD 
HETATM   11  C   UNL     1      -7.082   6.840  70.202  1.00  0.00    -0.071 A  
HETATM   12  C   UNL     1      -8.309   5.521  68.083  1.00  0.00    -0.099 A  
ENDROOT
BRANCH   3  13
HETATM   13  C   UNL     1     -10.309  10.231  68.278  1.00  0.00    -0.209 A  
HETATM   14  C   UNL     1     -11.776  12.641  68.054  1.00  0.00    -0.350 A  
HETATM   15  H   UNL     1     -12.947  14.146  68.750  1.00  0.00     0.000 HD 
HETATM   16  C   UNL     1     -11.076  10.731  69.344  1.00  0.00    -0.324 A  
HETATM   17  C   UNL     1     -11.774  11.942  69.249  1.00  0.00    -0.389 A  
HETATM   18  O   UNL     1     -12.471  13.811  67.999  1.00  0.00    -0.091 OA 
HETATM   19  C   UNL     1     -10.328  10.970  67.083  1.00  0.00    -0.259 A  
HETATM   20  C   UNL     1     -11.081  12.149  66.957  1.00  0.00    -0.347 A  
ENDBRANCH   3  13
BRANCH   5  21
HETATM   21  C   UNL     1      -7.658  10.049  69.920  1.00  0.00    -0.170 C  
BRANCH  21  22
HETATM   22  C   UNL     1      -7.269  11.210  69.039  1.00  0.00    -0.118 A  
HETATM   23  C   UNL     1      -5.785  12.153  67.381  1.00  0.00    -0.135 A  
HETATM   24  C   UNL     1      -7.323  13.595  68.519  1.00  0.00    -0.114 A  
HETATM   25  C   UNL     1      -6.270  11.051  68.079  1.00  0.00    -0.053 A  
HETATM   26  C   UNL     1      -6.230  13.446  67.676  1.00  0.00    -0.138 A  
HETATM   27  C   UNL     1      -7.885  12.470  69.119  1.00  0.00     0.366 A  
BRANCH  26  28
HETATM   28  O   UNL     1      -5.644  14.605  67.207  1.00  0.00    -0.292 OA 
BRANCH  28  29
HETATM   29  C   UNL     1      -6.253  15.778  67.754  1.00  0.00    -0.154 C  
BRANCH  29  30
HETATM   30  C   UNL     1      -6.746  16.803  66.723  1.00  0.00    -0.221 C  
BRANCH  30  31
HETATM   31  N   UNL     1      -7.585  17.852  67.378  1.00  0.00    -0.204 NA 
HETATM   32  C   UNL     1      -7.460  19.142  66.679  1.00  0.00    -0.234 C  
HETATM   33  C   UNL     1      -8.243  20.334  67.227  1.00  0.00    -0.393 C  
HETATM   34  C   UNL     1      -9.734  20.226  66.971  1.00  0.00    -0.598 C  
HETATM   35  C   UNL     1     -10.480  19.413  68.016  1.00  0.00    -0.512 C  
HETATM   36  C   UNL     1      -9.749  18.193  68.567  1.00  0.00    -0.372 C  
HETATM   37  C   UNL     1      -8.964  17.376  67.535  1.00  0.00    -0.231 C  
ENDBRANCH  30  31
ENDBRANCH  29  30
ENDBRANCH  28  29
ENDBRANCH  26  28
ENDBRANCH  21  22
ENDBRANCH   5  21
TORSDOF 7
ENDMDL
MODEL      152
REMARK 921   NORMALIZED FREE ENERGY PREDICTED BY IDOCK:   -4.14 KCAL/MOL
REMARK 922        TOTAL FREE ENERGY PREDICTED BY IDOCK:   -8.90 KCAL/MOL
REMARK 923 INTER-LIGAND FREE ENERGY PREDICTED BY IDOCK:   -7.26 KCAL/MOL
REMARK 924 INTRA-LIGAND FREE ENERGY PREDICTED BY IDOCK:   -1.64 KCAL/MOL
REMARK 927      BINDING AFFINITY PREDICTED BY RF-SCORE:    0.00 PKD
ROOT
HETATM    1  C   UNL     1     -12.405  12.499  65.949  1.00  0.00    -0.155 C  
HETATM    2  C   UNL     1     -11.065  12.809  66.540  1.00  0.00    -0.321 A  
HETATM    3  C   UNL     1      -9.787  12.345  66.193  1.00  0.00    -0.252 A  
HETATM    4  C   UNL     1     -10.082  15.878  69.219  1.00  0.00    -0.249 A  
HETATM    5  N   UNL     1      -8.883  13.032  67.036  1.00  0.00    -0.219 NA 
HETATM    6  O   UNL     1     -12.282  16.280  69.923  1.00  0.00    -0.261 OA 
HETATM    7  C   UNL     1      -9.562  14.040  67.717  1.00  0.00    -0.216 A  
HETATM    8  C   UNL     1     -11.418  15.552  69.160  1.00  0.00    -0.348 A  
HETATM    9  C   UNL     1     -10.923  13.786  67.569  1.00  0.00    -0.285 A  
HETATM   10  H   UNL     1     -11.978  16.970  70.501  1.00  0.00     0.000 HD 
HETATM   11  C   UNL     1      -9.153  15.156  68.470  1.00  0.00    -0.191 A  
HETATM   12  C   UNL     1     -11.861  14.543  68.315  1.00  0.00    -0.347 A  
ENDROOT
BRANCH   3  13
HETATM   13  C   UNL     1      -9.416  11.344  65.152  1.00  0.00    -0.223 A  
HETATM   14  C   UNL     1      -8.844   9.348  63.229  1.00  0.00    -0.182 A  
HETATM   15  H   UNL     1      -8.301   7.489  62.620  1.00  0.00     0.000 HD 
HETATM   16  C   UNL     1      -8.932  10.077  65.522  1.00  0.00    -0.206 A  
HETATM   17  C   UNL     1      -8.683   9.075  64.576  1.00  0.00    -0.153 A  
HETATM   18  O   UNL     1      -8.586   8.350  62.338  1.00  0.00    -0.186 OA 
HETATM   19  C   UNL     1      -9.575  11.583  63.777  1.00  0.00    -0.232 A  
HETATM   20  C   UNL     1      -9.261  10.607  62.817  1.00  0.00    -0.328 A  
ENDBRANCH   3  13
BRANCH   5  21
HETATM   21  C   UNL     1      -7.439  12.697  67.158  1.00  0.00    -0.050 C  
BRANCH  21  22
HETATM   22  C   UNL     1      -7.027  11.788  68.289  1.00  0.00    -0.075 A  
HETATM   23  C   UNL     1      -7.504   9.889  69.706  1.00  0.00    -0.140 A  
HETATM   24  C   UNL     1      -5.705  11.356  70.296  1.00  0.00    -0.143 A  
HETATM   25  C   UNL     1      -7.770  10.640  68.564  1.00  0.00    -0.107 A  
HETATM   26  C   UNL     1      -6.545  10.305  70.635  1.00  0.00    -0.036 A  
HETATM   27  C   UNL     1      -5.898  12.027  69.089  1.00  0.00    -0.068 A  
BRANCH  26  28
HETATM   28  O   UNL     1      -6.380   9.759  71.893  1.00  0.00    -0.300 OA 
BRANCH  28  29
HETATM   29  C   UNL     1      -6.983   8.467  72.004  1.00  0.00    -0.091 C  
BRANCH  29  30
HETATM   30  C   UNL     1      -7.559   8.128  73.386  1.00  0.00    -0.150 C  
BRANCH  30  31
HETATM   31  N   UNL     1      -8.991   7.714  73.277  1.00  0.00    -0.180 NA 
HETATM   32  C   UNL     1      -9.577   8.169  72.005  1.00  0.00    -0.219 C  
HETATM   33  C   UNL     1     -11.045   7.843  71.734  1.00  0.00    -0.299 C  
HETATM   34  C   UNL     1     -11.274   6.375  71.429  1.00  0.00    -0.340 C  
HETATM   35  C   UNL     1     -11.438   5.509  72.667  1.00  0.00    -0.331 C  
HETATM   36  C   UNL     1     -10.565   5.872  73.863  1.00  0.00    -0.248 C  
HETATM   37  C   UNL     1      -9.125   6.274  73.527  1.00  0.00    -0.127 C  
ENDBRANCH  30  31
ENDBRANCH  29  30
ENDBRANCH  28  29
ENDBRANCH  26  28
ENDBRANCH  21  22
ENDBRANCH   5  21
TORSDOF 7
ENDMDL
MODEL      153
REMARK 921   NORMALIZED FREE ENERGY PREDICTED BY IDOCK:   -4.11 KCAL/MOL
REMARK 922        TOTAL FREE ENERGY PREDICTED BY IDOCK:   -8.86 KCAL/MOL
REMARK 923 INTER-LIGAND FREE ENERGY PREDICTED BY IDOCK:   -7.04 KCAL/MOL
REMARK 924 INTRA-LIGAND FREE ENERGY PREDICTED BY IDOCK:   -1.82 KCAL/MOL
REMARK 927      BINDING AFFINITY PREDICTED BY RF-SCORE:    0.00 PKD
ROOT
HETATM    1  C   UNL     1     -10.725   8.039  67.284  1.00  0.00    -0.280 C  
HETATM    2  C   UNL     1      -9.439   8.783  67.112  1.00  0.00    -0.208 A  
HETATM    3  C   UNL     1      -8.351   8.936  67.984  1.00  0.00    -0.121 A  
HETATM    4  C   UNL     1      -7.834  10.364  63.577  1.00  0.00    -0.082 A  
HETATM    5  N   UNL     1      -7.379   9.673  67.268  1.00  0.00    -0.087 NA 
HETATM    6  O   UNL     1      -9.849  10.337  62.380  1.00  0.00    -0.695 OA 
HETATM    7  C   UNL     1      -7.768   9.773  65.934  1.00  0.00    -0.105 A  
HETATM    8  C   UNL     1      -9.186  10.108  63.548  1.00  0.00    -0.286 A  
HETATM    9  C   UNL     1      -9.109   9.406  65.871  1.00  0.00    -0.242 A  
HETATM   10  H   UNL     1      -9.408  10.690  61.616  1.00  0.00     0.000 HD 
HETATM   11  C   UNL     1      -7.109  10.160  64.752  1.00  0.00    -0.129 A  
HETATM   12  C   UNL     1      -9.831   9.592  64.665  1.00  0.00     0.094 A  
ENDROOT
BRANCH   3  13
HETATM   13  C   UNL     1      -8.205   8.433  69.381  1.00  0.00    -0.116 A  
HETATM   14  C   UNL     1      -8.100   7.457  72.035  1.00  0.00    -0.094 A  
HETATM   15  H   UNL     1      -8.493   7.511  74.026  1.00  0.00     0.000 HD 
HETATM   16  C   UNL     1      -8.723   9.169  70.461  1.00  0.00    -0.258 A  
HETATM   17  C   UNL     1      -8.706   8.674  71.770  1.00  0.00    -0.266 A  
HETATM   18  O   UNL     1      -8.097   7.012  73.322  1.00  0.00    -0.097 OA 
HETATM   19  C   UNL     1      -7.605   7.200  69.686  1.00  0.00    -0.104 A  
HETATM   20  C   UNL     1      -7.521   6.727  71.006  1.00  0.00    -0.083 A  
ENDBRANCH   3  13
BRANCH   5  21
HETATM   21  C   UNL     1      -6.149  10.244  67.879  1.00  0.00    -0.051 C  
BRANCH  21  22
HETATM   22  C   UNL     1      -6.206  11.675  68.352  1.00  0.00    -0.050 A  
HETATM   23  C   UNL     1      -6.055  14.035  67.851  1.00  0.00    -0.155 A  
HETATM   24  C   UNL     1      -6.062  13.330  70.141  1.00  0.00    -0.107 A  
HETATM   25  C   UNL     1      -6.177  12.716  67.424  1.00  0.00    -0.149 A  
HETATM   26  C   UNL     1      -5.886  14.340  69.206  1.00  0.00    -0.088 A  
HETATM   27  C   UNL     1      -6.308  12.029  69.707  1.00  0.00    -0.110 A  
BRANCH  26  28
HETATM   28  O   UNL     1      -5.526  15.582  69.692  1.00  0.00    -0.104 OA 
BRANCH  28  29
HETATM   29  C   UNL     1      -6.580  16.540  69.558  1.00  0.00    -0.217 C  
BRANCH  29  30
HETATM   30  C   UNL     1      -6.304  17.683  68.571  1.00  0.00    -0.185 C  
BRANCH  30  31
HETATM   31  N   UNL     1      -7.556  18.079  67.856  1.00  0.00    -0.226 NA 
HETATM   32  C   UNL     1      -8.741  17.856  68.703  1.00  0.00    -0.264 C  
HETATM   33  C   UNL     1     -10.113  18.195  68.121  1.00  0.00    -0.388 C  
HETATM   34  C   UNL     1     -10.350  19.688  68.008  1.00  0.00    -0.579 C  
HETATM   35  C   UNL     1      -9.795  20.305  66.735  1.00  0.00    -0.586 C  
HETATM   36  C   UNL     1      -8.466  19.744  66.239  1.00  0.00    -0.390 C  
HETATM   37  C   UNL     1      -7.433  19.444  67.331  1.00  0.00    -0.231 C  
ENDBRANCH  30  31
ENDBRANCH  29  30
ENDBRANCH  28  29
ENDBRANCH  26  28
ENDBRANCH  21  22
ENDBRANCH   5  21
TORSDOF 7
ENDMDL
MODEL      154
REMARK 921   NORMALIZED FREE ENERGY PREDICTED BY IDOCK:   -4.09 KCAL/MOL
REMARK 922        TOTAL FREE ENERGY PREDICTED BY IDOCK:   -8.83 KCAL/MOL
REMARK 923 INTER-LIGAND FREE ENERGY PREDICTED BY IDOCK:   -8.03 KCAL/MOL
REMARK 924 INTRA-LIGAND FREE ENERGY PREDICTED BY IDOCK:   -0.80 KCAL/MOL
REMARK 927      BINDING AFFINITY PREDICTED BY RF-SCORE:    0.00 PKD
ROOT
HETATM    1  C   UNL     1     -10.455  17.423  65.781  1.00  0.00    -0.221 C  
HETATM    2  C   UNL     1      -9.995  16.216  66.537  1.00  0.00    -0.293 A  
HETATM    3  C   UNL     1      -8.992  16.077  67.507  1.00  0.00    -0.194 A  
HETATM    4  C   UNL     1     -11.888  12.488  66.829  1.00  0.00    -0.416 A  
HETATM    5  N   UNL     1      -9.049  14.730  67.935  1.00  0.00    -0.180 NA 
HETATM    6  O   UNL     1     -13.264  12.784  64.955  1.00  0.00    -0.808 OA 
HETATM    7  C   UNL     1     -10.191  14.128  67.410  1.00  0.00    -0.244 A  
HETATM    8  C   UNL     1     -12.280  13.266  65.764  1.00  0.00    -0.456 A  
HETATM    9  C   UNL     1     -10.666  14.964  66.403  1.00  0.00    -0.316 A  
HETATM   10  H   UNL     1     -13.651  11.927  65.095  1.00  0.00     0.000 HD 
HETATM   11  C   UNL     1     -10.875  12.929  67.681  1.00  0.00    -0.252 A  
HETATM   12  C   UNL     1     -11.714  14.519  65.559  1.00  0.00    -0.343 A  
ENDROOT
BRANCH   3  13
HETATM   13  C   UNL     1      -8.044  17.111  68.016  1.00  0.00    -0.210 A  
HETATM   14  C   UNL     1      -6.369  19.121  69.093  1.00  0.00    -0.277 A  
HETATM   15  H   UNL     1      -5.832  21.035  69.506  1.00  0.00     0.000 HD 
HETATM   16  C   UNL     1      -8.308  18.477  67.819  1.00  0.00    -0.273 A  
HETATM   17  C   UNL     1      -7.502  19.475  68.381  1.00  0.00    -0.359 A  
HETATM   18  O   UNL     1      -5.606  20.119  69.619  1.00  0.00    -0.240 OA 
HETATM   19  C   UNL     1      -6.891  16.788  68.750  1.00  0.00    -0.188 A  
HETATM   20  C   UNL     1      -6.039  17.782  69.259  1.00  0.00    -0.233 A  
ENDBRANCH   3  13
BRANCH   5  21
HETATM   21  C   UNL     1      -8.029  14.088  68.805  1.00  0.00    -0.081 C  
BRANCH  21  22
HETATM   22  C   UNL     1      -7.599  12.684  68.455  1.00  0.00    -0.132 A  
HETATM   23  C   UNL     1      -6.993  11.057  66.774  1.00  0.00    -0.131 A  
HETATM   24  C   UNL     1      -7.425  10.313  69.010  1.00  0.00    -0.097 A  
HETATM   25  C   UNL     1      -7.225  12.377  67.147  1.00  0.00    -0.081 A  
HETATM   26  C   UNL     1      -7.200  10.007  67.676  1.00  0.00    -0.088 A  
HETATM   27  C   UNL     1      -7.533  11.648  69.399  1.00  0.00     0.154 A  
BRANCH  26  28
HETATM   28  O   UNL     1      -7.223   8.669  67.333  1.00  0.00    -0.079 OA 
BRANCH  28  29
HETATM   29  C   UNL     1      -8.543   8.121  67.382  1.00  0.00    -0.125 C  
BRANCH  29  30
HETATM   30  C   UNL     1      -8.675   6.796  68.146  1.00  0.00    -0.122 C  
BRANCH  30  31
HETATM   31  N   UNL     1      -9.294   7.018  69.488  1.00  0.00    -0.148 NA 
HETATM   32  C   UNL     1     -10.355   8.038  69.419  1.00  0.00    -0.217 C  
HETATM   33  C   UNL     1     -11.087   8.402  70.709  1.00  0.00    -0.286 C  
HETATM   34  C   UNL     1     -12.030   7.310  71.177  1.00  0.00    -0.363 C  
HETATM   35  C   UNL     1     -11.356   6.230  72.009  1.00  0.00    -0.348 C  
HETATM   36  C   UNL     1      -9.945   5.837  71.585  1.00  0.00    -0.218 C  
HETATM   37  C   UNL     1      -9.718   5.740  70.072  1.00  0.00    -0.169 C  
ENDBRANCH  30  31
ENDBRANCH  29  30
ENDBRANCH  28  29
ENDBRANCH  26  28
ENDBRANCH  21  22
ENDBRANCH   5  21
TORSDOF 7
ENDMDL
MODEL      155
REMARK 921   NORMALIZED FREE ENERGY PREDICTED BY IDOCK:   -4.08 KCAL/MOL
REMARK 922        TOTAL FREE ENERGY PREDICTED BY IDOCK:   -8.81 KCAL/MOL
REMARK 923 INTER-LIGAND FREE ENERGY PREDICTED BY IDOCK:   -6.85 KCAL/MOL
REMARK 924 INTRA-LIGAND FREE ENERGY PREDICTED BY IDOCK:   -1.97 KCAL/MOL
REMARK 927      BINDING AFFINITY PREDICTED BY RF-SCORE:    0.00 PKD
ROOT
HETATM    1  C   UNL     1      -7.030   2.771  68.992  1.00  0.00    -0.044 C  
HETATM    2  C   UNL     1      -8.188   3.591  68.518  1.00  0.00    -0.084 A  
HETATM    3  C   UNL     1      -8.835   4.685  69.113  1.00  0.00    -0.093 A  
HETATM    4  C   UNL     1      -9.892   3.665  64.689  1.00  0.00    -0.181 A  
HETATM    5  N   UNL     1      -9.810   5.113  68.183  1.00  0.00    -0.147 NA 
HETATM    6  O   UNL     1      -8.972   1.625  63.992  1.00  0.00    -0.089 OA 
HETATM    7  C   UNL     1      -9.616   4.448  66.974  1.00  0.00    -0.198 A  
HETATM    8  C   UNL     1      -9.136   2.552  64.977  1.00  0.00    -0.137 A  
HETATM    9  C   UNL     1      -8.759   3.382  67.227  1.00  0.00    -0.132 A  
HETATM   10  H   UNL     1      -9.387   1.721  63.142  1.00  0.00     0.000 HD 
HETATM   11  C   UNL     1     -10.102   4.638  65.667  1.00  0.00    -0.238 A  
HETATM   12  C   UNL     1      -8.530   2.411  66.219  1.00  0.00    -0.101 A  
ENDROOT
BRANCH   3  13
HETATM   13  C   UNL     1      -8.572   5.304  70.444  1.00  0.00    -0.120 A  
HETATM   14  C   UNL     1      -8.000   6.332  73.018  1.00  0.00    -0.107 A  
HETATM   15  H   UNL     1      -8.164   6.409  75.040  1.00  0.00     0.000 HD 
HETATM   16  C   UNL     1      -9.231   4.832  71.593  1.00  0.00    -0.179 A  
HETATM   17  C   UNL     1      -8.924   5.312  72.872  1.00  0.00    -0.120 A  
HETATM   18  O   UNL     1      -7.733   6.777  74.277  1.00  0.00    -0.103 OA 
HETATM   19  C   UNL     1      -7.635   6.334  70.631  1.00  0.00    -0.096 A  
HETATM   20  C   UNL     1      -7.372   6.870  71.903  1.00  0.00    -0.087 A  
ENDBRANCH   3  13
BRANCH   5  21
HETATM   21  C   UNL     1     -10.867   6.114  68.485  1.00  0.00    -0.314 C  
BRANCH  21  22
HETATM   22  C   UNL     1     -10.479   7.571  68.446  1.00  0.00    -0.212 A  
HETATM   23  C   UNL     1     -10.419   9.734  69.522  1.00  0.00    -0.250 A  
HETATM   24  C   UNL     1      -9.891   9.581  67.190  1.00  0.00    -0.239 A  
HETATM   25  C   UNL     1     -10.610   8.357  69.590  1.00  0.00    -0.219 A  
HETATM   26  C   UNL     1     -10.168  10.367  68.300  1.00  0.00    -0.160 A  
HETATM   27  C   UNL     1      -9.962   8.193  67.298  1.00  0.00    -0.283 A  
BRANCH  26  28
HETATM   28  O   UNL     1     -10.199  11.734  68.102  1.00  0.00    -0.190 OA 
BRANCH  28  29
HETATM   29  C   UNL     1     -11.523  12.213  67.852  1.00  0.00    -0.328 C  
BRANCH  29  30
HETATM   30  C   UNL     1     -11.887  13.529  68.553  1.00  0.00    -0.362 C  
BRANCH  30  31
HETATM   31  N   UNL     1     -10.970  14.629  68.125  1.00  0.00    -0.254 NA 
HETATM   32  C   UNL     1     -11.120  14.913  66.687  1.00  0.00    -0.329 C  
HETATM   33  C   UNL     1     -10.242  16.004  66.076  1.00  0.00    -0.360 C  
HETATM   34  C   UNL     1     -10.661  17.399  66.497  1.00  0.00    -0.184 C  
HETATM   35  C   UNL     1     -10.072  17.843  67.826  1.00  0.00    -0.350 C  
HETATM   36  C   UNL     1      -9.951  16.768  68.900  1.00  0.00    -0.271 C  
HETATM   37  C   UNL     1     -11.135  15.798  68.996  1.00  0.00    -0.282 C  
ENDBRANCH  30  31
ENDBRANCH  29  30
ENDBRANCH  28  29
ENDBRANCH  26  28
ENDBRANCH  21  22
ENDBRANCH   5  21
TORSDOF 7
ENDMDL
MODEL      156
REMARK 921   NORMALIZED FREE ENERGY PREDICTED BY IDOCK:   -4.07 KCAL/MOL
REMARK 922        TOTAL FREE ENERGY PREDICTED BY IDOCK:   -8.79 KCAL/MOL
REMARK 923 INTER-LIGAND FREE ENERGY PREDICTED BY IDOCK:   -6.27 KCAL/MOL
REMARK 924 INTRA-LIGAND FREE ENERGY PREDICTED BY IDOCK:   -2.52 KCAL/MOL
REMARK 927      BINDING AFFINITY PREDICTED BY RF-SCORE:    0.00 PKD
ROOT
HETATM    1  C   UNL     1      -6.972   8.202  64.747  1.00  0.00    -0.074 C  
HETATM    2  C   UNL     1      -7.181   7.661  66.127  1.00  0.00    -0.070 A  
HETATM    3  C   UNL     1      -7.487   6.362  66.559  1.00  0.00    -0.086 A  
HETATM    4  C   UNL     1      -6.279   9.508  69.779  1.00  0.00    -0.040 A  
HETATM    5  N   UNL     1      -7.489   6.413  67.972  1.00  0.00    -0.092 NA 
HETATM    6  O   UNL     1      -6.137  11.680  68.907  1.00  0.00    -0.048 OA 
HETATM    7  C   UNL     1      -6.984   7.643  68.389  1.00  0.00    -0.072 A  
HETATM    8  C   UNL     1      -6.384  10.356  68.700  1.00  0.00    -0.051 A  
HETATM    9  C   UNL     1      -6.977   8.480  67.277  1.00  0.00    -0.075 A  
HETATM   10  H   UNL     1      -5.928  12.020  69.769  1.00  0.00     0.000 HD 
HETATM   11  C   UNL     1      -6.535   8.145  69.625  1.00  0.00    -0.037 A  
HETATM   12  C   UNL     1      -6.690   9.859  67.439  1.00  0.00    -0.074 A  
ENDROOT
BRANCH   3  13
HETATM   13  C   UNL     1      -7.753   5.149  65.733  1.00  0.00    -0.091 A  
HETATM   14  C   UNL     1      -8.244   2.946  64.026  1.00  0.00    -0.083 A  
HETATM   15  H   UNL     1      -9.301   1.892  62.650  1.00  0.00     0.000 HD 
HETATM   16  C   UNL     1      -8.943   5.038  64.992  1.00  0.00    -0.131 A  
HETATM   17  C   UNL     1      -9.173   3.968  64.119  1.00  0.00    -0.146 A  
HETATM   18  O   UNL     1      -8.507   1.919  63.171  1.00  0.00    -0.072 OA 
HETATM   19  C   UNL     1      -6.830   4.097  65.609  1.00  0.00    -0.057 A  
HETATM   20  C   UNL     1      -7.084   2.986  64.788  1.00  0.00    -0.057 A  
ENDBRANCH   3  13
BRANCH   5  21
HETATM   21  C   UNL     1      -7.970   5.310  68.846  1.00  0.00    -0.086 C  
BRANCH  21  22
HETATM   22  C   UNL     1      -9.263   5.526  69.592  1.00  0.00    -0.163 A  
HETATM   23  C   UNL     1     -11.567   6.255  69.586  1.00  0.00    -0.287 A  
HETATM   24  C   UNL     1     -10.484   5.843  71.683  1.00  0.00    -0.285 A  
HETATM   25  C   UNL     1     -10.416   5.888  68.896  1.00  0.00    -0.325 A  
HETATM   26  C   UNL     1     -11.573   6.342  70.982  1.00  0.00    -0.325 A  
HETATM   27  C   UNL     1      -9.380   5.360  70.981  1.00  0.00    -0.188 A  
BRANCH  26  28
HETATM   28  O   UNL     1     -12.583   6.916  71.730  1.00  0.00    -0.350 OA 
BRANCH  28  29
HETATM   29  C   UNL     1     -12.703   8.321  71.486  1.00  0.00    -0.305 C  
BRANCH  29  30
HETATM   30  C   UNL     1     -11.509   9.170  71.944  1.00  0.00    -0.353 C  
BRANCH  30  31
HETATM   31  N   UNL     1     -11.101  10.130  70.874  1.00  0.00    -0.321 NA 
HETATM   32  C   UNL     1     -10.338   9.449  69.814  1.00  0.00    -0.223 C  
HETATM   33  C   UNL     1      -9.828  10.288  68.644  1.00  0.00    -0.180 C  
HETATM   34  C   UNL     1     -10.936  10.721  67.704  1.00  0.00    -0.365 C  
HETATM   35  C   UNL     1     -11.653  11.989  68.141  1.00  0.00    -0.403 C  
HETATM   36  C   UNL     1     -11.868  12.157  69.641  1.00  0.00    -0.391 C  
HETATM   37  C   UNL     1     -12.266  10.884  70.394  1.00  0.00    -0.365 C  
ENDBRANCH  30  31
ENDBRANCH  29  30
ENDBRANCH  28  29
ENDBRANCH  26  28
ENDBRANCH  21  22
ENDBRANCH   5  21
TORSDOF 7
ENDMDL
MODEL      157
REMARK 921   NORMALIZED FREE ENERGY PREDICTED BY IDOCK:   -4.02 KCAL/MOL
REMARK 922        TOTAL FREE ENERGY PREDICTED BY IDOCK:   -8.73 KCAL/MOL
REMARK 923 INTER-LIGAND FREE ENERGY PREDICTED BY IDOCK:   -7.42 KCAL/MOL
REMARK 924 INTRA-LIGAND FREE ENERGY PREDICTED BY IDOCK:   -1.32 KCAL/MOL
REMARK 927      BINDING AFFINITY PREDICTED BY RF-SCORE:    0.00 PKD
ROOT
HETATM    1  C   UNL     1      -9.973  15.042  66.200  1.00  0.00    -0.313 C  
HETATM    2  C   UNL     1     -10.521  13.925  67.031  1.00  0.00    -0.278 A  
HETATM    3  C   UNL     1     -10.452  12.536  66.850  1.00  0.00    -0.228 A  
HETATM    4  C   UNL     1     -12.053  14.130  70.927  1.00  0.00    -0.416 A  
HETATM    5  N   UNL     1     -11.074  11.965  67.984  1.00  0.00    -0.223 NA 
HETATM    6  O   UNL     1     -12.408  16.447  70.910  1.00  0.00    -0.382 OA 
HETATM    7  C   UNL     1     -11.315  12.961  68.928  1.00  0.00    -0.288 A  
HETATM    8  C   UNL     1     -12.009  15.325  70.247  1.00  0.00    -0.330 A  
HETATM    9  C   UNL     1     -11.161  14.183  68.280  1.00  0.00    -0.295 A  
HETATM   10  H   UNL     1     -12.736  16.410  71.802  1.00  0.00     0.000 HD 
HETATM   11  C   UNL     1     -11.669  12.950  70.290  1.00  0.00    -0.187 A  
HETATM   12  C   UNL     1     -11.530  15.380  68.944  1.00  0.00    -0.354 A  
ENDROOT
BRANCH   3  13
HETATM   13  C   UNL     1      -9.848  11.778  65.716  1.00  0.00    -0.267 A  
HETATM   14  C   UNL     1      -8.638  10.489  63.506  1.00  0.00    -0.165 A  
HETATM   15  H   UNL     1      -8.373  10.095  61.532  1.00  0.00     0.000 HD 
HETATM   16  C   UNL     1     -10.310  11.972  64.403  1.00  0.00    -0.342 A  
HETATM   17  C   UNL     1      -9.691  11.365  63.303  1.00  0.00    -0.413 A  
HETATM   18  O   UNL     1      -8.066   9.913  62.412  1.00  0.00    -0.119 OA 
HETATM   19  C   UNL     1      -8.772  10.890  65.883  1.00  0.00    -0.190 A  
HETATM   20  C   UNL     1      -8.190  10.223  64.793  1.00  0.00    -0.163 A  
ENDBRANCH   3  13
BRANCH   5  21
HETATM   21  C   UNL     1     -11.411  10.522  68.111  1.00  0.00    -0.179 C  
BRANCH  21  22
HETATM   22  C   UNL     1     -10.797   9.762  69.261  1.00  0.00    -0.240 A  
HETATM   23  C   UNL     1      -8.858   8.723  70.263  1.00  0.00    -0.171 A  
HETATM   24  C   UNL     1     -11.020   8.305  71.207  1.00  0.00    -0.290 A  
HETATM   25  C   UNL     1      -9.417   9.565  69.305  1.00  0.00    -0.171 A  
HETATM   26  C   UNL     1      -9.667   8.002  71.148  1.00  0.00    -0.160 A  
HETATM   27  C   UNL     1     -11.552   9.244  70.325  1.00  0.00    -0.151 A  
BRANCH  26  28
HETATM   28  O   UNL     1      -9.223   6.980  71.963  1.00  0.00    -0.140 OA 
BRANCH  28  29
HETATM   29  C   UNL     1      -8.932   5.789  71.226  1.00  0.00    -0.140 C  
BRANCH  29  30
HETATM   30  C   UNL     1      -7.505   5.697  70.667  1.00  0.00    -0.085 C  
BRANCH  30  31
HETATM   31  N   UNL     1      -7.527   5.575  69.177  1.00  0.00    -0.077 NA 
HETATM   32  C   UNL     1      -8.661   4.747  68.731  1.00  0.00    -0.088 C  
HETATM   33  C   UNL     1      -8.827   4.505  67.231  1.00  0.00    -0.111 C  
HETATM   34  C   UNL     1      -9.305   5.737  66.488  1.00  0.00    -0.162 C  
HETATM   35  C   UNL     1      -8.188   6.686  66.086  1.00  0.00    -0.124 C  
HETATM   36  C   UNL     1      -7.045   6.841  67.084  1.00  0.00    -0.079 C  
HETATM   37  C   UNL     1      -7.465   6.904  68.557  1.00  0.00    -0.096 C  
ENDBRANCH  30  31
ENDBRANCH  29  30
ENDBRANCH  28  29
ENDBRANCH  26  28
ENDBRANCH  21  22
ENDBRANCH   5  21
TORSDOF 7
ENDMDL
MODEL      158
REMARK 921   NORMALIZED FREE ENERGY PREDICTED BY IDOCK:   -3.99 KCAL/MOL
REMARK 922        TOTAL FREE ENERGY PREDICTED BY IDOCK:   -8.70 KCAL/MOL
REMARK 923 INTER-LIGAND FREE ENERGY PREDICTED BY IDOCK:   -5.94 KCAL/MOL
REMARK 924 INTRA-LIGAND FREE ENERGY PREDICTED BY IDOCK:   -2.76 KCAL/MOL
REMARK 927      BINDING AFFINITY PREDICTED BY RF-SCORE:    0.00 PKD
ROOT
HETATM    1  C   UNL     1     -10.359  17.341  69.234  1.00  0.00    -0.237 C  
HETATM    2  C   UNL     1      -9.064  16.834  68.682  1.00  0.00    -0.254 A  
HETATM    3  C   UNL     1      -8.751  15.612  68.069  1.00  0.00    -0.167 A  
HETATM    4  C   UNL     1      -5.568  19.013  67.910  1.00  0.00    -0.187 A  
HETATM    5  N   UNL     1      -7.397  15.711  67.674  1.00  0.00    -0.150 NA 
HETATM    6  O   UNL     1      -6.133  20.839  69.267  1.00  0.00    -0.321 OA 
HETATM    7  C   UNL     1      -6.963  17.024  67.839  1.00  0.00    -0.159 A  
HETATM    8  C   UNL     1      -6.449  19.603  68.786  1.00  0.00    -0.283 A  
HETATM    9  C   UNL     1      -7.908  17.669  68.632  1.00  0.00    -0.280 A  
HETATM   10  H   UNL     1      -5.320  21.272  69.034  1.00  0.00     0.000 HD 
HETATM   11  C   UNL     1      -5.836  17.743  67.399  1.00  0.00    -0.163 A  
HETATM   12  C   UNL     1      -7.638  18.970  69.126  1.00  0.00    -0.243 A  
ENDROOT
BRANCH   3  13
HETATM   13  C   UNL     1      -9.637  14.432  67.850  1.00  0.00    -0.219 A  
HETATM   14  C   UNL     1     -11.416  12.250  67.563  1.00  0.00    -0.347 A  
HETATM   15  H   UNL     1     -12.357  10.557  68.174  1.00  0.00     0.000 HD 
HETATM   16  C   UNL     1      -9.736  13.424  68.826  1.00  0.00     0.002 A  
HETATM   17  C   UNL     1     -10.641  12.363  68.704  1.00  0.00    -0.243 A  
HETATM   18  O   UNL     1     -12.280  11.201  67.479  1.00  0.00    -0.220 OA 
HETATM   19  C   UNL     1     -10.444  14.289  66.709  1.00  0.00    -0.273 A  
HETATM   20  C   UNL     1     -11.304  13.190  66.548  1.00  0.00    -0.350 A  
ENDBRANCH   3  13
BRANCH   5  21
HETATM   21  C   UNL     1      -6.590  14.567  67.173  1.00  0.00     0.541 C  
BRANCH  21  22
HETATM   22  C   UNL     1      -6.458  13.361  68.071  1.00  0.00    -0.131 A  
HETATM   23  C   UNL     1      -6.836  11.005  68.451  1.00  0.00    -0.065 A  
HETATM   24  C   UNL     1      -6.155  12.384  70.288  1.00  0.00    -0.071 A  
HETATM   25  C   UNL     1      -6.789  12.095  67.588  1.00  0.00    -0.119 A  
HETATM   26  C   UNL     1      -6.628  11.164  69.825  1.00  0.00    -0.138 A  
HETATM   27  C   UNL     1      -5.990  13.440  69.392  1.00  0.00    -0.099 A  
BRANCH  26  28
HETATM   28  O   UNL     1      -6.883  10.196  70.777  1.00  0.00    -0.317 OA 
BRANCH  28  29
HETATM   29  C   UNL     1      -6.604   8.878  70.295  1.00  0.00    -0.042 C  
BRANCH  29  30
HETATM   30  C   UNL     1      -7.781   7.894  70.355  1.00  0.00    -0.087 C  
BRANCH  30  31
HETATM   31  N   UNL     1      -8.392   7.717  69.003  1.00  0.00    -0.127 NA 
HETATM   32  C   UNL     1      -9.562   8.596  68.832  1.00  0.00    -0.159 C  
HETATM   33  C   UNL     1     -10.320   8.532  67.507  1.00  0.00    -0.334 C  
HETATM   34  C   UNL     1      -9.553   9.162  66.361  1.00  0.00    -0.309 C  
HETATM   35  C   UNL     1      -8.559   8.223  65.695  1.00  0.00    -0.189 C  
HETATM   36  C   UNL     1      -7.820   7.262  66.620  1.00  0.00    -0.102 C  
HETATM   37  C   UNL     1      -7.370   7.855  67.960  1.00  0.00    -0.096 C  
ENDBRANCH  30  31
ENDBRANCH  29  30
ENDBRANCH  28  29
ENDBRANCH  26  28
ENDBRANCH  21  22
ENDBRANCH   5  21
TORSDOF 7
ENDMDL
MODEL      159
REMARK 921   NORMALIZED FREE ENERGY PREDICTED BY IDOCK:   -3.99 KCAL/MOL
REMARK 922        TOTAL FREE ENERGY PREDICTED BY IDOCK:   -8.69 KCAL/MOL
REMARK 923 INTER-LIGAND FREE ENERGY PREDICTED BY IDOCK:   -6.58 KCAL/MOL
REMARK 924 INTRA-LIGAND FREE ENERGY PREDICTED BY IDOCK:   -2.11 KCAL/MOL
REMARK 927      BINDING AFFINITY PREDICTED BY RF-SCORE:    0.00 PKD
ROOT
HETATM    1  C   UNL     1     -11.988  12.692  70.473  1.00  0.00    -0.279 C  
HETATM    2  C   UNL     1     -11.548  11.868  69.305  1.00  0.00    -0.376 A  
HETATM    3  C   UNL     1     -11.235  10.503  69.218  1.00  0.00    -0.262 A  
HETATM    4  C   UNL     1     -11.640  12.905  65.245  1.00  0.00    -0.376 A  
HETATM    5  N   UNL     1     -10.961  10.252  67.854  1.00  0.00    -0.286 NA 
HETATM    6  O   UNL     1     -11.830  15.214  65.604  1.00  0.00    -0.141 OA 
HETATM    7  C   UNL     1     -11.312  11.370  67.101  1.00  0.00    -0.255 A  
HETATM    8  C   UNL     1     -11.697  13.961  66.125  1.00  0.00    -0.376 A  
HETATM    9  C   UNL     1     -11.486  12.425  67.992  1.00  0.00    -0.377 A  
HETATM   10  H   UNL     1     -11.853  15.364  64.666  1.00  0.00     0.000 HD 
HETATM   11  C   UNL     1     -11.490  11.603  65.724  1.00  0.00    -0.175 A  
HETATM   12  C   UNL     1     -11.664  13.741  67.496  1.00  0.00    -0.410 A  
ENDROOT
BRANCH   3  13
HETATM   13  C   UNL     1     -11.195   9.491  70.313  1.00  0.00    -0.307 A  
HETATM   14  C   UNL     1     -11.138   7.699  72.503  1.00  0.00    -0.336 A  
HETATM   15  H   UNL     1     -10.360   6.900  74.200  1.00  0.00     0.000 HD 
HETATM   16  C   UNL     1     -10.113   9.452  71.210  1.00  0.00    -0.309 A  
HETATM   17  C   UNL     1     -10.098   8.593  72.315  1.00  0.00    -0.363 A  
HETATM   18  O   UNL     1     -11.085   6.874  73.586  1.00  0.00    -0.144 OA 
HETATM   19  C   UNL     1     -12.237   8.575  70.539  1.00  0.00     0.222 A  
HETATM   20  C   UNL     1     -12.197   7.662  71.606  1.00  0.00    -0.346 A  
ENDBRANCH   3  13
BRANCH   5  21
HETATM   21  C   UNL     1     -10.381   8.983  67.340  1.00  0.00    -0.268 C  
BRANCH  21  22
HETATM   22  C   UNL     1      -9.296   8.330  68.160  1.00  0.00    -0.140 A  
HETATM   23  C   UNL     1      -6.990   8.273  68.882  1.00  0.00    -0.066 A  
HETATM   24  C   UNL     1      -8.401   6.392  69.343  1.00  0.00    -0.122 A  
HETATM   25  C   UNL     1      -8.048   8.943  68.275  1.00  0.00    -0.109 A  
HETATM   26  C   UNL     1      -7.131   6.951  69.319  1.00  0.00    -0.084 A  
HETATM   27  C   UNL     1      -9.481   7.120  68.847  1.00  0.00    -0.142 A  
BRANCH  26  28
HETATM   28  O   UNL     1      -6.086   6.138  69.713  1.00  0.00    -0.024 OA 
BRANCH  28  29
HETATM   29  C   UNL     1      -5.367   5.605  68.597  1.00  0.00    -0.003 C  
BRANCH  29  30
HETATM   30  C   UNL     1      -5.663   4.135  68.268  1.00  0.00    -0.021 C  
BRANCH  30  31
HETATM   31  N   UNL     1      -6.580   4.030  67.092  1.00  0.00    -0.045 NA 
HETATM   32  C   UNL     1      -7.929   3.612  67.510  1.00  0.00    -0.082 C  
HETATM   33  C   UNL     1      -8.994   3.440  66.427  1.00  0.00    -0.153 C  
HETATM   34  C   UNL     1      -9.471   4.761  65.857  1.00  0.00    -0.171 C  
HETATM   35  C   UNL     1      -8.596   5.300  64.737  1.00  0.00    -0.136 C  
HETATM   36  C   UNL     1      -7.095   5.076  64.889  1.00  0.00    -0.062 C  
HETATM   37  C   UNL     1      -6.543   5.269  66.306  1.00  0.00    -0.052 C  
ENDBRANCH  30  31
ENDBRANCH  29  30
ENDBRANCH  28  29
ENDBRANCH  26  28
ENDBRANCH  21  22
ENDBRANCH   5  21
TORSDOF 7
ENDMDL
MODEL      160
REMARK 921   NORMALIZED FREE ENERGY PREDICTED BY IDOCK:   -3.97 KCAL/MOL
REMARK 922        TOTAL FREE ENERGY PREDICTED BY IDOCK:   -8.66 KCAL/MOL
REMARK 923 INTER-LIGAND FREE ENERGY PREDICTED BY IDOCK:   -6.10 KCAL/MOL
REMARK 924 INTRA-LIGAND FREE ENERGY PREDICTED BY IDOCK:   -2.56 KCAL/MOL
REMARK 927      BINDING AFFINITY PREDICTED BY RF-SCORE:    0.00 PKD
ROOT
HETATM    1  C   UNL     1     -12.885   7.324  71.448  1.00  0.00    -0.425 C  
HETATM    2  C   UNL     1     -11.460   6.942  71.198  1.00  0.00    -0.347 A  
HETATM    3  C   UNL     1     -10.488   7.536  70.380  1.00  0.00    -0.223 A  
HETATM    4  C   UNL     1      -9.114   4.213  73.346  1.00  0.00    -0.108 A  
HETATM    5  N   UNL     1      -9.299   6.801  70.594  1.00  0.00    -0.162 NA 
HETATM    6  O   UNL     1     -10.917   3.119  74.370  1.00  0.00    -0.093 OA 
HETATM    7  C   UNL     1      -9.480   5.933  71.668  1.00  0.00    -0.149 A  
HETATM    8  C   UNL     1     -10.474   4.074  73.505  1.00  0.00    -0.183 A  
HETATM    9  C   UNL     1     -10.849   5.871  71.915  1.00  0.00    -0.307 A  
HETATM   10  H   UNL     1     -10.316   2.543  74.828  1.00  0.00     0.000 HD 
HETATM   11  C   UNL     1      -8.607   5.166  72.462  1.00  0.00    -0.121 A  
HETATM   12  C   UNL     1     -11.352   4.916  72.835  1.00  0.00    -0.296 A  
ENDROOT
BRANCH   3  13
HETATM   13  C   UNL     1     -10.634   8.706  69.467  1.00  0.00    -0.218 A  
HETATM   14  C   UNL     1     -10.759  10.983  67.791  1.00  0.00    -0.227 A  
HETATM   15  H   UNL     1     -10.869  12.974  67.406  1.00  0.00     0.000 HD 
HETATM   16  C   UNL     1     -10.808  10.000  69.988  1.00  0.00    -0.352 A  
HETATM   17  C   UNL     1     -10.834  11.132  69.165  1.00  0.00    -0.284 A  
HETATM   18  O   UNL     1     -10.793  12.107  67.023  1.00  0.00    -0.230 OA 
HETATM   19  C   UNL     1     -10.553   8.593  68.069  1.00  0.00    -0.205 A  
HETATM   20  C   UNL     1     -10.648   9.718  67.232  1.00  0.00    -0.320 A  
ENDBRANCH   3  13
BRANCH   5  21
HETATM   21  C   UNL     1      -8.067   6.952  69.775  1.00  0.00    -0.126 C  
BRANCH  21  22
HETATM   22  C   UNL     1      -8.066   6.338  68.397  1.00  0.00    -0.112 A  
HETATM   23  C   UNL     1      -7.225   6.319  66.132  1.00  0.00    -0.075 A  
HETATM   24  C   UNL     1      -9.148   4.995  66.668  1.00  0.00    -0.119 A  
HETATM   25  C   UNL     1      -7.128   6.750  67.451  1.00  0.00    -0.084 A  
HETATM   26  C   UNL     1      -8.299   5.529  65.709  1.00  0.00    -0.129 A  
HETATM   27  C   UNL     1      -8.968   5.334  68.008  1.00  0.00    -0.113 A  
BRANCH  26  28
HETATM   28  O   UNL     1      -8.600   5.253  64.389  1.00  0.00    -0.140 OA 
BRANCH  28  29
HETATM   29  C   UNL     1      -7.670   5.855  63.486  1.00  0.00    -0.095 C  
BRANCH  29  30
HETATM   30  C   UNL     1      -8.253   6.943  62.572  1.00  0.00    -0.035 C  
BRANCH  30  31
HETATM   31  N   UNL     1      -7.744   8.292  62.965  1.00  0.00    -0.127 NA 
HETATM   32  C   UNL     1      -8.549   8.864  64.058  1.00  0.00    -0.100 C  
HETATM   33  C   UNL     1      -8.175  10.252  64.575  1.00  0.00    -0.158 C  
HETATM   34  C   UNL     1      -6.893  10.251  65.385  1.00  0.00    -0.140 C  
HETATM   35  C   UNL     1      -5.632  10.361  64.542  1.00  0.00    -0.135 C  
HETATM   36  C   UNL     1      -5.648   9.619  63.210  1.00  0.00    -0.084 C  
HETATM   37  C   UNL     1      -6.303   8.234  63.237  1.00  0.00    -0.081 C  
ENDBRANCH  30  31
ENDBRANCH  29  30
ENDBRANCH  28  29
ENDBRANCH  26  28
ENDBRANCH  21  22
ENDBRANCH   5  21
TORSDOF 7
ENDMDL
MODEL      161
REMARK 921   NORMALIZED FREE ENERGY PREDICTED BY IDOCK:   -3.95 KCAL/MOL
REMARK 922        TOTAL FREE ENERGY PREDICTED BY IDOCK:   -8.64 KCAL/MOL
REMARK 923 INTER-LIGAND FREE ENERGY PREDICTED BY IDOCK:   -6.36 KCAL/MOL
REMARK 924 INTRA-LIGAND FREE ENERGY PREDICTED BY IDOCK:   -2.28 KCAL/MOL
REMARK 927      BINDING AFFINITY PREDICTED BY RF-SCORE:    0.00 PKD
ROOT
HETATM    1  C   UNL     1     -11.150   6.442  67.007  1.00  0.00    -0.405 C  
HETATM    2  C   UNL     1      -9.905   6.585  67.826  1.00  0.00    -0.139 A  
HETATM    3  C   UNL     1      -9.471   7.634  68.649  1.00  0.00    -0.151 A  
HETATM    4  C   UNL     1      -7.131   3.608  68.828  1.00  0.00    -0.050 A  
HETATM    5  N   UNL     1      -8.263   7.194  69.237  1.00  0.00    -0.127 NA 
HETATM    6  O   UNL     1      -7.791   2.107  67.153  1.00  0.00    -0.064 OA 
HETATM    7  C   UNL     1      -8.082   5.841  68.958  1.00  0.00    -0.101 A  
HETATM    8  C   UNL     1      -7.934   3.325  67.748  1.00  0.00    -0.075 A  
HETATM    9  C   UNL     1      -8.972   5.511  67.940  1.00  0.00    -0.108 A  
HETATM   10  H   UNL     1      -7.141   1.481  67.448  1.00  0.00     0.000 HD 
HETATM   11  C   UNL     1      -7.227   4.845  69.466  1.00  0.00    -0.056 A  
HETATM   12  C   UNL     1      -8.885   4.241  67.316  1.00  0.00    -0.121 A  
ENDROOT
BRANCH   3  13
HETATM   13  C   UNL     1     -10.123   8.955  68.889  1.00  0.00    -0.209 A  
HETATM   14  C   UNL     1     -11.478  11.416  69.225  1.00  0.00    -0.303 A  
HETATM   15  H   UNL     1     -12.154  13.235  68.626  1.00  0.00     0.000 HD 
HETATM   16  C   UNL     1     -10.116   9.945  67.892  1.00  0.00    -0.210 A  
HETATM   17  C   UNL     1     -10.815  11.149  68.039  1.00  0.00    -0.274 A  
HETATM   18  O   UNL     1     -12.141  12.601  69.334  1.00  0.00    -0.264 OA 
HETATM   19  C   UNL     1     -10.813   9.256  70.076  1.00  0.00    -0.264 A  
HETATM   20  C   UNL     1     -11.459  10.490  70.259  1.00  0.00    -0.416 A  
ENDBRANCH   3  13
BRANCH   5  21
HETATM   21  C   UNL     1      -7.349   8.068  70.018  1.00  0.00    -0.062 C  
BRANCH  21  22
HETATM   22  C   UNL     1      -6.835   9.317  69.346  1.00  0.00    -0.049 A  
HETATM   23  C   UNL     1      -6.672  11.727  69.290  1.00  0.00    -0.110 A  
HETATM   24  C   UNL     1      -5.986  10.471  67.369  1.00  0.00    -0.052 A  
HETATM   25  C   UNL     1      -6.983  10.555  69.971  1.00  0.00    -0.150 A  
HETATM   26  C   UNL     1      -6.277  11.698  67.948  1.00  0.00    -0.050 A  
HETATM   27  C   UNL     1      -6.183   9.302  68.102  1.00  0.00    -0.053 A  
BRANCH  26  28
HETATM   28  O   UNL     1      -6.176  12.809  67.134  1.00  0.00    -0.263 OA 
BRANCH  28  29
HETATM   29  C   UNL     1      -7.121  13.824  67.485  1.00  0.00    -0.157 C  
BRANCH  29  30
HETATM   30  C   UNL     1      -6.582  15.261  67.458  1.00  0.00    -0.151 C  
BRANCH  30  31
HETATM   31  N   UNL     1      -7.581  16.190  66.847  1.00  0.00    -0.227 NA 
HETATM   32  C   UNL     1      -8.874  15.515  66.642  1.00  0.00    -0.290 C  
HETATM   33  C   UNL     1     -10.010  16.318  66.010  1.00  0.00    -0.370 C  
HETATM   34  C   UNL     1     -10.588  17.358  66.950  1.00  0.00    -0.216 C  
HETATM   35  C   UNL     1      -9.827  18.674  66.955  1.00  0.00    -0.356 C  
HETATM   36  C   UNL     1      -8.310  18.573  66.829  1.00  0.00    -0.279 C  
HETATM   37  C   UNL     1      -7.660  17.434  67.621  1.00  0.00    -0.188 C  
ENDBRANCH  30  31
ENDBRANCH  29  30
ENDBRANCH  28  29
ENDBRANCH  26  28
ENDBRANCH  21  22
ENDBRANCH   5  21
TORSDOF 7
ENDMDL
MODEL      162
REMARK 921   NORMALIZED FREE ENERGY PREDICTED BY IDOCK:   -3.93 KCAL/MOL
REMARK 922        TOTAL FREE ENERGY PREDICTED BY IDOCK:   -8.60 KCAL/MOL
REMARK 923 INTER-LIGAND FREE ENERGY PREDICTED BY IDOCK:   -6.15 KCAL/MOL
REMARK 924 INTRA-LIGAND FREE ENERGY PREDICTED BY IDOCK:   -2.45 KCAL/MOL
REMARK 927      BINDING AFFINITY PREDICTED BY RF-SCORE:    0.00 PKD
ROOT
HETATM    1  C   UNL     1      -6.809  13.691  68.818  1.00  0.00    -0.107 C  
HETATM    2  C   UNL     1      -8.130  13.101  68.435  1.00  0.00    -0.130 A  
HETATM    3  C   UNL     1      -8.511  11.764  68.250  1.00  0.00    -0.161 A  
HETATM    4  C   UNL     1     -11.866  14.998  68.346  1.00  0.00    -0.298 A  
HETATM    5  N   UNL     1      -9.898  11.790  67.974  1.00  0.00    -0.178 NA 
HETATM    6  O   UNL     1     -11.013  17.181  68.325  1.00  0.00    -0.352 OA 
HETATM    7  C   UNL     1     -10.389  13.073  68.203  1.00  0.00    -0.240 A  
HETATM    8  C   UNL     1     -10.777  15.839  68.321  1.00  0.00    -0.281 A  
HETATM    9  C   UNL     1      -9.289  13.921  68.294  1.00  0.00    -0.209 A  
HETATM   10  H   UNL     1     -11.895  17.533  68.314  1.00  0.00     0.000 HD 
HETATM   11  C   UNL     1     -11.681  13.615  68.330  1.00  0.00    -0.393 A  
HETATM   12  C   UNL     1      -9.487  15.324  68.337  1.00  0.00    -0.206 A  
ENDROOT
BRANCH   3  13
HETATM   13  C   UNL     1      -7.663  10.539  68.328  1.00  0.00    -0.101 A  
HETATM   14  C   UNL     1      -6.191   8.131  68.537  1.00  0.00    -0.049 A  
HETATM   15  H   UNL     1      -5.331   6.588  69.538  1.00  0.00     0.000 HD 
HETATM   16  C   UNL     1      -7.321   9.987  69.575  1.00  0.00    -0.112 A  
HETATM   17  C   UNL     1      -6.625   8.777  69.682  1.00  0.00    -0.039 A  
HETATM   18  O   UNL     1      -5.511   6.960  68.682  1.00  0.00    -0.016 OA 
HETATM   19  C   UNL     1      -7.213   9.853  67.187  1.00  0.00    -0.086 A  
HETATM   20  C   UNL     1      -6.454   8.675  67.287  1.00  0.00    -0.058 A  
ENDBRANCH   3  13
BRANCH   5  21
HETATM   21  C   UNL     1     -10.677  10.612  67.507  1.00  0.00    -0.272 C  
BRANCH  21  22
HETATM   22  C   UNL     1     -10.709   9.398  68.402  1.00  0.00    -0.213 A  
HETATM   23  C   UNL     1     -10.675   6.994  68.642  1.00  0.00    -0.225 A  
HETATM   24  C   UNL     1     -11.260   8.343  70.533  1.00  0.00    -0.252 A  
HETATM   25  C   UNL     1     -10.480   8.132  67.865  1.00  0.00    -0.259 A  
HETATM   26  C   UNL     1     -11.174   7.089  69.946  1.00  0.00    -0.246 A  
HETATM   27  C   UNL     1     -10.942   9.475  69.784  1.00  0.00    -0.245 A  
BRANCH  26  28
HETATM   28  O   UNL     1     -11.616   6.018  70.698  1.00  0.00    -0.261 OA 
BRANCH  28  29
HETATM   29  C   UNL     1     -10.805   5.800  71.856  1.00  0.00    -0.252 C  
BRANCH  29  30
HETATM   30  C   UNL     1     -10.057   4.460  71.890  1.00  0.00    -0.174 C  
BRANCH  30  31
HETATM   31  N   UNL     1      -9.535   4.111  70.534  1.00  0.00    -0.156 NA 
HETATM   32  C   UNL     1      -8.256   4.793  70.268  1.00  0.00    -0.079 C  
HETATM   33  C   UNL     1      -7.586   4.559  68.915  1.00  0.00    -0.060 C  
HETATM   34  C   UNL     1      -6.987   3.172  68.789  1.00  0.00    -0.048 C  
HETATM   35  C   UNL     1      -7.979   2.111  68.341  1.00  0.00    -0.064 C  
HETATM   36  C   UNL     1      -9.396   2.241  68.891  1.00  0.00    -0.209 C  
HETATM   37  C   UNL     1      -9.493   2.653  70.364  1.00  0.00    -0.115 C  
ENDBRANCH  30  31
ENDBRANCH  29  30
ENDBRANCH  28  29
ENDBRANCH  26  28
ENDBRANCH  21  22
ENDBRANCH   5  21
TORSDOF 7
ENDMDL
MODEL      163
REMARK 921   NORMALIZED FREE ENERGY PREDICTED BY IDOCK:   -3.93 KCAL/MOL
REMARK 922        TOTAL FREE ENERGY PREDICTED BY IDOCK:   -8.60 KCAL/MOL
REMARK 923 INTER-LIGAND FREE ENERGY PREDICTED BY IDOCK:   -7.76 KCAL/MOL
REMARK 924 INTRA-LIGAND FREE ENERGY PREDICTED BY IDOCK:   -0.84 KCAL/MOL
REMARK 927      BINDING AFFINITY PREDICTED BY RF-SCORE:    0.00 PKD
ROOT
HETATM    1  C   UNL     1     -10.376   6.662  72.294  1.00  0.00    -0.219 C  
HETATM    2  C   UNL     1     -10.172   7.457  71.042  1.00  0.00    -0.194 A  
HETATM    3  C   UNL     1      -9.448   7.155  69.880  1.00  0.00    -0.153 A  
HETATM    4  C   UNL     1     -12.238  10.888  69.807  1.00  0.00    -0.381 A  
HETATM    5  N   UNL     1      -9.669   8.234  68.993  1.00  0.00    -0.164 NA 
HETATM    6  O   UNL     1     -13.091  11.415  71.926  1.00  0.00    -0.492 OA 
HETATM    7  C   UNL     1     -10.669   9.056  69.508  1.00  0.00    -0.206 A  
HETATM    8  C   UNL     1     -12.319  10.603  71.150  1.00  0.00    -0.400 A  
HETATM    9  C   UNL     1     -10.843   8.700  70.842  1.00  0.00    -0.288 A  
HETATM   10  H   UNL     1     -13.538  12.172  71.564  1.00  0.00     0.000 HD 
HETATM   11  C   UNL     1     -11.451  10.095  68.971  1.00  0.00    -0.138 A  
HETATM   12  C   UNL     1     -11.666   9.496  71.678  1.00  0.00    -0.460 A  
ENDROOT
BRANCH   3  13
HETATM   13  C   UNL     1      -8.613   5.952  69.594  1.00  0.00    -0.121 A  
HETATM   14  C   UNL     1      -7.089   3.601  69.198  1.00  0.00    -0.046 A  
HETATM   15  H   UNL     1      -5.638   2.256  69.656  1.00  0.00     0.000 HD 
HETATM   16  C   UNL     1      -7.516   5.635  70.413  1.00  0.00    -0.080 A  
HETATM   17  C   UNL     1      -6.782   4.455  70.243  1.00  0.00    -0.033 A  
HETATM   18  O   UNL     1      -6.348   2.466  69.061  1.00  0.00    -0.028 OA 
HETATM   19  C   UNL     1      -8.901   5.058  68.548  1.00  0.00    -0.112 A  
HETATM   20  C   UNL     1      -8.126   3.907  68.328  1.00  0.00    -0.078 A  
ENDBRANCH   3  13
BRANCH   5  21
HETATM   21  C   UNL     1      -8.926   8.432  67.720  1.00  0.00    -0.136 C  
BRANCH  21  22
HETATM   22  C   UNL     1      -9.265   9.651  66.898  1.00  0.00    -0.172 A  
HETATM   23  C   UNL     1      -9.363  12.057  66.694  1.00  0.00    -0.221 A  
HETATM   24  C   UNL     1     -10.484  10.705  65.064  1.00  0.00    -0.278 A  
HETATM   25  C   UNL     1      -8.907  10.919  67.353  1.00  0.00    -0.133 A  
HETATM   26  C   UNL     1     -10.245  11.957  65.612  1.00  0.00    -0.245 A  
HETATM   27  C   UNL     1      -9.921   9.577  65.659  1.00  0.00    -0.269 A  
BRANCH  26  28
HETATM   28  O   UNL     1     -10.925  13.021  65.052  1.00  0.00    -0.284 OA 
BRANCH  28  29
HETATM   29  C   UNL     1     -11.953  13.518  65.914  1.00  0.00    -0.406 C  
BRANCH  29  30
HETATM   30  C   UNL     1     -11.778  14.973  66.372  1.00  0.00    -0.109 C  
BRANCH  30  31
HETATM   31  N   UNL     1     -11.262  15.028  67.774  1.00  0.00    -0.311 NA 
HETATM   32  C   UNL     1     -11.248  16.412  68.278  1.00  0.00    -0.300 C  
HETATM   33  C   UNL     1     -10.732  16.654  69.696  1.00  0.00    -0.286 C  
HETATM   34  C   UNL     1     -11.696  16.169  70.762  1.00  0.00    -0.333 C  
HETATM   35  C   UNL     1     -11.554  14.693  71.095  1.00  0.00    -0.275 C  
HETATM   36  C   UNL     1     -11.243  13.767  69.924  1.00  0.00    -0.056 C  
HETATM   37  C   UNL     1     -11.991  14.079  68.623  1.00  0.00    -0.354 C  
ENDBRANCH  30  31
ENDBRANCH  29  30
ENDBRANCH  28  29
ENDBRANCH  26  28
ENDBRANCH  21  22
ENDBRANCH   5  21
TORSDOF 7
ENDMDL
MODEL      164
REMARK 921   NORMALIZED FREE ENERGY PREDICTED BY IDOCK:   -3.90 KCAL/MOL
REMARK 922        TOTAL FREE ENERGY PREDICTED BY IDOCK:   -8.56 KCAL/MOL
REMARK 923 INTER-LIGAND FREE ENERGY PREDICTED BY IDOCK:   -7.34 KCAL/MOL
REMARK 924 INTRA-LIGAND FREE ENERGY PREDICTED BY IDOCK:   -1.23 KCAL/MOL
REMARK 927      BINDING AFFINITY PREDICTED BY RF-SCORE:    0.00 PKD
ROOT
HETATM    1  C   UNL     1     -12.129  11.733  68.371  1.00  0.00    -0.098 C  
HETATM    2  C   UNL     1     -10.990  11.456  67.440  1.00  0.00    -0.326 A  
HETATM    3  C   UNL     1      -9.842  10.670  67.614  1.00  0.00    -0.167 A  
HETATM    4  C   UNL     1     -10.768  12.266  63.334  1.00  0.00    -0.438 A  
HETATM    5  N   UNL     1      -9.154  10.708  66.379  1.00  0.00    -0.161 NA 
HETATM    6  O   UNL     1     -12.521  13.823  63.314  1.00  0.00    -1.065 OA 
HETATM    7  C   UNL     1      -9.964  11.311  65.419  1.00  0.00    -0.250 A  
HETATM    8  C   UNL     1     -11.721  12.979  64.025  1.00  0.00    -0.436 A  
HETATM    9  C   UNL     1     -11.000  11.943  66.099  1.00  0.00    -0.352 A  
HETATM   10  H   UNL     1     -12.412  13.943  62.378  1.00  0.00     0.000 HD 
HETATM   11  C   UNL     1      -9.914  11.398  64.016  1.00  0.00    -0.341 A  
HETATM   12  C   UNL     1     -11.880  12.803  65.394  1.00  0.00    -0.456 A  
ENDROOT
BRANCH   3  13
HETATM   13  C   UNL     1      -9.405   9.923  68.829  1.00  0.00    -0.157 A  
HETATM   14  C   UNL     1      -8.459   8.631  71.162  1.00  0.00    -0.171 A  
HETATM   15  H   UNL     1      -7.075   7.663  72.290  1.00  0.00     0.000 HD 
HETATM   16  C   UNL     1      -8.137   9.318  68.877  1.00  0.00    -0.103 A  
HETATM   17  C   UNL     1      -7.651   8.710  70.041  1.00  0.00    -0.068 A  
HETATM   18  O   UNL     1      -7.953   8.026  72.273  1.00  0.00    -0.105 OA 
HETATM   19  C   UNL     1     -10.194   9.831  69.988  1.00  0.00    -0.308 A  
HETATM   20  C   UNL     1      -9.741   9.161  71.137  1.00  0.00    -0.360 A  
ENDBRANCH   3  13
BRANCH   5  21
HETATM   21  C   UNL     1      -7.778  10.182  66.175  1.00  0.00    -0.113 C  
BRANCH  21  22
HETATM   22  C   UNL     1      -7.637   8.736  65.768  1.00  0.00    -0.086 A  
HETATM   23  C   UNL     1      -8.583   6.770  64.731  1.00  0.00     0.193 A  
HETATM   24  C   UNL     1      -6.572   6.553  66.014  1.00  0.00    -0.048 A  
HETATM   25  C   UNL     1      -8.612   8.140  64.969  1.00  0.00    -0.076 A  
HETATM   26  C   UNL     1      -7.628   5.952  65.343  1.00  0.00    -0.085 A  
HETATM   27  C   UNL     1      -6.542   7.941  66.142  1.00  0.00    -0.050 A  
BRANCH  26  28
HETATM   28  O   UNL     1      -7.665   4.571  65.353  1.00  0.00    -0.084 OA 
BRANCH  28  29
HETATM   29  C   UNL     1      -8.933   4.068  65.780  1.00  0.00    -0.131 C  
BRANCH  29  30
HETATM   30  C   UNL     1      -8.876   2.969  66.851  1.00  0.00    -0.145 C  
BRANCH  30  31
HETATM   31  N   UNL     1      -9.530   3.426  68.114  1.00  0.00    -0.178 NA 
HETATM   32  C   UNL     1      -8.870   2.841  69.294  1.00  0.00    -0.096 C  
HETATM   33  C   UNL     1      -9.423   3.192  70.674  1.00  0.00    -0.233 C  
HETATM   34  C   UNL     1      -9.115   4.619  71.085  1.00  0.00    -0.180 C  
HETATM   35  C   UNL     1     -10.114   5.639  70.561  1.00  0.00    -0.280 C  
HETATM   36  C   UNL     1     -10.656   5.390  69.158  1.00  0.00    -0.241 C  
HETATM   37  C   UNL     1      -9.629   4.890  68.136  1.00  0.00    -0.143 C  
ENDBRANCH  30  31
ENDBRANCH  29  30
ENDBRANCH  28  29
ENDBRANCH  26  28
ENDBRANCH  21  22
ENDBRANCH   5  21
TORSDOF 7
ENDMDL
MODEL      165
REMARK 921   NORMALIZED FREE ENERGY PREDICTED BY IDOCK:   -3.86 KCAL/MOL
REMARK 922        TOTAL FREE ENERGY PREDICTED BY IDOCK:   -8.50 KCAL/MOL
REMARK 923 INTER-LIGAND FREE ENERGY PREDICTED BY IDOCK:   -5.90 KCAL/MOL
REMARK 924 INTRA-LIGAND FREE ENERGY PREDICTED BY IDOCK:   -2.60 KCAL/MOL
REMARK 927      BINDING AFFINITY PREDICTED BY RF-SCORE:    0.00 PKD
ROOT
HETATM    1  C   UNL     1      -9.062   7.594  65.437  1.00  0.00     0.215 C  
HETATM    2  C   UNL     1      -8.476   8.198  66.674  1.00  0.00    -0.129 A  
HETATM    3  C   UNL     1      -8.719   9.436  67.287  1.00  0.00    -0.128 A  
HETATM    4  C   UNL     1      -6.192   6.299  69.631  1.00  0.00    -0.033 A  
HETATM    5  N   UNL     1      -7.946   9.443  68.471  1.00  0.00    -0.093 NA 
HETATM    6  O   UNL     1      -5.615   4.445  68.318  1.00  0.00    -0.015 OA 
HETATM    7  C   UNL     1      -7.425   8.170  68.687  1.00  0.00    -0.098 A  
HETATM    8  C   UNL     1      -6.249   5.647  68.421  1.00  0.00    -0.030 A  
HETATM    9  C   UNL     1      -7.579   7.458  67.501  1.00  0.00    -0.106 A  
HETATM   10  H   UNL     1      -5.124   4.076  69.043  1.00  0.00     0.000 HD 
HETATM   11  C   UNL     1      -6.812   7.540  69.787  1.00  0.00    -0.047 A  
HETATM   12  C   UNL     1      -6.968   6.187  67.361  1.00  0.00    -0.069 A  
ENDROOT
BRANCH   3  13
HETATM   13  C   UNL     1      -9.609  10.541  66.823  1.00  0.00    -0.205 A  
HETATM   14  C   UNL     1     -11.351  12.532  65.819  1.00  0.00    -0.336 A  
HETATM   15  H   UNL     1     -12.023  13.850  64.428  1.00  0.00     0.000 HD 
HETATM   16  C   UNL     1      -9.379  11.171  65.588  1.00  0.00    -0.243 A  
HETATM   17  C   UNL     1     -10.258  12.129  65.071  1.00  0.00    -0.312 A  
HETATM   18  O   UNL     1     -12.180  13.471  65.285  1.00  0.00    -0.390 OA 
HETATM   19  C   UNL     1     -10.732  10.968  67.552  1.00  0.00    -0.289 A  
HETATM   20  C   UNL     1     -11.581  11.979  67.072  1.00  0.00    -0.387 A  
ENDBRANCH   3  13
BRANCH   5  21
HETATM   21  C   UNL     1      -7.738  10.643  69.323  1.00  0.00    -0.142 C  
BRANCH  21  22
HETATM   22  C   UNL     1      -7.199  11.886  68.658  1.00  0.00    -0.109 A  
HETATM   23  C   UNL     1      -5.410  12.996  67.473  1.00  0.00    -0.028 A  
HETATM   24  C   UNL     1      -7.216  14.307  68.345  1.00  0.00    -0.113 A  
HETATM   25  C   UNL     1      -6.003  11.829  67.943  1.00  0.00    -0.050 A  
HETATM   26  C   UNL     1      -5.955  14.251  67.767  1.00  0.00    -0.098 A  
HETATM   27  C   UNL     1      -7.860  13.124  68.702  1.00  0.00    -0.056 A  
BRANCH  26  28
HETATM   28  O   UNL     1      -5.318  15.456  67.547  1.00  0.00    -0.300 OA 
BRANCH  28  29
HETATM   29  C   UNL     1      -6.051  16.561  68.083  1.00  0.00    -0.122 C  
BRANCH  29  30
HETATM   30  C   UNL     1      -6.547  17.583  67.050  1.00  0.00    -0.173 C  
BRANCH  30  31
HETATM   31  N   UNL     1      -8.040  17.624  67.020  1.00  0.00    -0.214 NA 
HETATM   32  C   UNL     1      -8.584  16.530  66.197  1.00  0.00    -0.299 C  
HETATM   33  C   UNL     1     -10.101  16.431  66.046  1.00  0.00    -0.373 C  
HETATM   34  C   UNL     1     -10.788  15.954  67.311  1.00  0.00    -0.279 C  
HETATM   35  C   UNL     1     -11.084  17.065  68.306  1.00  0.00    -0.172 C  
HETATM   36  C   UNL     1     -10.031  18.161  68.422  1.00  0.00    -0.392 C  
HETATM   37  C   UNL     1      -8.576  17.681  68.386  1.00  0.00    -0.284 C  
ENDBRANCH  30  31
ENDBRANCH  29  30
ENDBRANCH  28  29
ENDBRANCH  26  28
ENDBRANCH  21  22
ENDBRANCH   5  21
TORSDOF 7
ENDMDL
MODEL      166
REMARK 921   NORMALIZED FREE ENERGY PREDICTED BY IDOCK:   -3.84 KCAL/MOL
REMARK 922        TOTAL FREE ENERGY PREDICTED BY IDOCK:   -8.48 KCAL/MOL
REMARK 923 INTER-LIGAND FREE ENERGY PREDICTED BY IDOCK:   -7.04 KCAL/MOL
REMARK 924 INTRA-LIGAND FREE ENERGY PREDICTED BY IDOCK:   -1.44 KCAL/MOL
REMARK 927      BINDING AFFINITY PREDICTED BY RF-SCORE:    0.00 PKD
ROOT
HETATM    1  C   UNL     1     -10.625   5.416  68.357  1.00  0.00    -0.148 C  
HETATM    2  C   UNL     1     -10.285   6.741  68.964  1.00  0.00    -0.191 A  
HETATM    3  C   UNL     1      -9.279   7.662  68.637  1.00  0.00    -0.141 A  
HETATM    4  C   UNL     1     -12.579   9.009  71.640  1.00  0.00    -0.414 A  
HETATM    5  N   UNL     1      -9.477   8.774  69.488  1.00  0.00    -0.164 NA 
HETATM    6  O   UNL     1     -13.962   7.239  72.312  1.00  0.00    -0.538 OA 
HETATM    7  C   UNL     1     -10.692   8.632  70.154  1.00  0.00    -0.234 A  
HETATM    8  C   UNL     1     -12.908   7.675  71.565  1.00  0.00    -0.344 A  
HETATM    9  C   UNL     1     -11.096   7.311  69.990  1.00  0.00    -0.262 A  
HETATM   10  H   UNL     1     -14.439   7.823  72.890  1.00  0.00     0.000 HD 
HETATM   11  C   UNL     1     -11.501   9.505  70.907  1.00  0.00    -0.405 A  
HETATM   12  C   UNL     1     -12.210   6.822  70.719  1.00  0.00    -0.353 A  
ENDROOT
BRANCH   3  13
HETATM   13  C   UNL     1      -8.207   7.537  67.606  1.00  0.00    -0.118 A  
HETATM   14  C   UNL     1      -6.150   7.470  65.664  1.00  0.00    -0.038 A  
HETATM   15  H   UNL     1      -5.302   7.916  63.874  1.00  0.00     0.000 HD 
HETATM   16  C   UNL     1      -8.374   8.106  66.332  1.00  0.00    -0.115 A  
HETATM   17  C   UNL     1      -7.346   8.107  65.381  1.00  0.00    -0.069 A  
HETATM   18  O   UNL     1      -5.177   7.486  64.712  1.00  0.00    -0.028 OA 
HETATM   19  C   UNL     1      -6.978   6.906  67.861  1.00  0.00    -0.083 A  
HETATM   20  C   UNL     1      -5.967   6.842  66.888  1.00  0.00    -0.018 A  
ENDBRANCH   3  13
BRANCH   5  21
HETATM   21  C   UNL     1      -8.513   9.897  69.631  1.00  0.00    -0.187 C  
BRANCH  21  22
HETATM   22  C   UNL     1      -8.793  11.159  68.852  1.00  0.00    -0.086 A  
HETATM   23  C   UNL     1     -10.312  12.946  68.270  1.00  0.00    -0.248 A  
HETATM   24  C   UNL     1      -8.317  12.649  66.978  1.00  0.00    -0.130 A  
HETATM   25  C   UNL     1      -9.960  11.882  69.095  1.00  0.00     0.196 A  
HETATM   26  C   UNL     1      -9.550  13.264  67.141  1.00  0.00    -0.240 A  
HETATM   27  C   UNL     1      -7.914  11.669  67.883  1.00  0.00    -0.132 A  
BRANCH  26  28
HETATM   28  O   UNL     1      -9.945  14.139  66.147  1.00  0.00    -0.292 OA 
BRANCH  28  29
HETATM   29  C   UNL     1     -10.805  15.167  66.643  1.00  0.00    -0.318 C  
BRANCH  29  30
HETATM   30  C   UNL     1     -10.229  16.007  67.792  1.00  0.00    -0.260 C  
BRANCH  30  31
HETATM   31  N   UNL     1      -9.148  16.913  67.294  1.00  0.00    -0.216 NA 
HETATM   32  C   UNL     1      -9.453  18.320  67.606  1.00  0.00    -0.272 C  
HETATM   33  C   UNL     1      -8.457  19.387  67.153  1.00  0.00    -0.317 C  
HETATM   34  C   UNL     1      -7.178  19.379  67.968  1.00  0.00    -0.308 C  
HETATM   35  C   UNL     1      -6.142  18.380  67.478  1.00  0.00    -0.176 C  
HETATM   36  C   UNL     1      -6.681  17.050  66.964  1.00  0.00    -0.238 C  
HETATM   37  C   UNL     1      -7.839  16.454  67.772  1.00  0.00    -0.152 C  
ENDBRANCH  30  31
ENDBRANCH  29  30
ENDBRANCH  28  29
ENDBRANCH  26  28
ENDBRANCH  21  22
ENDBRANCH   5  21
TORSDOF 7
ENDMDL
MODEL      167
REMARK 921   NORMALIZED FREE ENERGY PREDICTED BY IDOCK:   -3.84 KCAL/MOL
REMARK 922        TOTAL FREE ENERGY PREDICTED BY IDOCK:   -8.48 KCAL/MOL
REMARK 923 INTER-LIGAND FREE ENERGY PREDICTED BY IDOCK:   -6.28 KCAL/MOL
REMARK 924 INTRA-LIGAND FREE ENERGY PREDICTED BY IDOCK:   -2.19 KCAL/MOL
REMARK 927      BINDING AFFINITY PREDICTED BY RF-SCORE:    0.00 PKD
ROOT
HETATM    1  C   UNL     1     -10.407  16.621  65.712  1.00  0.00    -0.338 C  
HETATM    2  C   UNL     1      -9.166  16.279  66.475  1.00  0.00    -0.299 A  
HETATM    3  C   UNL     1      -8.852  15.150  67.246  1.00  0.00    -0.200 A  
HETATM    4  C   UNL     1      -5.418  18.143  66.262  1.00  0.00    -0.203 A  
HETATM    5  N   UNL     1      -7.514  15.325  67.666  1.00  0.00    -0.158 NA 
HETATM    6  O   UNL     1      -6.200  20.114  65.265  1.00  0.00    -0.213 OA 
HETATM    7  C   UNL     1      -6.958  16.411  66.994  1.00  0.00    -0.219 A  
HETATM    8  C   UNL     1      -6.475  18.888  65.793  1.00  0.00    -0.243 A  
HETATM    9  C   UNL     1      -8.011  17.114  66.416  1.00  0.00    -0.346 A  
HETATM   10  H   UNL     1      -5.317  20.463  65.245  1.00  0.00     0.000 HD 
HETATM   11  C   UNL     1      -5.645  16.886  66.825  1.00  0.00    -0.165 A  
HETATM   12  C   UNL     1      -7.767  18.379  65.822  1.00  0.00    -0.011 A  
ENDROOT
BRANCH   3  13
HETATM   13  C   UNL     1      -9.720  13.980  67.571  1.00  0.00    -0.232 A  
HETATM   14  C   UNL     1     -11.501  11.865  68.173  1.00  0.00    -0.320 A  
HETATM   15  H   UNL     1     -12.891  10.901  69.296  1.00  0.00     0.000 HD 
HETATM   16  C   UNL     1     -10.434  13.936  68.780  1.00  0.00    -0.229 A  
HETATM   17  C   UNL     1     -11.344  12.911  69.066  1.00  0.00    -0.341 A  
HETATM   18  O   UNL     1     -12.390  10.883  68.489  1.00  0.00    -0.490 OA 
HETATM   19  C   UNL     1      -9.910  12.906  66.685  1.00  0.00    -0.250 A  
HETATM   20  C   UNL     1     -10.768  11.838  66.995  1.00  0.00    -0.286 A  
ENDBRANCH   3  13
BRANCH   5  21
HETATM   21  C   UNL     1      -6.839  14.468  68.678  1.00  0.00    -0.093 C  
BRANCH  21  22
HETATM   22  C   UNL     1      -6.513  13.049  68.283  1.00  0.00    -0.093 A  
HETATM   23  C   UNL     1      -5.362  11.515  66.814  1.00  0.00    -0.127 A  
HETATM   24  C   UNL     1      -7.038  10.665  68.299  1.00  0.00    -0.081 A  
HETATM   25  C   UNL     1      -5.549  12.802  67.307  1.00  0.00     0.010 A  
HETATM   26  C   UNL     1      -6.182  10.459  67.227  1.00  0.00    -0.058 A  
HETATM   27  C   UNL     1      -7.129  11.932  68.872  1.00  0.00    -0.110 A  
BRANCH  26  28
HETATM   28  O   UNL     1      -6.225   9.216  66.626  1.00  0.00    -0.063 OA 
BRANCH  28  29
HETATM   29  C   UNL     1      -7.088   8.310  67.321  1.00  0.00    -0.079 C  
BRANCH  29  30
HETATM   30  C   UNL     1      -6.426   7.008  67.794  1.00  0.00    -0.051 C  
BRANCH  30  31
HETATM   31  N   UNL     1      -7.429   5.902  67.867  1.00  0.00    -0.080 NA 
HETATM   32  C   UNL     1      -8.799   6.435  67.971  1.00  0.00    -0.113 C  
HETATM   33  C   UNL     1      -9.952   5.438  68.071  1.00  0.00    -0.199 C  
HETATM   34  C   UNL     1     -10.223   4.720  66.763  1.00  0.00    -0.253 C  
HETATM   35  C   UNL     1      -9.348   3.497  66.539  1.00  0.00    -0.189 C  
HETATM   36  C   UNL     1      -7.905   3.606  67.020  1.00  0.00    -0.080 C  
HETATM   37  C   UNL     1      -7.227   4.956  66.763  1.00  0.00    -0.080 C  
ENDBRANCH  30  31
ENDBRANCH  29  30
ENDBRANCH  28  29
ENDBRANCH  26  28
ENDBRANCH  21  22
ENDBRANCH   5  21
TORSDOF 7
ENDMDL
MODEL      168
REMARK 921   NORMALIZED FREE ENERGY PREDICTED BY IDOCK:   -3.84 KCAL/MOL
REMARK 922        TOTAL FREE ENERGY PREDICTED BY IDOCK:   -8.47 KCAL/MOL
REMARK 923 INTER-LIGAND FREE ENERGY PREDICTED BY IDOCK:   -6.18 KCAL/MOL
REMARK 924 INTRA-LIGAND FREE ENERGY PREDICTED BY IDOCK:   -2.30 KCAL/MOL
REMARK 927      BINDING AFFINITY PREDICTED BY RF-SCORE:    0.00 PKD
ROOT
HETATM    1  C   UNL     1      -9.770   8.014  73.149  1.00  0.00    -0.341 C  
HETATM    2  C   UNL     1      -9.410   7.171  71.967  1.00  0.00    -0.151 A  
HETATM    3  C   UNL     1      -8.636   7.470  70.836  1.00  0.00    -0.130 A  
HETATM    4  C   UNL     1      -9.858   3.026  71.530  1.00  0.00    -0.192 A  
HETATM    5  N   UNL     1      -8.564   6.274  70.086  1.00  0.00    -0.133 NA 
HETATM    6  O   UNL     1     -11.414   2.782  73.267  1.00  0.00    -0.126 OA 
HETATM    7  C   UNL     1      -9.085   5.225  70.840  1.00  0.00    -0.138 A  
HETATM    8  C   UNL     1     -10.632   3.603  72.511  1.00  0.00    -0.011 A  
HETATM    9  C   UNL     1      -9.778   5.794  71.905  1.00  0.00    -0.184 A  
HETATM   10  H   UNL     1     -11.452   1.845  73.109  1.00  0.00     0.000 HD 
HETATM   11  C   UNL     1      -9.050   3.824  70.719  1.00  0.00    -0.179 A  
HETATM   12  C   UNL     1     -10.576   4.972  72.741  1.00  0.00    -0.274 A  
ENDROOT
BRANCH   3  13
HETATM   13  C   UNL     1      -7.997   8.767  70.467  1.00  0.00    -0.117 A  
HETATM   14  C   UNL     1      -6.705  11.145  69.638  1.00  0.00    -0.134 A  
HETATM   15  H   UNL     1      -5.096  12.336  69.299  1.00  0.00     0.000 HD 
HETATM   16  C   UNL     1      -6.611   8.946  70.615  1.00  0.00    -0.050 A  
HETATM   17  C   UNL     1      -5.963  10.106  70.173  1.00  0.00    -0.066 A  
HETATM   18  O   UNL     1      -6.040  12.259  69.226  1.00  0.00    -0.079 OA 
HETATM   19  C   UNL     1      -8.718   9.839  69.913  1.00  0.00    -0.238 A  
HETATM   20  C   UNL     1      -8.085  11.033  69.531  1.00  0.00     0.179 A  
ENDBRANCH   3  13
BRANCH   5  21
HETATM   21  C   UNL     1      -8.018   6.187  68.705  1.00  0.00    -0.101 C  
BRANCH  21  22
HETATM   22  C   UNL     1      -8.451   7.241  67.717  1.00  0.00    -0.121 A  
HETATM   23  C   UNL     1     -10.224   8.343  66.499  1.00  0.00    -0.277 A  
HETATM   24  C   UNL     1      -7.950   8.756  65.868  1.00  0.00    -0.104 A  
HETATM   25  C   UNL     1      -9.807   7.500  67.526  1.00  0.00    -0.209 A  
HETATM   26  C   UNL     1      -9.304   8.887  65.596  1.00  0.00    -0.191 A  
HETATM   27  C   UNL     1      -7.541   8.011  66.973  1.00  0.00    -0.096 A  
BRANCH  26  28
HETATM   28  O   UNL     1      -9.643   9.534  64.424  1.00  0.00    -0.104 OA 
BRANCH  28  29
HETATM   29  C   UNL     1     -10.495  10.659  64.654  1.00  0.00    -0.205 C  
BRANCH  29  30
HETATM   30  C   UNL     1      -9.901  12.021  64.271  1.00  0.00    -0.169 C  
BRANCH  30  31
HETATM   31  N   UNL     1     -10.248  13.056  65.292  1.00  0.00    -0.293 NA 
HETATM   32  C   UNL     1     -11.703  13.116  65.511  1.00  0.00    -0.357 C  
HETATM   33  C   UNL     1     -12.237  14.135  66.517  1.00  0.00    -0.463 C  
HETATM   34  C   UNL     1     -11.935  13.755  67.953  1.00  0.00    -0.391 C  
HETATM   35  C   UNL     1     -10.559  14.191  68.429  1.00  0.00    -0.263 C  
HETATM   36  C   UNL     1      -9.433  14.100  67.404  1.00  0.00    -0.220 C  
HETATM   37  C   UNL     1      -9.457  12.854  66.512  1.00  0.00    -0.251 C  
ENDBRANCH  30  31
ENDBRANCH  29  30
ENDBRANCH  28  29
ENDBRANCH  26  28
ENDBRANCH  21  22
ENDBRANCH   5  21
TORSDOF 7
ENDMDL
MODEL      169
REMARK 921   NORMALIZED FREE ENERGY PREDICTED BY IDOCK:   -3.83 KCAL/MOL
REMARK 922        TOTAL FREE ENERGY PREDICTED BY IDOCK:   -8.46 KCAL/MOL
REMARK 923 INTER-LIGAND FREE ENERGY PREDICTED BY IDOCK:   -6.86 KCAL/MOL
REMARK 924 INTRA-LIGAND FREE ENERGY PREDICTED BY IDOCK:   -1.60 KCAL/MOL
REMARK 927      BINDING AFFINITY PREDICTED BY RF-SCORE:    0.00 PKD
ROOT
HETATM    1  C   UNL     1      -8.789   9.023  69.465  1.00  0.00    -0.146 C  
HETATM    2  C   UNL     1      -9.938   9.910  69.826  1.00  0.00    -0.275 A  
HETATM    3  C   UNL     1     -10.183  11.256  69.515  1.00  0.00     0.159 A  
HETATM    4  C   UNL     1     -13.644   8.794  71.434  1.00  0.00    -0.292 A  
HETATM    5  N   UNL     1     -11.459  11.552  70.048  1.00  0.00    -0.261 NA 
HETATM    6  O   UNL     1     -12.942   6.687  72.184  1.00  0.00    -0.551 OA 
HETATM    7  C   UNL     1     -12.066  10.373  70.472  1.00  0.00    -0.332 A  
HETATM    8  C   UNL     1     -12.634   7.872  71.586  1.00  0.00    -0.321 A  
HETATM    9  C   UNL     1     -11.074   9.398  70.521  1.00  0.00    -0.330 A  
HETATM   10  H   UNL     1     -13.814   6.506  72.515  1.00  0.00     0.000 HD 
HETATM   11  C   UNL     1     -13.380  10.029  70.841  1.00  0.00    -0.281 A  
HETATM   12  C   UNL     1     -11.359   8.136  71.102  1.00  0.00    -0.299 A  
ENDROOT
BRANCH   3  13
HETATM   13  C   UNL     1      -9.309  12.209  68.770  1.00  0.00     0.072 A  
HETATM   14  C   UNL     1      -7.517  13.948  67.440  1.00  0.00    -0.128 A  
HETATM   15  H   UNL     1      -6.154  15.450  67.338  1.00  0.00     0.000 HD 
HETATM   16  C   UNL     1      -8.641  13.242  69.449  1.00  0.00     1.068 A  
HETATM   17  C   UNL     1      -7.726  14.081  68.802  1.00  0.00    -0.112 A  
HETATM   18  O   UNL     1      -6.624  14.787  66.845  1.00  0.00     0.030 OA 
HETATM   19  C   UNL     1      -9.067  12.098  67.391  1.00  0.00    -0.181 A  
HETATM   20  C   UNL     1      -8.203  12.980  66.721  1.00  0.00     0.108 A  
ENDBRANCH   3  13
BRANCH   5  21
HETATM   21  C   UNL     1     -12.029  12.923  70.132  1.00  0.00    -0.301 C  
BRANCH  21  22
HETATM   22  C   UNL     1     -11.910  13.804  68.913  1.00  0.00    -0.396 A  
HETATM   23  C   UNL     1     -11.937  14.035  66.508  1.00  0.00    -0.470 A  
HETATM   24  C   UNL     1     -11.137  15.858  67.842  1.00  0.00    -0.317 A  
HETATM   25  C   UNL     1     -12.206  13.289  67.652  1.00  0.00    -0.181 A  
HETATM   26  C   UNL     1     -11.298  15.277  66.592  1.00  0.00    -0.170 A  
HETATM   27  C   UNL     1     -11.526  15.153  68.980  1.00  0.00    -0.325 A  
BRANCH  26  28
HETATM   28  O   UNL     1     -10.786  15.972  65.513  1.00  0.00    -0.367 OA 
BRANCH  28  29
HETATM   29  C   UNL     1     -10.279  17.255  65.889  1.00  0.00    -0.261 C  
BRANCH  29  30
HETATM   30  C   UNL     1      -8.748  17.364  65.947  1.00  0.00     0.074 C  
BRANCH  30  31
HETATM   31  N   UNL     1      -8.333  18.568  66.729  1.00  0.00    -0.261 NA 
HETATM   32  C   UNL     1      -7.944  18.200  68.101  1.00  0.00    -0.283 C  
HETATM   33  C   UNL     1      -7.504  19.317  69.046  1.00  0.00    -0.372 C  
HETATM   34  C   UNL     1      -6.136  19.874  68.701  1.00  0.00    -0.300 C  
HETATM   35  C   UNL     1      -6.164  20.956  67.634  1.00  0.00    -0.379 C  
HETATM   36  C   UNL     1      -7.173  20.764  66.507  1.00  0.00    -0.200 C  
HETATM   37  C   UNL     1      -7.316  19.328  65.992  1.00  0.00    -0.279 C  
ENDBRANCH  30  31
ENDBRANCH  29  30
ENDBRANCH  28  29
ENDBRANCH  26  28
ENDBRANCH  21  22
ENDBRANCH   5  21
TORSDOF 7
ENDMDL
MODEL      170
REMARK 921   NORMALIZED FREE ENERGY PREDICTED BY IDOCK:   -3.82 KCAL/MOL
REMARK 922        TOTAL FREE ENERGY PREDICTED BY IDOCK:   -8.45 KCAL/MOL
REMARK 923 INTER-LIGAND FREE ENERGY PREDICTED BY IDOCK:   -6.51 KCAL/MOL
REMARK 924 INTRA-LIGAND FREE ENERGY PREDICTED BY IDOCK:   -1.94 KCAL/MOL
REMARK 927      BINDING AFFINITY PREDICTED BY RF-SCORE:    0.00 PKD
ROOT
HETATM    1  C   UNL     1      -5.683  10.887  65.437  1.00  0.00    -0.047 C  
HETATM    2  C   UNL     1      -6.144  10.697  66.848  1.00  0.00    -0.065 A  
HETATM    3  C   UNL     1      -6.596   9.547  67.512  1.00  0.00    -0.063 A  
HETATM    4  C   UNL     1      -5.723  13.345  70.070  1.00  0.00    -0.124 A  
HETATM    5  N   UNL     1      -6.820   9.935  68.853  1.00  0.00    -0.057 NA 
HETATM    6  O   UNL     1      -5.308  15.240  68.754  1.00  0.00    -0.091 OA 
HETATM    7  C   UNL     1      -6.312  11.217  69.053  1.00  0.00    -0.060 A  
HETATM    8  C   UNL     1      -5.601  13.911  68.822  1.00  0.00    -0.081 A  
HETATM    9  C   UNL     1      -6.076  11.763  67.794  1.00  0.00    -0.061 A  
HETATM   10  H   UNL     1      -5.219  15.772  69.537  1.00  0.00     0.000 HD 
HETATM   11  C   UNL     1      -6.036  11.991  70.195  1.00  0.00    -0.159 A  
HETATM   12  C   UNL     1      -5.732  13.133  67.678  1.00  0.00    -0.103 A  
ENDROOT
BRANCH   3  13
HETATM   13  C   UNL     1      -6.802   8.178  66.957  1.00  0.00    -0.070 A  
HETATM   14  C   UNL     1      -7.202   5.522  66.067  1.00  0.00    -0.076 A  
HETATM   15  H   UNL     1      -6.700   3.567  65.842  1.00  0.00     0.000 HD 
HETATM   16  C   UNL     1      -5.818   7.187  67.119  1.00  0.00    -0.029 A  
HETATM   17  C   UNL     1      -6.027   5.864  66.713  1.00  0.00    -0.018 A  
HETATM   18  O   UNL     1      -7.366   4.226  65.681  1.00  0.00    -0.074 OA 
HETATM   19  C   UNL     1      -7.985   7.793  66.304  1.00  0.00    -0.100 A  
HETATM   20  C   UNL     1      -8.174   6.484  65.831  1.00  0.00    -0.131 A  
ENDBRANCH   3  13
BRANCH   5  21
HETATM   21  C   UNL     1      -7.503   9.085  69.864  1.00  0.00    -0.065 C  
BRANCH  21  22
HETATM   22  C   UNL     1      -8.990   9.270  70.041  1.00  0.00    -0.216 A  
HETATM   23  C   UNL     1     -11.084  10.153  69.220  1.00  0.00    -0.270 A  
HETATM   24  C   UNL     1     -10.968   9.338  71.470  1.00  0.00    -0.446 A  
HETATM   25  C   UNL     1      -9.750   9.818  69.009  1.00  0.00    -0.177 A  
HETATM   26  C   UNL     1     -11.669  10.018  70.484  1.00  0.00    -0.318 A  
HETATM   27  C   UNL     1      -9.672   8.895  71.209  1.00  0.00    -0.359 A  
BRANCH  26  28
HETATM   28  O   UNL     1     -12.898  10.536  70.840  1.00  0.00    -0.363 OA 
BRANCH  28  29
HETATM   29  C   UNL     1     -12.801  11.454  71.933  1.00  0.00    -0.275 C  
BRANCH  29  30
HETATM   30  C   UNL     1     -14.003  12.392  72.110  1.00  0.00     0.166 C  
BRANCH  30  31
HETATM   31  N   UNL     1     -13.619  13.806  71.816  1.00  0.00    -0.372 NA 
HETATM   32  C   UNL     1     -13.236  14.518  73.047  1.00  0.00    -0.472 C  
HETATM   33  C   UNL     1     -12.827  15.986  72.931  1.00  0.00    -0.552 C  
HETATM   34  C   UNL     1     -11.468  16.167  72.285  1.00  0.00    -0.245 C  
HETATM   35  C   UNL     1     -11.506  16.185  70.765  1.00  0.00    -0.408 C  
HETATM   36  C   UNL     1     -12.500  15.235  70.106  1.00  0.00    -0.374 C  
HETATM   37  C   UNL     1     -12.610  13.849  70.751  1.00  0.00    -0.354 C  
ENDBRANCH  30  31
ENDBRANCH  29  30
ENDBRANCH  28  29
ENDBRANCH  26  28
ENDBRANCH  21  22
ENDBRANCH   5  21
TORSDOF 7
ENDMDL
MODEL      171
REMARK 921   NORMALIZED FREE ENERGY PREDICTED BY IDOCK:   -3.78 KCAL/MOL
REMARK 922        TOTAL FREE ENERGY PREDICTED BY IDOCK:   -8.40 KCAL/MOL
REMARK 923 INTER-LIGAND FREE ENERGY PREDICTED BY IDOCK:   -6.84 KCAL/MOL
REMARK 924 INTRA-LIGAND FREE ENERGY PREDICTED BY IDOCK:   -1.55 KCAL/MOL
REMARK 927      BINDING AFFINITY PREDICTED BY RF-SCORE:    0.00 PKD
ROOT
HETATM    1  C   UNL     1      -9.613  19.315  69.671  1.00  0.00     0.150 C  
HETATM    2  C   UNL     1      -9.011  18.370  68.679  1.00  0.00    -0.308 A  
HETATM    3  C   UNL     1      -9.318  17.032  68.392  1.00  0.00    -0.266 A  
HETATM    4  C   UNL     1      -6.430  19.276  65.503  1.00  0.00    -0.297 A  
HETATM    5  N   UNL     1      -8.486  16.665  67.310  1.00  0.00    -0.189 NA 
HETATM    6  O   UNL     1      -5.781  21.372  66.328  1.00  0.00    -0.259 OA 
HETATM    7  C   UNL     1      -7.855  17.801  66.808  1.00  0.00    -0.233 A  
HETATM    8  C   UNL     1      -6.500  20.226  66.495  1.00  0.00    -0.213 A  
HETATM    9  C   UNL     1      -8.016  18.808  67.755  1.00  0.00    -0.275 A  
HETATM   10  H   UNL     1      -5.224  21.505  65.569  1.00  0.00     0.000 HD 
HETATM   11  C   UNL     1      -7.137  18.079  65.630  1.00  0.00    -0.135 A  
HETATM   12  C   UNL     1      -7.315  20.032  67.603  1.00  0.00    -0.323 A  
ENDROOT
BRANCH   3  13
HETATM   13  C   UNL     1     -10.315  16.146  69.061  1.00  0.00    -0.258 A  
HETATM   14  C   UNL     1     -12.125  14.331  70.261  1.00  0.00    -0.335 A  
HETATM   15  H   UNL     1     -13.583  12.918  70.250  1.00  0.00     0.000 HD 
HETATM   16  C   UNL     1     -11.248  15.420  68.301  1.00  0.00    -0.325 A  
HETATM   17  C   UNL     1     -12.120  14.495  68.886  1.00  0.00    -0.272 A  
HETATM   18  O   UNL     1     -12.992  13.426  70.794  1.00  0.00    -0.188 OA 
HETATM   19  C   UNL     1     -10.343  15.949  70.453  1.00  0.00     0.018 A  
HETATM   20  C   UNL     1     -11.262  15.074  71.055  1.00  0.00    -0.268 A  
ENDBRANCH   3  13
BRANCH   5  21
HETATM   21  C   UNL     1      -8.327  15.271  66.815  1.00  0.00    -0.223 C  
BRANCH  21  22
HETATM   22  C   UNL     1      -7.649  14.280  67.730  1.00  0.00    -0.175 A  
HETATM   23  C   UNL     1      -7.517  12.044  68.635  1.00  0.00    -0.113 A  
HETATM   24  C   UNL     1      -6.240  13.791  69.662  1.00  0.00    -0.121 A  
HETATM   25  C   UNL     1      -8.008  12.934  67.684  1.00  0.00    -0.167 A  
HETATM   26  C   UNL     1      -6.720  12.489  69.694  1.00  0.00     0.079 A  
HETATM   27  C   UNL     1      -6.638  14.643  68.634  1.00  0.00    -0.085 A  
BRANCH  26  28
HETATM   28  O   UNL     1      -6.387  11.731  70.800  1.00  0.00    -0.186 OA 
BRANCH  28  29
HETATM   29  C   UNL     1      -5.616  10.577  70.451  1.00  0.00    -0.078 C  
BRANCH  29  30
HETATM   30  C   UNL     1      -6.010   9.282  71.176  1.00  0.00    -0.068 C  
BRANCH  30  31
HETATM   31  N   UNL     1      -7.464   9.290  71.520  1.00  0.00    -0.338 NA 
HETATM   32  C   UNL     1      -8.296   9.315  70.304  1.00  0.00    -0.186 C  
HETATM   33  C   UNL     1      -9.814   9.341  70.474  1.00  0.00    -0.310 C  
HETATM   34  C   UNL     1     -10.375   8.015  70.950  1.00  0.00    -0.221 C  
HETATM   35  C   UNL     1     -10.334   7.836  72.459  1.00  0.00    -0.328 C  
HETATM   36  C   UNL     1      -9.109   8.402  73.170  1.00  0.00    -0.225 C  
HETATM   37  C   UNL     1      -7.775   8.194  72.446  1.00  0.00    -0.122 C  
ENDBRANCH  30  31
ENDBRANCH  29  30
ENDBRANCH  28  29
ENDBRANCH  26  28
ENDBRANCH  21  22
ENDBRANCH   5  21
TORSDOF 7
ENDMDL
MODEL      172
REMARK 921   NORMALIZED FREE ENERGY PREDICTED BY IDOCK:   -3.76 KCAL/MOL
REMARK 922        TOTAL FREE ENERGY PREDICTED BY IDOCK:   -8.36 KCAL/MOL
REMARK 923 INTER-LIGAND FREE ENERGY PREDICTED BY IDOCK:   -6.70 KCAL/MOL
REMARK 924 INTRA-LIGAND FREE ENERGY PREDICTED BY IDOCK:   -1.66 KCAL/MOL
REMARK 927      BINDING AFFINITY PREDICTED BY RF-SCORE:    0.00 PKD
ROOT
HETATM    1  C   UNL     1     -11.085   6.461  67.282  1.00  0.00    -0.416 C  
HETATM    2  C   UNL     1     -10.041   7.200  68.060  1.00  0.00    -0.201 A  
HETATM    3  C   UNL     1      -8.862   7.828  67.633  1.00  0.00    -0.128 A  
HETATM    4  C   UNL     1     -10.263   8.560  72.018  1.00  0.00    -0.391 A  
HETATM    5  N   UNL     1      -8.306   8.434  68.784  1.00  0.00    -0.116 NA 
HETATM    6  O   UNL     1     -12.047   7.170  72.637  1.00  0.00    -0.506 OA 
HETATM    7  C   UNL     1      -9.225   8.367  69.829  1.00  0.00    -0.157 A  
HETATM    8  C   UNL     1     -11.157   7.569  71.684  1.00  0.00    -0.239 A  
HETATM    9  C   UNL     1     -10.201   7.449  69.455  1.00  0.00    -0.204 A  
HETATM   10  H   UNL     1     -12.038   7.538  73.513  1.00  0.00     0.000 HD 
HETATM   11  C   UNL     1      -9.322   8.995  71.084  1.00  0.00    -0.336 A  
HETATM   12  C   UNL     1     -11.170   7.032  70.403  1.00  0.00    -0.339 A  
ENDROOT
BRANCH   3  13
HETATM   13  C   UNL     1      -8.284   7.879  66.259  1.00  0.00    -0.117 A  
HETATM   14  C   UNL     1      -7.280   7.836  63.613  1.00  0.00    -0.082 A  
HETATM   15  H   UNL     1      -6.238   7.046  62.059  1.00  0.00     0.000 HD 
HETATM   16  C   UNL     1      -7.404   6.876  65.818  1.00  0.00    -0.079 A  
HETATM   17  C   UNL     1      -6.934   6.830  64.500  1.00  0.00    -0.058 A  
HETATM   18  O   UNL     1      -6.798   7.760  62.342  1.00  0.00    -0.079 OA 
HETATM   19  C   UNL     1      -8.620   8.879  65.330  1.00  0.00    -0.200 A  
HETATM   20  C   UNL     1      -8.097   8.879  64.026  1.00  0.00    -0.161 A  
ENDBRANCH   3  13
BRANCH   5  21
HETATM   21  C   UNL     1      -6.945   9.031  68.836  1.00  0.00    -0.065 C  
BRANCH  21  22
HETATM   22  C   UNL     1      -6.846  10.537  68.861  1.00  0.00    -0.063 A  
HETATM   23  C   UNL     1      -6.892  12.641  67.674  1.00  0.00    -0.144 A  
HETATM   24  C   UNL     1      -6.110  12.601  69.938  1.00  0.00    -0.125 A  
HETATM   25  C   UNL     1      -7.143  11.273  67.715  1.00  0.00    -0.087 A  
HETATM   26  C   UNL     1      -6.270  13.292  68.746  1.00  0.00    -0.090 A  
HETATM   27  C   UNL     1      -6.481  11.259  70.009  1.00  0.00    -0.114 A  
BRANCH  26  28
HETATM   28  O   UNL     1      -5.774  14.580  68.702  1.00  0.00    -0.084 OA 
BRANCH  28  29
HETATM   29  C   UNL     1      -6.809  15.551  68.521  1.00  0.00    -0.114 C  
BRANCH  29  30
HETATM   30  C   UNL     1      -7.060  15.979  67.068  1.00  0.00    -0.198 C  
BRANCH  30  31
HETATM   31  N   UNL     1      -7.230  17.461  66.974  1.00  0.00    -0.169 NA 
HETATM   32  C   UNL     1      -7.664  18.026  68.264  1.00  0.00    -0.282 C  
HETATM   33  C   UNL     1      -7.901  19.533  68.343  1.00  0.00    -0.374 C  
HETATM   34  C   UNL     1      -6.613  20.333  68.312  1.00  0.00    -0.335 C  
HETATM   35  C   UNL     1      -6.095  20.612  66.911  1.00  0.00    -0.262 C  
HETATM   36  C   UNL     1      -6.278  19.494  65.891  1.00  0.00    -0.209 C  
HETATM   37  C   UNL     1      -6.020  18.077  66.417  1.00  0.00    -0.176 C  
ENDBRANCH  30  31
ENDBRANCH  29  30
ENDBRANCH  28  29
ENDBRANCH  26  28
ENDBRANCH  21  22
ENDBRANCH   5  21
TORSDOF 7
ENDMDL
MODEL      173
REMARK 921   NORMALIZED FREE ENERGY PREDICTED BY IDOCK:   -3.69 KCAL/MOL
REMARK 922        TOTAL FREE ENERGY PREDICTED BY IDOCK:   -8.26 KCAL/MOL
REMARK 923 INTER-LIGAND FREE ENERGY PREDICTED BY IDOCK:   -7.06 KCAL/MOL
REMARK 924 INTRA-LIGAND FREE ENERGY PREDICTED BY IDOCK:   -1.20 KCAL/MOL
REMARK 927      BINDING AFFINITY PREDICTED BY RF-SCORE:    0.00 PKD
ROOT
HETATM    1  C   UNL     1     -13.079  12.811  72.308  1.00  0.00    -0.400 C  
HETATM    2  C   UNL     1     -12.512  12.391  70.988  1.00  0.00    -0.353 A  
HETATM    3  C   UNL     1     -12.377  11.116  70.419  1.00  0.00    -0.344 A  
HETATM    4  C   UNL     1     -11.575  14.816  67.700  1.00  0.00    -0.374 A  
HETATM    5  N   UNL     1     -11.850  11.322  69.123  1.00  0.00    -0.332 NA 
HETATM    6  O   UNL     1     -11.521  16.825  68.907  1.00  0.00    -0.171 OA 
HETATM    7  C   UNL     1     -11.872  12.683  68.828  1.00  0.00    -0.300 A  
HETATM    8  C   UNL     1     -11.678  15.471  68.906  1.00  0.00    -0.370 A  
HETATM    9  C   UNL     1     -12.090  13.357  70.026  1.00  0.00    -0.404 A  
HETATM   10  H   UNL     1     -11.319  17.305  68.113  1.00  0.00     0.000 HD 
HETATM   11  C   UNL     1     -11.713  13.429  67.645  1.00  0.00    -0.397 A  
HETATM   12  C   UNL     1     -11.974  14.769  70.068  1.00  0.00    -0.369 A  
ENDROOT
BRANCH   3  13
HETATM   13  C   UNL     1     -12.715   9.793  71.019  1.00  0.00    -0.392 A  
HETATM   14  C   UNL     1     -13.468   7.258  72.028  1.00  0.00    -0.108 A  
HETATM   15  H   UNL     1     -14.762   5.913  72.827  1.00  0.00     0.000 HD 
HETATM   16  C   UNL     1     -13.987   9.565  71.573  1.00  0.00    -0.170 A  
HETATM   17  C   UNL     1     -14.376   8.304  72.040  1.00  0.00    -0.541 A  
HETATM   18  O   UNL     1     -13.881   6.048  72.497  1.00  0.00     0.135 OA 
HETATM   19  C   UNL     1     -11.823   8.707  71.016  1.00  0.00    -0.303 A  
HETATM   20  C   UNL     1     -12.182   7.457  71.546  1.00  0.00    -0.368 A  
ENDBRANCH   3  13
BRANCH   5  21
HETATM   21  C   UNL     1     -11.351  10.232  68.243  1.00  0.00    -0.177 C  
BRANCH  21  22
HETATM   22  C   UNL     1      -9.940   9.747  68.465  1.00  0.00    -0.177 A  
HETATM   23  C   UNL     1      -7.636  10.239  69.000  1.00  0.00    -0.102 A  
HETATM   24  C   UNL     1      -8.193   8.071  68.147  1.00  0.00    -0.126 A  
HETATM   25  C   UNL     1      -8.972  10.624  68.953  1.00  0.00    -0.172 A  
HETATM   26  C   UNL     1      -7.224   9.002  68.494  1.00  0.00    -0.073 A  
HETATM   27  C   UNL     1      -9.540   8.423  68.222  1.00  0.00    -0.156 A  
BRANCH  26  28
HETATM   28  O   UNL     1      -5.908   8.636  68.286  1.00  0.00    -0.041 OA 
BRANCH  28  29
HETATM   29  C   UNL     1      -5.724   7.219  68.357  1.00  0.00    -0.023 C  
BRANCH  29  30
HETATM   30  C   UNL     1      -5.270   6.550  67.052  1.00  0.00    -0.008 C  
BRANCH  30  31
HETATM   31  N   UNL     1      -6.121   6.994  65.906  1.00  0.00    -0.035 NA 
HETATM   32  C   UNL     1      -5.314   7.678  64.881  1.00  0.00    -0.029 C  
HETATM   33  C   UNL     1      -6.030   8.212  63.642  1.00  0.00    -0.067 C  
HETATM   34  C   UNL     1      -6.475   7.110  62.700  1.00  0.00    -0.053 C  
HETATM   35  C   UNL     1      -7.818   6.497  63.061  1.00  0.00    -0.101 C  
HETATM   36  C   UNL     1      -8.107   6.337  64.549  1.00  0.00    -0.102 C  
HETATM   37  C   UNL     1      -6.921   5.871  65.401  1.00  0.00    -0.063 C  
ENDBRANCH  30  31
ENDBRANCH  29  30
ENDBRANCH  28  29
ENDBRANCH  26  28
ENDBRANCH  21  22
ENDBRANCH   5  21
TORSDOF 7
ENDMDL
MODEL      174
REMARK 921   NORMALIZED FREE ENERGY PREDICTED BY IDOCK:   -3.64 KCAL/MOL
REMARK 922        TOTAL FREE ENERGY PREDICTED BY IDOCK:   -8.19 KCAL/MOL
REMARK 923 INTER-LIGAND FREE ENERGY PREDICTED BY IDOCK:   -6.85 KCAL/MOL
REMARK 924 INTRA-LIGAND FREE ENERGY PREDICTED BY IDOCK:   -1.34 KCAL/MOL
REMARK 927      BINDING AFFINITY PREDICTED BY RF-SCORE:    0.00 PKD
ROOT
HETATM    1  C   UNL     1     -11.019  17.911  67.253  1.00  0.00    -0.053 C  
HETATM    2  C   UNL     1      -9.850  16.986  67.374  1.00  0.00    -0.262 A  
HETATM    3  C   UNL     1      -9.670  15.678  66.901  1.00  0.00    -0.230 A  
HETATM    4  C   UNL     1      -5.951  17.914  68.602  1.00  0.00    -0.187 A  
HETATM    5  N   UNL     1      -8.343  15.322  67.235  1.00  0.00    -0.184 NA 
HETATM    6  O   UNL     1      -6.516  19.937  69.643  1.00  0.00    -0.333 OA 
HETATM    7  C   UNL     1      -7.666  16.449  67.695  1.00  0.00    -0.144 A  
HETATM    8  C   UNL     1      -6.918  18.821  68.973  1.00  0.00    -0.295 A  
HETATM    9  C   UNL     1      -8.626  17.419  67.967  1.00  0.00    -0.240 A  
HETATM   10  H   UNL     1      -5.606  20.079  69.877  1.00  0.00     0.000 HD 
HETATM   11  C   UNL     1      -6.310  16.747  67.926  1.00  0.00    -0.151 A  
HETATM   12  C   UNL     1      -8.248  18.614  68.631  1.00  0.00    -0.348 A  
ENDROOT
BRANCH   3  13
HETATM   13  C   UNL     1     -10.647  14.810  66.182  1.00  0.00    -0.314 A  
HETATM   14  C   UNL     1     -12.372  13.057  64.781  1.00  0.00    -0.436 A  
HETATM   15  H   UNL     1     -13.062  12.090  63.135  1.00  0.00     0.000 HD 
HETATM   16  C   UNL     1     -10.576  14.661  64.786  1.00  0.00    -0.379 A  
HETATM   17  C   UNL     1     -11.402  13.767  64.094  1.00  0.00    -0.277 A  
HETATM   18  O   UNL     1     -13.161  12.202  64.073  1.00  0.00    -0.728 OA 
HETATM   19  C   UNL     1     -11.637  14.068  66.848  1.00  0.00    -0.407 A  
HETATM   20  C   UNL     1     -12.517  13.221  66.152  1.00  0.00    -0.335 A  
ENDBRANCH   3  13
BRANCH   5  21
HETATM   21  C   UNL     1      -7.791  13.947  67.108  1.00  0.00    -0.012 C  
BRANCH  21  22
HETATM   22  C   UNL     1      -8.701  12.796  67.461  1.00  0.00    -0.185 A  
HETATM   23  C   UNL     1      -9.899  11.536  69.139  1.00  0.00     0.085 A  
HETATM   24  C   UNL     1      -9.684  10.624  66.934  1.00  0.00    -0.213 A  
HETATM   25  C   UNL     1      -9.203  12.678  68.757  1.00  0.00     0.150 A  
HETATM   26  C   UNL     1     -10.047  10.455  68.262  1.00  0.00    -0.153 A  
HETATM   27  C   UNL     1      -9.098  11.823  66.530  1.00  0.00    -0.203 A  
BRANCH  26  28
HETATM   28  O   UNL     1     -10.511   9.206  68.626  1.00  0.00    -0.212 OA 
BRANCH  28  29
HETATM   29  C   UNL     1      -9.703   8.605  69.642  1.00  0.00    -0.179 C  
BRANCH  29  30
HETATM   30  C   UNL     1      -8.237   8.364  69.257  1.00  0.00    -0.116 C  
BRANCH  30  31
HETATM   31  N   UNL     1      -7.505   7.675  70.364  1.00  0.00    -0.078 NA 
HETATM   32  C   UNL     1      -8.306   7.663  71.600  1.00  0.00    -0.108 C  
HETATM   33  C   UNL     1      -7.701   7.008  72.841  1.00  0.00    -0.089 C  
HETATM   34  C   UNL     1      -7.650   5.496  72.741  1.00  0.00    -0.098 C  
HETATM   35  C   UNL     1      -6.423   4.968  72.016  1.00  0.00    -0.035 C  
HETATM   36  C   UNL     1      -5.941   5.790  70.825  1.00  0.00    -0.029 C  
HETATM   37  C   UNL     1      -7.046   6.352  69.924  1.00  0.00    -0.072 C  
ENDBRANCH  30  31
ENDBRANCH  29  30
ENDBRANCH  28  29
ENDBRANCH  26  28
ENDBRANCH  21  22
ENDBRANCH   5  21
TORSDOF 7
ENDMDL
MODEL      175
REMARK 921   NORMALIZED FREE ENERGY PREDICTED BY IDOCK:   -3.60 KCAL/MOL
REMARK 922        TOTAL FREE ENERGY PREDICTED BY IDOCK:   -8.14 KCAL/MOL
REMARK 923 INTER-LIGAND FREE ENERGY PREDICTED BY IDOCK:   -8.08 KCAL/MOL
REMARK 924 INTRA-LIGAND FREE ENERGY PREDICTED BY IDOCK:   -0.06 KCAL/MOL
REMARK 927      BINDING AFFINITY PREDICTED BY RF-SCORE:    0.00 PKD
ROOT
HETATM    1  C   UNL     1      -9.778  17.836  66.569  1.00  0.00    -0.324 C  
HETATM    2  C   UNL     1      -9.380  16.395  66.634  1.00  0.00    -0.282 A  
HETATM    3  C   UNL     1      -8.440  15.745  67.447  1.00  0.00    -0.171 A  
HETATM    4  C   UNL     1     -11.335  13.107  64.920  1.00  0.00    -0.334 A  
HETATM    5  N   UNL     1      -8.541  14.370  67.135  1.00  0.00    -0.213 NA 
HETATM    6  O   UNL     1     -12.590  14.361  63.389  1.00  0.00    -1.054 OA 
HETATM    7  C   UNL     1      -9.655  14.161  66.326  1.00  0.00    -0.275 A  
HETATM    8  C   UNL     1     -11.651  14.330  64.376  1.00  0.00    -0.344 A  
HETATM    9  C   UNL     1     -10.058  15.408  65.857  1.00  0.00    -0.370 A  
HETATM   10  H   UNL     1     -12.996  13.567  63.061  1.00  0.00     0.000 HD 
HETATM   11  C   UNL     1     -10.370  13.017  65.924  1.00  0.00    -0.296 A  
HETATM   12  C   UNL     1     -11.058  15.491  64.856  1.00  0.00    -0.428 A  
ENDROOT
BRANCH   3  13
HETATM   13  C   UNL     1      -7.512  16.343  68.451  1.00  0.00    -0.171 A  
HETATM   14  C   UNL     1      -5.890  17.540  70.437  1.00  0.00    -0.036 A  
HETATM   15  H   UNL     1      -5.099  19.105  71.462  1.00  0.00     0.000 HD 
HETATM   16  C   UNL     1      -7.367  17.738  68.546  1.00  0.00    -0.266 A  
HETATM   17  C   UNL     1      -6.595  18.335  69.549  1.00  0.00    -0.165 A  
HETATM   18  O   UNL     1      -5.145  18.158  71.395  1.00  0.00    -0.469 OA 
HETATM   19  C   UNL     1      -6.789  15.568  69.373  1.00  0.00    -0.176 A  
HETATM   20  C   UNL     1      -5.957  16.157  70.339  1.00  0.00    -0.001 A  
ENDBRANCH   3  13
BRANCH   5  21
HETATM   21  C   UNL     1      -7.583  13.335  67.609  1.00  0.00    -0.170 C  
BRANCH  21  22
HETATM   22  C   UNL     1      -8.015  11.892  67.519  1.00  0.00    -0.155 A  
HETATM   23  C   UNL     1      -8.006   9.794  66.321  1.00  0.00    -0.109 A  
HETATM   24  C   UNL     1      -9.530  10.084  68.147  1.00  0.00    -0.148 A  
HETATM   25  C   UNL     1      -7.491  11.071  66.521  1.00  0.00    -0.145 A  
HETATM   26  C   UNL     1      -9.103   9.335  67.059  1.00  0.00    -0.130 A  
HETATM   27  C   UNL     1      -8.923  11.309  68.417  1.00  0.00    -0.167 A  
BRANCH  26  28
HETATM   28  O   UNL     1      -9.820   8.190  66.772  1.00  0.00    -0.214 OA 
BRANCH  28  29
HETATM   29  C   UNL     1     -10.772   7.879  67.793  1.00  0.00    -0.119 C  
BRANCH  29  30
HETATM   30  C   UNL     1     -11.157   6.397  67.901  1.00  0.00    -0.270 C  
BRANCH  30  31
HETATM   31  N   UNL     1     -10.008   5.522  67.516  1.00  0.00    -0.148 NA 
HETATM   32  C   UNL     1      -9.680   4.574  68.594  1.00  0.00    -0.134 C  
HETATM   33  C   UNL     1      -8.515   3.610  68.374  1.00  0.00    -0.106 C  
HETATM   34  C   UNL     1      -8.839   2.517  67.374  1.00  0.00    -0.160 C  
HETATM   35  C   UNL     1      -8.617   2.922  65.926  1.00  0.00    -0.118 C  
HETATM   36  C   UNL     1      -8.975   4.360  65.567  1.00  0.00    -0.135 C  
HETATM   37  C   UNL     1     -10.258   4.897  66.212  1.00  0.00    -0.279 C  
ENDBRANCH  30  31
ENDBRANCH  29  30
ENDBRANCH  28  29
ENDBRANCH  26  28
ENDBRANCH  21  22
ENDBRANCH   5  21
TORSDOF 7
ENDMDL
MODEL      176
REMARK 921   NORMALIZED FREE ENERGY PREDICTED BY IDOCK:   -3.49 KCAL/MOL
REMARK 922        TOTAL FREE ENERGY PREDICTED BY IDOCK:   -7.98 KCAL/MOL
REMARK 923 INTER-LIGAND FREE ENERGY PREDICTED BY IDOCK:   -5.88 KCAL/MOL
REMARK 924 INTRA-LIGAND FREE ENERGY PREDICTED BY IDOCK:   -2.10 KCAL/MOL
REMARK 927      BINDING AFFINITY PREDICTED BY RF-SCORE:    0.00 PKD
ROOT
HETATM    1  C   UNL     1     -10.756   8.000  66.880  1.00  0.00    -0.201 C  
HETATM    2  C   UNL     1      -9.404   8.610  67.075  1.00  0.00    -0.202 A  
HETATM    3  C   UNL     1      -8.638   8.777  68.238  1.00  0.00    -0.134 A  
HETATM    4  C   UNL     1      -6.588   9.614  64.136  1.00  0.00    -0.112 A  
HETATM    5  N   UNL     1      -7.410   9.340  67.818  1.00  0.00    -0.083 NA 
HETATM    6  O   UNL     1      -8.109   9.608  62.352  1.00  0.00    -0.121 OA 
HETATM    7  C   UNL     1      -7.342   9.310  66.427  1.00  0.00    -0.092 A  
HETATM    8  C   UNL     1      -7.881   9.468  63.689  1.00  0.00    -0.132 A  
HETATM    9  C   UNL     1      -8.627   9.048  65.961  1.00  0.00    -0.158 A  
HETATM   10  H   UNL     1      -7.410   9.828  61.747  1.00  0.00     0.000 HD 
HETATM   11  C   UNL     1      -6.302   9.495  65.497  1.00  0.00    -0.067 A  
HETATM   12  C   UNL     1      -8.903   9.146  64.573  1.00  0.00    -0.165 A  
ENDROOT
BRANCH   3  13
HETATM   13  C   UNL     1      -9.002   8.437  69.644  1.00  0.00    -0.145 A  
HETATM   14  C   UNL     1      -9.531   7.825  72.356  1.00  0.00    -0.178 A  
HETATM   15  H   UNL     1      -9.333   6.747  74.065  1.00  0.00     0.000 HD 
HETATM   16  C   UNL     1      -8.479   7.287  70.258  1.00  0.00    -0.137 A  
HETATM   17  C   UNL     1      -8.708   6.999  71.609  1.00  0.00    -0.116 A  
HETATM   18  O   UNL     1      -9.735   7.509  73.665  1.00  0.00    -0.270 OA 
HETATM   19  C   UNL     1      -9.827   9.257  70.434  1.00  0.00    -0.290 A  
HETATM   20  C   UNL     1     -10.118   8.938  71.771  1.00  0.00    -0.407 A  
ENDBRANCH   3  13
BRANCH   5  21
HETATM   21  C   UNL     1      -6.379   9.877  68.745  1.00  0.00    -0.045 C  
BRANCH  21  22
HETATM   22  C   UNL     1      -6.288  11.376  68.892  1.00  0.00    -0.057 A  
HETATM   23  C   UNL     1      -5.975  13.547  67.877  1.00  0.00    -0.143 A  
HETATM   24  C   UNL     1      -5.897  13.358  70.264  1.00  0.00    -0.157 A  
HETATM   25  C   UNL     1      -6.231  12.184  67.757  1.00  0.00    -0.089 A  
HETATM   26  C   UNL     1      -5.696  14.120  69.123  1.00  0.00    -0.085 A  
HETATM   27  C   UNL     1      -6.277  12.022  70.139  1.00  0.00    -0.075 A  
BRANCH  26  28
HETATM   28  O   UNL     1      -5.206  15.399  69.307  1.00  0.00    -0.096 OA 
BRANCH  28  29
HETATM   29  C   UNL     1      -5.635  16.295  68.278  1.00  0.00    -0.108 C  
BRANCH  29  30
HETATM   30  C   UNL     1      -6.798  17.222  68.659  1.00  0.00    -0.207 C  
BRANCH  30  31
HETATM   31  N   UNL     1      -8.103  16.645  68.213  1.00  0.00    -0.190 NA 
HETATM   32  C   UNL     1      -7.985  16.043  66.874  1.00  0.00    -0.248 C  
HETATM   33  C   UNL     1      -9.234  15.417  66.256  1.00  0.00    -0.354 C  
HETATM   34  C   UNL     1      -9.625  14.110  66.918  1.00  0.00    -0.275 C  
HETATM   35  C   UNL     1     -10.479  14.284  68.164  1.00  0.00    -0.246 C  
HETATM   36  C   UNL     1     -10.136  15.473  69.054  1.00  0.00    -0.234 C  
HETATM   37  C   UNL     1      -8.639  15.743  69.240  1.00  0.00    -0.259 C  
ENDBRANCH  30  31
ENDBRANCH  29  30
ENDBRANCH  28  29
ENDBRANCH  26  28
ENDBRANCH  21  22
ENDBRANCH   5  21
TORSDOF 7
ENDMDL
MODEL      177
REMARK 921   NORMALIZED FREE ENERGY PREDICTED BY IDOCK:   -3.48 KCAL/MOL
REMARK 922        TOTAL FREE ENERGY PREDICTED BY IDOCK:   -7.97 KCAL/MOL
REMARK 923 INTER-LIGAND FREE ENERGY PREDICTED BY IDOCK:   -7.19 KCAL/MOL
REMARK 924 INTRA-LIGAND FREE ENERGY PREDICTED BY IDOCK:   -0.78 KCAL/MOL
REMARK 927      BINDING AFFINITY PREDICTED BY RF-SCORE:    0.00 PKD
ROOT
HETATM    1  C   UNL     1      -7.884   9.804  63.086  1.00  0.00    -0.139 C  
HETATM    2  C   UNL     1      -8.551   9.505  64.392  1.00  0.00    -0.213 A  
HETATM    3  C   UNL     1      -9.628  10.135  65.031  1.00  0.00    -0.299 A  
HETATM    4  C   UNL     1      -8.134   6.076  66.767  1.00  0.00    -0.105 A  
HETATM    5  N   UNL     1      -9.883   9.382  66.200  1.00  0.00    -0.271 NA 
HETATM    6  O   UNL     1      -6.132   5.358  65.780  1.00  0.00    -0.031 OA 
HETATM    7  C   UNL     1      -9.136   8.207  66.162  1.00  0.00    -0.183 A  
HETATM    8  C   UNL     1      -7.123   6.290  65.857  1.00  0.00    -0.066 A  
HETATM    9  C   UNL     1      -8.178   8.364  65.165  1.00  0.00    -0.158 A  
HETATM   10  H   UNL     1      -6.116   4.598  66.351  1.00  0.00     0.000 HD 
HETATM   11  C   UNL     1      -9.165   7.007  66.897  1.00  0.00    -0.174 A  
HETATM   12  C   UNL     1      -7.148   7.400  65.023  1.00  0.00    -0.064 A  
ENDROOT
BRANCH   3  13
HETATM   13  C   UNL     1     -10.384  11.346  64.596  1.00  0.00    -0.362 A  
HETATM   14  C   UNL     1     -11.931  13.609  63.895  1.00  0.00    -0.408 A  
HETATM   15  H   UNL     1     -13.589  14.555  63.201  1.00  0.00     0.000 HD 
HETATM   16  C   UNL     1     -11.646  11.221  63.992  1.00  0.00     0.072 A  
HETATM   17  C   UNL     1     -12.430  12.337  63.677  1.00  0.00    -0.647 A  
HETATM   18  O   UNL     1     -12.721  14.670  63.569  1.00  0.00    -0.670 OA 
HETATM   19  C   UNL     1      -9.912  12.653  64.810  1.00  0.00    -0.164 A  
HETATM   20  C   UNL     1     -10.663  13.779  64.433  1.00  0.00    -0.333 A  
ENDBRANCH   3  13
BRANCH   5  21
HETATM   21  C   UNL     1     -10.806   9.811  67.284  1.00  0.00    -0.177 C  
BRANCH  21  22
HETATM   22  C   UNL     1     -10.666  11.222  67.801  1.00  0.00    -0.265 A  
HETATM   23  C   UNL     1     -11.632  13.408  68.156  1.00  0.00    -0.376 A  
HETATM   24  C   UNL     1      -9.273  13.116  68.457  1.00  0.00    -0.066 A  
HETATM   25  C   UNL     1     -11.779  12.059  67.846  1.00  0.00    -0.393 A  
HETATM   26  C   UNL     1     -10.364  13.967  68.354  1.00  0.00    -0.249 A  
HETATM   27  C   UNL     1      -9.450  11.747  68.268  1.00  0.00    -0.193 A  
BRANCH  26  28
HETATM   28  O   UNL     1     -10.106  15.322  68.432  1.00  0.00    -0.214 OA 
BRANCH  28  29
HETATM   29  C   UNL     1     -10.386  15.851  69.731  1.00  0.00    -0.290 C  
BRANCH  29  30
HETATM   30  C   UNL     1      -9.767  17.224  70.027  1.00  0.00     1.134 C  
BRANCH  30  31
HETATM   31  N   UNL     1     -10.033  18.177  68.906  1.00  0.00    -0.366 NA 
HETATM   32  C   UNL     1      -9.089  19.307  68.936  1.00  0.00    -0.321 C  
HETATM   33  C   UNL     1      -9.228  20.387  67.865  1.00  0.00    -0.272 C  
HETATM   34  C   UNL     1      -8.779  19.918  66.495  1.00  0.00    -0.406 C  
HETATM   35  C   UNL     1      -9.854  19.180  65.714  1.00  0.00     0.009 C  
HETATM   36  C   UNL     1     -10.771  18.272  66.526  1.00  0.00    -0.199 C  
HETATM   37  C   UNL     1     -10.081  17.458  67.627  1.00  0.00    -0.327 C  
ENDBRANCH  30  31
ENDBRANCH  29  30
ENDBRANCH  28  29
ENDBRANCH  26  28
ENDBRANCH  21  22
ENDBRANCH   5  21
TORSDOF 7
ENDMDL
MODEL      178
REMARK 921   NORMALIZED FREE ENERGY PREDICTED BY IDOCK:   -3.40 KCAL/MOL
REMARK 922        TOTAL FREE ENERGY PREDICTED BY IDOCK:   -7.86 KCAL/MOL
REMARK 923 INTER-LIGAND FREE ENERGY PREDICTED BY IDOCK:   -5.86 KCAL/MOL
REMARK 924 INTRA-LIGAND FREE ENERGY PREDICTED BY IDOCK:   -2.00 KCAL/MOL
REMARK 927      BINDING AFFINITY PREDICTED BY RF-SCORE:    0.00 PKD
ROOT
HETATM    1  C   UNL     1     -12.174  14.163  69.450  1.00  0.00    -0.329 C  
HETATM    2  C   UNL     1     -10.826  14.339  68.823  1.00  0.00    -0.265 A  
HETATM    3  C   UNL     1      -9.989  13.412  68.187  1.00  0.00    -0.237 A  
HETATM    4  C   UNL     1      -8.886  17.929  67.863  1.00  0.00    -0.260 A  
HETATM    5  N   UNL     1      -8.878  14.149  67.716  1.00  0.00    -0.175 NA 
HETATM    6  O   UNL     1     -10.201  19.278  69.258  1.00  0.00    -0.577 OA 
HETATM    7  C   UNL     1      -9.134  15.510  67.862  1.00  0.00    -0.175 A  
HETATM    8  C   UNL     1      -9.897  18.034  68.791  1.00  0.00    -0.354 A  
HETATM    9  C   UNL     1     -10.230  15.631  68.711  1.00  0.00    -0.215 A  
HETATM   10  H   UNL     1      -9.716  20.047  68.982  1.00  0.00     0.000 HD 
HETATM   11  C   UNL     1      -8.526  16.677  67.362  1.00  0.00    -0.204 A  
HETATM   12  C   UNL     1     -10.605  16.910  69.195  1.00  0.00    -0.330 A  
ENDROOT
BRANCH   3  13
HETATM   13  C   UNL     1     -10.194  11.944  68.014  1.00  0.00    -0.199 A  
HETATM   14  C   UNL     1     -10.432   9.154  67.604  1.00  0.00    -0.261 A  
HETATM   15  H   UNL     1     -10.624   7.475  66.478  1.00  0.00     0.000 HD 
HETATM   16  C   UNL     1     -10.408  11.400  66.736  1.00  0.00    -0.271 A  
HETATM   17  C   UNL     1     -10.490  10.018  66.524  1.00  0.00    -0.223 A  
HETATM   18  O   UNL     1     -10.522   7.817  67.358  1.00  0.00    -0.252 OA 
HETATM   19  C   UNL     1     -10.133  11.037  69.086  1.00  0.00    -0.167 A  
HETATM   20  C   UNL     1     -10.284   9.654  68.890  1.00  0.00    -0.214 A  
ENDBRANCH   3  13
BRANCH   5  21
HETATM   21  C   UNL     1      -7.642  13.533  67.165  1.00  0.00     0.061 C  
BRANCH  21  22
HETATM   22  C   UNL     1      -7.065  12.348  67.900  1.00  0.00    -0.109 A  
HETATM   23  C   UNL     1      -6.488  10.002  67.928  1.00  0.00    -0.059 A  
HETATM   24  C   UNL     1      -6.456  11.231  69.984  1.00  0.00    -0.114 A  
HETATM   25  C   UNL     1      -6.855  11.146  67.226  1.00  0.00    -0.095 A  
HETATM   26  C   UNL     1      -6.395  10.012  69.323  1.00  0.00    -0.045 A  
HETATM   27  C   UNL     1      -6.701  12.394  69.255  1.00  0.00    -0.067 A  
BRANCH  26  28
HETATM   28  O   UNL     1      -6.269   8.884  70.111  1.00  0.00    -0.035 OA 
BRANCH  28  29
HETATM   29  C   UNL     1      -7.391   8.706  70.981  1.00  0.00    -0.083 C  
BRANCH  29  30
HETATM   30  C   UNL     1      -7.588   7.279  71.512  1.00  0.00    -0.086 C  
BRANCH  30  31
HETATM   31  N   UNL     1      -7.656   6.299  70.385  1.00  0.00    -0.094 NA 
HETATM   32  C   UNL     1      -6.308   5.956  69.900  1.00  0.00    -0.031 C  
HETATM   33  C   UNL     1      -6.193   4.974  68.735  1.00  0.00    -0.031 C  
HETATM   34  C   UNL     1      -6.522   3.548  69.134  1.00  0.00    -0.033 C  
HETATM   35  C   UNL     1      -8.007   3.226  69.097  1.00  0.00    -0.057 C  
HETATM   36  C   UNL     1      -8.948   4.339  69.546  1.00  0.00    -0.154 C  
HETATM   37  C   UNL     1      -8.479   5.144  70.763  1.00  0.00    -0.117 C  
ENDBRANCH  30  31
ENDBRANCH  29  30
ENDBRANCH  28  29
ENDBRANCH  26  28
ENDBRANCH  21  22
ENDBRANCH   5  21
TORSDOF 7
ENDMDL
MODEL      179
REMARK 921   NORMALIZED FREE ENERGY PREDICTED BY IDOCK:   -3.34 KCAL/MOL
REMARK 922        TOTAL FREE ENERGY PREDICTED BY IDOCK:   -7.77 KCAL/MOL
REMARK 923 INTER-LIGAND FREE ENERGY PREDICTED BY IDOCK:   -5.51 KCAL/MOL
REMARK 924 INTRA-LIGAND FREE ENERGY PREDICTED BY IDOCK:   -2.27 KCAL/MOL
REMARK 927      BINDING AFFINITY PREDICTED BY RF-SCORE:    0.00 PKD
ROOT
HETATM    1  C   UNL     1      -8.653   5.839  65.204  1.00  0.00    -0.110 C  
HETATM    2  C   UNL     1      -8.094   6.270  66.524  1.00  0.00    -0.110 A  
HETATM    3  C   UNL     1      -8.378   7.395  67.310  1.00  0.00    -0.119 A  
HETATM    4  C   UNL     1      -5.775   4.019  69.193  1.00  0.00    -0.018 A  
HETATM    5  N   UNL     1      -7.614   7.249  68.490  1.00  0.00    -0.115 NA 
HETATM    6  O   UNL     1      -5.134   2.397  67.627  1.00  0.00    -0.007 OA 
HETATM    7  C   UNL     1      -7.056   5.973  68.522  1.00  0.00    -0.082 A  
HETATM    8  C   UNL     1      -5.804   3.553  67.899  1.00  0.00    -0.026 A  
HETATM    9  C   UNL     1      -7.181   5.441  67.242  1.00  0.00    -0.075 A  
HETATM   10  H   UNL     1      -4.636   1.940  68.295  1.00  0.00     0.000 HD 
HETATM   11  C   UNL     1      -6.433   5.205  69.523  1.00  0.00    -0.038 A  
HETATM   12  C   UNL     1      -6.531   4.222  66.923  1.00  0.00    -0.041 A  
ENDROOT
BRANCH   3  13
HETATM   13  C   UNL     1      -9.297   8.531  67.005  1.00  0.00    -0.204 A  
HETATM   14  C   UNL     1     -10.971  10.769  66.559  1.00  0.00    -0.075 A  
HETATM   15  H   UNL     1     -12.440  12.085  67.038  1.00  0.00     0.000 HD 
HETATM   16  C   UNL     1     -10.329   8.872  67.896  1.00  0.00    -0.286 A  
HETATM   17  C   UNL     1     -11.135   9.999  67.698  1.00  0.00    -0.222 A  
HETATM   18  O   UNL     1     -11.778  11.854  66.398  1.00  0.00    -0.522 OA 
HETATM   19  C   UNL     1      -9.153   9.338  65.864  1.00  0.00    -0.246 A  
HETATM   20  C   UNL     1     -10.003  10.431  65.622  1.00  0.00    -0.337 A  
ENDBRANCH   3  13
BRANCH   5  21
HETATM   21  C   UNL     1      -7.448   8.315  69.514  1.00  0.00    -0.086 C  
BRANCH  21  22
HETATM   22  C   UNL     1      -7.019   9.680  69.034  1.00  0.00    -0.058 A  
HETATM   23  C   UNL     1      -7.361  12.072  69.004  1.00  0.00    -0.018 A  
HETATM   24  C   UNL     1      -5.832  11.097  67.439  1.00  0.00    -0.052 A  
HETATM   25  C   UNL     1      -7.623  10.823  69.558  1.00  0.00    -0.094 A  
HETATM   26  C   UNL     1      -6.551  12.202  67.871  1.00  0.00    -0.085 A  
HETATM   27  C   UNL     1      -6.007   9.871  68.080  1.00  0.00    -0.039 A  
BRANCH  26  28
HETATM   28  O   UNL     1      -6.426  13.356  67.122  1.00  0.00    -0.220 OA 
BRANCH  28  29
HETATM   29  C   UNL     1      -7.015  14.487  67.771  1.00  0.00    -0.179 C  
BRANCH  29  30
HETATM   30  C   UNL     1      -7.920  15.354  66.884  1.00  0.00    -0.195 C  
BRANCH  30  31
HETATM   31  N   UNL     1      -9.231  15.607  67.555  1.00  0.00    -0.199 NA 
HETATM   32  C   UNL     1      -9.919  14.342  67.868  1.00  0.00    -0.228 C  
HETATM   33  C   UNL     1     -11.286  14.417  68.545  1.00  0.00    -0.307 C  
HETATM   34  C   UNL     1     -11.200  14.846  69.997  1.00  0.00    -0.293 C  
HETATM   35  C   UNL     1     -11.159  16.353  70.192  1.00  0.00    -0.285 C  
HETATM   36  C   UNL     1     -10.368  17.144  69.155  1.00  0.00    -0.297 C  
HETATM   37  C   UNL     1      -9.051  16.502  68.704  1.00  0.00    -0.239 C  
ENDBRANCH  30  31
ENDBRANCH  29  30
ENDBRANCH  28  29
ENDBRANCH  26  28
ENDBRANCH  21  22
ENDBRANCH   5  21
TORSDOF 7
ENDMDL
MODEL      180
REMARK 921   NORMALIZED FREE ENERGY PREDICTED BY IDOCK:   -3.29 KCAL/MOL
REMARK 922        TOTAL FREE ENERGY PREDICTED BY IDOCK:   -7.70 KCAL/MOL
REMARK 923 INTER-LIGAND FREE ENERGY PREDICTED BY IDOCK:   -6.44 KCAL/MOL
REMARK 924 INTRA-LIGAND FREE ENERGY PREDICTED BY IDOCK:   -1.26 KCAL/MOL
REMARK 927      BINDING AFFINITY PREDICTED BY RF-SCORE:    0.00 PKD
ROOT
HETATM    1  C   UNL     1     -10.181  15.625  67.502  1.00  0.00    -0.263 C  
HETATM    2  C   UNL     1      -9.349  14.382  67.471  1.00  0.00    -0.198 A  
HETATM    3  C   UNL     1      -9.456  13.233  66.674  1.00  0.00    -0.260 A  
HETATM    4  C   UNL     1      -5.613  13.743  69.262  1.00  0.00    -0.080 A  
HETATM    5  N   UNL     1      -8.355  12.416  67.018  1.00  0.00    -0.177 NA 
HETATM    6  O   UNL     1      -5.770  15.537  70.762  1.00  0.00    -0.107 OA 
HETATM    7  C   UNL     1      -7.483  13.137  67.832  1.00  0.00    -0.136 A  
HETATM    8  C   UNL     1      -6.343  14.790  69.777  1.00  0.00    -0.152 A  
HETATM    9  C   UNL     1      -8.173  14.263  68.271  1.00  0.00    -0.148 A  
HETATM   10  H   UNL     1      -4.910  15.331  71.109  1.00  0.00     0.000 HD 
HETATM   11  C   UNL     1      -6.158  12.938  68.260  1.00  0.00    -0.082 A  
HETATM   12  C   UNL     1      -7.601  15.091  69.269  1.00  0.00    -0.187 A  
ENDROOT
BRANCH   3  13
HETATM   13  C   UNL     1     -10.497  12.905  65.657  1.00  0.00    -0.292 A  
HETATM   14  C   UNL     1     -12.402  12.125  63.715  1.00  0.00    -0.532 A  
HETATM   15  H   UNL     1     -13.002  11.534  61.867  1.00  0.00     0.000 HD 
HETATM   16  C   UNL     1     -10.138  12.680  64.316  1.00  0.00    -0.292 A  
HETATM   17  C   UNL     1     -11.071  12.259  63.361  1.00  0.00    -0.487 A  
HETATM   18  O   UNL     1     -13.281  11.720  62.756  1.00  0.00    -0.189 OA 
HETATM   19  C   UNL     1     -11.856  12.752  65.982  1.00  0.00    -0.495 A  
HETATM   20  C   UNL     1     -12.810  12.397  65.014  1.00  0.00     0.019 A  
ENDBRANCH   3  13
BRANCH   5  21
HETATM   21  C   UNL     1      -8.188  11.008  66.570  1.00  0.00    -0.161 C  
BRANCH  21  22
HETATM   22  C   UNL     1      -9.210  10.002  67.040  1.00  0.00    -0.167 A  
HETATM   23  C   UNL     1     -10.545   9.081  68.831  1.00  0.00    -0.203 A  
HETATM   24  C   UNL     1     -10.390   7.882  66.763  1.00  0.00    -0.357 A  
HETATM   25  C   UNL     1      -9.737  10.096  68.327  1.00  0.00    -0.154 A  
HETATM   26  C   UNL     1     -10.785   7.917  68.093  1.00  0.00    -0.040 A  
HETATM   27  C   UNL     1      -9.686   8.960  66.228  1.00  0.00    -0.345 A  
BRANCH  26  28
HETATM   28  O   UNL     1     -11.371   6.773  68.597  1.00  0.00    -0.135 OA 
BRANCH  28  29
HETATM   29  C   UNL     1     -10.404   5.779  68.947  1.00  0.00    -0.227 C  
BRANCH  29  30
HETATM   30  C   UNL     1      -8.941   6.171  68.693  1.00  0.00    -0.126 C  
BRANCH  30  31
HETATM   31  N   UNL     1      -8.184   5.028  68.097  1.00  0.00    -0.096 NA 
HETATM   32  C   UNL     1      -8.852   4.526  66.884  1.00  0.00    -0.112 C  
HETATM   33  C   UNL     1      -8.217   3.344  66.152  1.00  0.00    -0.097 C  
HETATM   34  C   UNL     1      -6.946   3.723  65.417  1.00  0.00    -0.061 C  
HETATM   35  C   UNL     1      -5.700   3.694  66.287  1.00  0.00    -0.019 C  
HETATM   36  C   UNL     1      -5.873   4.169  67.725  1.00  0.00    -0.023 C  
HETATM   37  C   UNL     1      -6.775   5.395  67.908  1.00  0.00    -0.055 C  
ENDBRANCH  30  31
ENDBRANCH  29  30
ENDBRANCH  28  29
ENDBRANCH  26  28
ENDBRANCH  21  22
ENDBRANCH   5  21
TORSDOF 7
ENDMDL
MODEL      181
REMARK 921   NORMALIZED FREE ENERGY PREDICTED BY IDOCK:   -3.27 KCAL/MOL
REMARK 922        TOTAL FREE ENERGY PREDICTED BY IDOCK:   -7.68 KCAL/MOL
REMARK 923 INTER-LIGAND FREE ENERGY PREDICTED BY IDOCK:   -5.38 KCAL/MOL
REMARK 924 INTRA-LIGAND FREE ENERGY PREDICTED BY IDOCK:   -2.29 KCAL/MOL
REMARK 927      BINDING AFFINITY PREDICTED BY RF-SCORE:    0.00 PKD
ROOT
HETATM    1  C   UNL     1      -8.316   7.528  71.530  1.00  0.00    -0.111 C  
HETATM    2  C   UNL     1      -7.417   7.743  70.353  1.00  0.00    -0.078 A  
HETATM    3  C   UNL     1      -7.200   6.951  69.216  1.00  0.00    -0.090 A  
HETATM    4  C   UNL     1      -5.420  11.259  69.249  1.00  0.00    -0.040 A  
HETATM    5  N   UNL     1      -6.308   7.682  68.398  1.00  0.00    -0.039 NA 
HETATM    6  O   UNL     1      -5.599  12.290  71.347  1.00  0.00    -0.382 OA 
HETATM    7  C   UNL     1      -6.161   8.968  68.911  1.00  0.00    -0.044 A  
HETATM    8  C   UNL     1      -5.829  11.200  70.562  1.00  0.00    -0.133 A  
HETATM    9  C   UNL     1      -6.677   8.953  70.204  1.00  0.00    -0.041 A  
HETATM   10  H   UNL     1      -5.145  13.057  71.015  1.00  0.00     0.000 HD 
HETATM   11  C   UNL     1      -5.620  10.165  68.406  1.00  0.00    -0.038 A  
HETATM   12  C   UNL     1      -6.492  10.079  71.045  1.00  0.00     0.064 A  
ENDROOT
BRANCH   3  13
HETATM   13  C   UNL     1      -7.777   5.614  68.894  1.00  0.00    -0.089 A  
HETATM   14  C   UNL     1      -8.909   3.058  68.450  1.00  0.00    -0.122 A  
HETATM   15  H   UNL     1      -9.014   1.040  68.643  1.00  0.00     0.000 HD 
HETATM   16  C   UNL     1      -7.156   4.439  69.353  1.00  0.00    -0.050 A  
HETATM   17  C   UNL     1      -7.731   3.176  69.167  1.00  0.00    -0.048 A  
HETATM   18  O   UNL     1      -9.435   1.813  68.285  1.00  0.00    -0.185 OA 
HETATM   19  C   UNL     1      -8.976   5.457  68.178  1.00  0.00    -0.111 A  
HETATM   20  C   UNL     1      -9.524   4.188  67.927  1.00  0.00    -0.219 A  
ENDBRANCH   3  13
BRANCH   5  21
HETATM   21  C   UNL     1      -5.641   7.128  67.189  1.00  0.00    -0.022 C  
BRANCH  21  22
HETATM   22  C   UNL     1      -6.099   7.640  65.846  1.00  0.00    -0.038 A  
HETATM   23  C   UNL     1      -5.631   8.890  63.832  1.00  0.00    -0.069 A  
HETATM   24  C   UNL     1      -7.888   8.230  64.292  1.00  0.00    -0.144 A  
HETATM   25  C   UNL     1      -5.189   8.264  64.993  1.00  0.00    -0.035 A  
HETATM   26  C   UNL     1      -6.995   8.973  63.532  1.00  0.00    -0.089 A  
HETATM   27  C   UNL     1      -7.418   7.502  65.385  1.00  0.00    -0.082 A  
BRANCH  26  28
HETATM   28  O   UNL     1      -7.536   9.767  62.539  1.00  0.00    -0.109 OA 
BRANCH  28  29
HETATM   29  C   UNL     1      -8.964   9.801  62.592  1.00  0.00    -0.273 C  
BRANCH  29  30
HETATM   30  C   UNL     1      -9.585  11.203  62.658  1.00  0.00    -0.235 C  
BRANCH  30  31
HETATM   31  N   UNL     1     -10.358  11.381  63.925  1.00  0.00    -0.342 NA 
HETATM   32  C   UNL     1      -9.458  11.436  65.090  1.00  0.00    -0.199 C  
HETATM   33  C   UNL     1     -10.085  11.600  66.474  1.00  0.00    -0.239 C  
HETATM   34  C   UNL     1     -10.635  12.993  66.708  1.00  0.00    -0.269 C  
HETATM   35  C   UNL     1     -12.046  13.194  66.181  1.00  0.00    -0.479 C  
HETATM   36  C   UNL     1     -12.379  12.495  64.867  1.00  0.00    -0.539 C  
HETATM   37  C   UNL     1     -11.271  12.524  63.808  1.00  0.00    -0.462 C  
ENDBRANCH  30  31
ENDBRANCH  29  30
ENDBRANCH  28  29
ENDBRANCH  26  28
ENDBRANCH  21  22
ENDBRANCH   5  21
TORSDOF 7
ENDMDL
MODEL      182
REMARK 921   NORMALIZED FREE ENERGY PREDICTED BY IDOCK:   -3.26 KCAL/MOL
REMARK 922        TOTAL FREE ENERGY PREDICTED BY IDOCK:   -7.66 KCAL/MOL
REMARK 923 INTER-LIGAND FREE ENERGY PREDICTED BY IDOCK:   -5.44 KCAL/MOL
REMARK 924 INTRA-LIGAND FREE ENERGY PREDICTED BY IDOCK:   -2.22 KCAL/MOL
REMARK 927      BINDING AFFINITY PREDICTED BY RF-SCORE:    0.00 PKD
ROOT
HETATM    1  C   UNL     1      -6.173  15.815  67.225  1.00  0.00    -0.068 C  
HETATM    2  C   UNL     1      -7.586  15.389  66.978  1.00  0.00    -0.195 A  
HETATM    3  C   UNL     1      -8.168  14.113  66.986  1.00  0.00    -0.071 A  
HETATM    4  C   UNL     1     -11.006  17.806  66.793  1.00  0.00     0.160 A  
HETATM    5  N   UNL     1      -9.550  14.315  66.766  1.00  0.00    -0.269 NA 
HETATM    6  O   UNL     1      -9.847  19.814  66.448  1.00  0.00    -0.384 OA 
HETATM    7  C   UNL     1      -9.836  15.676  66.844  1.00  0.00    -0.238 A  
HETATM    8  C   UNL     1      -9.810  18.462  66.612  1.00  0.00    -0.353 A  
HETATM    9  C   UNL     1      -8.621  16.352  66.777  1.00  0.00    -0.270 A  
HETATM   10  H   UNL     1     -10.668  20.292  66.428  1.00  0.00     0.000 HD 
HETATM   11  C   UNL     1     -11.025  16.420  66.951  1.00  0.00    -0.018 A  
HETATM   12  C   UNL     1      -8.610  17.763  66.643  1.00  0.00    -0.280 A  
ENDROOT
BRANCH   3  13
HETATM   13  C   UNL     1      -7.504  12.793  67.190  1.00  0.00    -0.037 A  
HETATM   14  C   UNL     1      -6.388  10.235  67.655  1.00  0.00    -0.058 A  
HETATM   15  H   UNL     1      -5.702   8.715  68.814  1.00  0.00     0.000 HD 
HETATM   16  C   UNL     1      -7.171  12.355  68.484  1.00  0.00    -0.103 A  
HETATM   17  C   UNL     1      -6.653  11.076  68.721  1.00  0.00    -0.061 A  
HETATM   18  O   UNL     1      -5.877   9.001  67.925  1.00  0.00    -0.042 OA 
HETATM   19  C   UNL     1      -7.229  11.910  66.133  1.00  0.00     0.645 A  
HETATM   20  C   UNL     1      -6.644  10.652  66.356  1.00  0.00    -0.120 A  
ENDBRANCH   3  13
BRANCH   5  21
HETATM   21  C   UNL     1     -10.519  13.220  66.491  1.00  0.00    -0.281 C  
BRANCH  21  22
HETATM   22  C   UNL     1     -10.717  12.178  67.564  1.00  0.00    -0.265 A  
HETATM   23  C   UNL     1     -10.741   9.853  68.221  1.00  0.00    -0.276 A  
HETATM   24  C   UNL     1     -11.646  11.493  69.715  1.00  0.00    -0.401 A  
HETATM   25  C   UNL     1     -10.403  10.845  67.305  1.00  0.00    -0.255 A  
HETATM   26  C   UNL     1     -11.463  10.159  69.380  1.00  0.00    -0.142 A  
HETATM   27  C   UNL     1     -11.193  12.486  68.849  1.00  0.00    -0.330 A  
BRANCH  26  28
HETATM   28  O   UNL     1     -12.038   9.223  70.217  1.00  0.00    -0.018 OA 
BRANCH  28  29
HETATM   29  C   UNL     1     -11.250   8.033  70.319  1.00  0.00    -0.190 C  
BRANCH  29  30
HETATM   30  C   UNL     1     -12.023   6.718  70.143  1.00  0.00    -0.185 C  
BRANCH  30  31
HETATM   31  N   UNL     1     -11.131   5.650  69.597  1.00  0.00    -0.243 NA 
HETATM   32  C   UNL     1     -10.519   6.070  68.325  1.00  0.00    -0.235 C  
HETATM   33  C   UNL     1      -9.585   5.088  67.619  1.00  0.00    -0.173 C  
HETATM   34  C   UNL     1      -8.253   4.933  68.325  1.00  0.00    -0.085 C  
HETATM   35  C   UNL     1      -8.269   3.914  69.454  1.00  0.00    -0.069 C  
HETATM   36  C   UNL     1      -9.542   3.858  70.290  1.00  0.00    -0.271 C  
HETATM   37  C   UNL     1     -10.172   5.216  70.620  1.00  0.00    -0.256 C  
ENDBRANCH  30  31
ENDBRANCH  29  30
ENDBRANCH  28  29
ENDBRANCH  26  28
ENDBRANCH  21  22
ENDBRANCH   5  21
TORSDOF 7
ENDMDL
MODEL      183
REMARK 921   NORMALIZED FREE ENERGY PREDICTED BY IDOCK:   -3.03 KCAL/MOL
REMARK 922        TOTAL FREE ENERGY PREDICTED BY IDOCK:   -7.34 KCAL/MOL
REMARK 923 INTER-LIGAND FREE ENERGY PREDICTED BY IDOCK:   -6.53 KCAL/MOL
REMARK 924 INTRA-LIGAND FREE ENERGY PREDICTED BY IDOCK:   -0.80 KCAL/MOL
REMARK 927      BINDING AFFINITY PREDICTED BY RF-SCORE:    0.00 PKD
ROOT
HETATM    1  C   UNL     1      -7.067   5.605  66.694  1.00  0.00    -0.069 C  
HETATM    2  C   UNL     1      -8.035   6.709  66.984  1.00  0.00    -0.109 A  
HETATM    3  C   UNL     1      -8.601   7.130  68.196  1.00  0.00    -0.129 A  
HETATM    4  C   UNL     1      -9.209   9.833  64.448  1.00  0.00    -0.301 A  
HETATM    5  N   UNL     1      -9.382   8.267  67.887  1.00  0.00    -0.138 NA 
HETATM    6  O   UNL     1      -8.489   8.803  62.469  1.00  0.00    -0.197 OA 
HETATM    7  C   UNL     1      -9.127   8.659  66.575  1.00  0.00    -0.165 A  
HETATM    8  C   UNL     1      -8.652   8.742  63.821  1.00  0.00    -0.042 A  
HETATM    9  C   UNL     1      -8.459   7.605  65.958  1.00  0.00    -0.149 A  
HETATM   10  H   UNL     1      -8.775   9.556  61.966  1.00  0.00     0.000 HD 
HETATM   11  C   UNL     1      -9.411   9.817  65.829  1.00  0.00    -0.300 A  
HETATM   12  C   UNL     1      -8.234   7.641  64.558  1.00  0.00    -0.053 A  
ENDROOT
BRANCH   3  13
HETATM   13  C   UNL     1      -8.431   6.536  69.554  1.00  0.00    -0.131 A  
HETATM   14  C   UNL     1      -8.052   5.264  72.054  1.00  0.00    -0.114 A  
HETATM   15  H   UNL     1      -8.424   3.860  73.473  1.00  0.00     0.000 HD 
HETATM   16  C   UNL     1      -9.246   5.470  69.973  1.00  0.00    -0.172 A  
HETATM   17  C   UNL     1      -9.038   4.815  71.193  1.00  0.00    -0.180 A  
HETATM   18  O   UNL     1      -7.884   4.605  73.234  1.00  0.00    -0.093 OA 
HETATM   19  C   UNL     1      -7.434   6.960  70.450  1.00  0.00    -0.086 A  
HETATM   20  C   UNL     1      -7.264   6.353  71.705  1.00  0.00    -0.087 A  
ENDBRANCH   3  13
BRANCH   5  21
HETATM   21  C   UNL     1     -10.327   8.913  68.837  1.00  0.00    -0.212 C  
BRANCH  21  22
HETATM   22  C   UNL     1     -10.524  10.404  68.717  1.00  0.00    -0.219 A  
HETATM   23  C   UNL     1     -12.020  12.289  68.495  1.00  0.00    -0.272 A  
HETATM   24  C   UNL     1      -9.671  12.624  68.165  1.00  0.00    -0.219 A  
HETATM   25  C   UNL     1     -11.809  10.942  68.775  1.00  0.00    -0.305 A  
HETATM   26  C   UNL     1     -10.967  13.112  68.080  1.00  0.00    -0.251 A  
HETATM   27  C   UNL     1      -9.459  11.306  68.567  1.00  0.00    -0.191 A  
BRANCH  26  28
HETATM   28  O   UNL     1     -11.120  14.383  67.562  1.00  0.00    -0.285 OA 
BRANCH  28  29
HETATM   29  C   UNL     1      -9.905  14.887  67.000  1.00  0.00    -0.237 C  
BRANCH  29  30
HETATM   30  C   UNL     1      -9.650  16.384  67.225  1.00  0.00    -0.234 C  
BRANCH  30  31
HETATM   31  N   UNL     1      -8.193  16.647  67.433  1.00  0.00    -0.166 NA 
HETATM   32  C   UNL     1      -7.575  17.191  66.211  1.00  0.00    -0.317 C  
HETATM   33  C   UNL     1      -6.080  17.505  66.243  1.00  0.00    -0.257 C  
HETATM   34  C   UNL     1      -5.754  18.731  67.073  1.00  0.00    -0.155 C  
HETATM   35  C   UNL     1      -5.600  18.445  68.558  1.00  0.00    -0.180 C  
HETATM   36  C   UNL     1      -6.546  17.404  69.145  1.00  0.00    -0.246 C  
HETATM   37  C   UNL     1      -7.990  17.467  68.634  1.00  0.00    -0.271 C  
ENDBRANCH  30  31
ENDBRANCH  29  30
ENDBRANCH  28  29
ENDBRANCH  26  28
ENDBRANCH  21  22
ENDBRANCH   5  21
TORSDOF 7
ENDMDL
MODEL      184
REMARK 921   NORMALIZED FREE ENERGY PREDICTED BY IDOCK:   -3.01 KCAL/MOL
REMARK 922        TOTAL FREE ENERGY PREDICTED BY IDOCK:   -7.31 KCAL/MOL
REMARK 923 INTER-LIGAND FREE ENERGY PREDICTED BY IDOCK:   -6.41 KCAL/MOL
REMARK 924 INTRA-LIGAND FREE ENERGY PREDICTED BY IDOCK:   -0.90 KCAL/MOL
REMARK 927      BINDING AFFINITY PREDICTED BY RF-SCORE:    0.00 PKD
ROOT
HETATM    1  C   UNL     1     -11.232   5.883  67.964  1.00  0.00     0.112 C  
HETATM    2  C   UNL     1     -10.011   6.469  68.602  1.00  0.00    -0.155 A  
HETATM    3  C   UNL     1      -9.227   7.570  68.229  1.00  0.00    -0.138 A  
HETATM    4  C   UNL     1      -8.464   5.666  72.414  1.00  0.00    -0.122 A  
HETATM    5  N   UNL     1      -8.250   7.713  69.241  1.00  0.00    -0.131 NA 
HETATM    6  O   UNL     1      -9.626   3.652  72.712  1.00  0.00    -0.120 OA 
HETATM    7  C   UNL     1      -8.562   6.870  70.305  1.00  0.00    -0.140 A  
HETATM    8  C   UNL     1      -9.324   4.715  71.914  1.00  0.00    -0.140 A  
HETATM    9  C   UNL     1      -9.518   5.970  69.845  1.00  0.00    -0.175 A  
HETATM   10  H   UNL     1      -9.237   3.548  73.573  1.00  0.00     0.000 HD 
HETATM   11  C   UNL     1      -8.111   6.768  71.634  1.00  0.00    -0.106 A  
HETATM   12  C   UNL     1      -9.891   4.868  70.656  1.00  0.00    -0.289 A  
ENDROOT
BRANCH   3  13
HETATM   13  C   UNL     1      -9.368   8.443  67.027  1.00  0.00    -0.202 A  
HETATM   14  C   UNL     1      -9.715   9.968  64.668  1.00  0.00    -0.269 A  
HETATM   15  H   UNL     1      -9.422  10.405  62.707  1.00  0.00     0.000 HD 
HETATM   16  C   UNL     1      -8.670   8.144  65.844  1.00  0.00    -0.184 A  
HETATM   17  C   UNL     1      -8.866   8.873  64.665  1.00  0.00    -0.098 A  
HETATM   18  O   UNL     1      -9.875  10.656  63.504  1.00  0.00    -0.307 OA 
HETATM   19  C   UNL     1     -10.226   9.555  66.992  1.00  0.00    -0.321 A  
HETATM   20  C   UNL     1     -10.376  10.334  65.833  1.00  0.00    -0.241 A  
ENDBRANCH   3  13
BRANCH   5  21
HETATM   21  C   UNL     1      -7.079   8.625  69.146  1.00  0.00    -0.063 C  
BRANCH  21  22
HETATM   22  C   UNL     1      -7.319  10.014  68.607  1.00  0.00    -0.081 A  
HETATM   23  C   UNL     1      -6.861  11.702  66.940  1.00  0.00    -0.129 A  
HETATM   24  C   UNL     1      -8.043  12.323  68.930  1.00  0.00     0.158 A  
HETATM   25  C   UNL     1      -6.794  10.380  67.369  1.00  0.00    -0.076 A  
HETATM   26  C   UNL     1      -7.387  12.701  67.767  1.00  0.00    -0.128 A  
HETATM   27  C   UNL     1      -8.079  10.977  69.291  1.00  0.00    -0.012 A  
BRANCH  26  28
HETATM   28  O   UNL     1      -7.281  14.057  67.525  1.00  0.00    -0.172 OA 
BRANCH  28  29
HETATM   29  C   UNL     1      -7.763  14.840  68.621  1.00  0.00    -0.130 C  
BRANCH  29  30
HETATM   30  C   UNL     1      -9.267  15.149  68.595  1.00  0.00    -0.196 C  
BRANCH  30  31
HETATM   31  N   UNL     1      -9.918  14.510  67.411  1.00  0.00    -0.227 NA 
HETATM   32  C   UNL     1     -11.187  13.865  67.789  1.00  0.00    -0.293 C  
HETATM   33  C   UNL     1     -11.980  13.147  66.698  1.00  0.00    -0.451 C  
HETATM   34  C   UNL     1     -12.641  14.105  65.726  1.00  0.00    -0.475 C  
HETATM   35  C   UNL     1     -11.733  14.558  64.595  1.00  0.00    -0.438 C  
HETATM   36  C   UNL     1     -10.270  14.790  64.959  1.00  0.00    -0.379 C  
HETATM   37  C   UNL     1     -10.030  15.473  66.310  1.00  0.00    -0.293 C  
ENDBRANCH  30  31
ENDBRANCH  29  30
ENDBRANCH  28  29
ENDBRANCH  26  28
ENDBRANCH  21  22
ENDBRANCH   5  21
TORSDOF 7
ENDMDL
MODEL      185
REMARK 921   NORMALIZED FREE ENERGY PREDICTED BY IDOCK:   -3.00 KCAL/MOL
REMARK 922        TOTAL FREE ENERGY PREDICTED BY IDOCK:   -7.30 KCAL/MOL
REMARK 923 INTER-LIGAND FREE ENERGY PREDICTED BY IDOCK:   -5.14 KCAL/MOL
REMARK 924 INTRA-LIGAND FREE ENERGY PREDICTED BY IDOCK:   -2.16 KCAL/MOL
REMARK 927      BINDING AFFINITY PREDICTED BY RF-SCORE:    0.00 PKD
ROOT
HETATM    1  C   UNL     1      -6.608   9.865  71.466  1.00  0.00     0.428 C  
HETATM    2  C   UNL     1      -6.895   9.168  70.174  1.00  0.00    -0.053 A  
HETATM    3  C   UNL     1      -6.832   9.634  68.853  1.00  0.00    -0.054 A  
HETATM    4  C   UNL     1      -7.399   5.058  69.526  1.00  0.00    -0.057 A  
HETATM    5  N   UNL     1      -7.130   8.522  68.032  1.00  0.00    -0.084 NA 
HETATM    6  O   UNL     1      -7.817   4.522  71.769  1.00  0.00    -0.090 OA 
HETATM    7  C   UNL     1      -7.155   7.368  68.812  1.00  0.00    -0.081 A  
HETATM    8  C   UNL     1      -7.564   5.474  70.827  1.00  0.00    -0.090 A  
HETATM    9  C   UNL     1      -7.206   7.776  70.142  1.00  0.00    -0.062 A  
HETATM   10  H   UNL     1      -7.907   3.605  71.541  1.00  0.00     0.000 HD 
HETATM   11  C   UNL     1      -7.152   5.992  68.519  1.00  0.00    -0.082 A  
HETATM   12  C   UNL     1      -7.431   6.816  71.161  1.00  0.00    -0.087 A  
ENDROOT
BRANCH   3  13
HETATM   13  C   UNL     1      -6.511  11.009  68.370  1.00  0.00    -0.057 A  
HETATM   14  C   UNL     1      -5.844  13.653  67.612  1.00  0.00    -0.053 A  
HETATM   15  H   UNL     1      -6.004  15.676  67.679  1.00  0.00     0.000 HD 
HETATM   16  C   UNL     1      -7.218  12.120  68.862  1.00  0.00    -0.079 A  
HETATM   17  C   UNL     1      -6.867  13.432  68.518  1.00  0.00    -0.099 A  
HETATM   18  O   UNL     1      -5.536  14.942  67.298  1.00  0.00    -0.306 OA 
HETATM   19  C   UNL     1      -5.473  11.272  67.460  1.00  0.00    -0.047 A  
HETATM   20  C   UNL     1      -5.161  12.580  67.056  1.00  0.00     0.139 A  
ENDBRANCH   3  13
BRANCH   5  21
HETATM   21  C   UNL     1      -7.380   8.609  66.569  1.00  0.00    -0.081 C  
BRANCH  21  22
HETATM   22  C   UNL     1      -8.541   9.457  66.110  1.00  0.00    -0.147 A  
HETATM   23  C   UNL     1      -9.464  11.028  64.523  1.00  0.00    -0.269 A  
HETATM   24  C   UNL     1     -10.639  10.617  66.571  1.00  0.00    -0.257 A  
HETATM   25  C   UNL     1      -8.480  10.111  64.880  1.00  0.00    -0.178 A  
HETATM   26  C   UNL     1     -10.488  11.369  65.414  1.00  0.00    -0.280 A  
HETATM   27  C   UNL     1      -9.717   9.613  66.861  1.00  0.00    -0.240 A  
BRANCH  26  28
HETATM   28  O   UNL     1     -11.361  12.426  65.241  1.00  0.00    -0.310 OA 
BRANCH  28  29
HETATM   29  C   UNL     1     -10.695  13.607  64.785  1.00  0.00    -0.410 C  
BRANCH  29  30
HETATM   30  C   UNL     1     -11.516  14.900  64.879  1.00  0.00    -0.407 C  
BRANCH  30  31
HETATM   31  N   UNL     1     -10.905  15.845  65.863  1.00  0.00    -0.276 NA 
HETATM   32  C   UNL     1      -9.694  15.266  66.470  1.00  0.00    -0.268 C  
HETATM   33  C   UNL     1      -8.948  16.095  67.515  1.00  0.00    -0.197 C  
HETATM   34  C   UNL     1      -8.204  17.270  66.911  1.00  0.00    -0.256 C  
HETATM   35  C   UNL     1      -9.063  18.509  66.720  1.00  0.00    -0.297 C  
HETATM   36  C   UNL     1     -10.507  18.268  66.292  1.00  0.00    -0.397 C  
HETATM   37  C   UNL     1     -10.706  17.163  65.249  1.00  0.00    -0.056 C  
ENDBRANCH  30  31
ENDBRANCH  29  30
ENDBRANCH  28  29
ENDBRANCH  26  28
ENDBRANCH  21  22
ENDBRANCH   5  21
TORSDOF 7
ENDMDL
MODEL      186
REMARK 921   NORMALIZED FREE ENERGY PREDICTED BY IDOCK:   -3.00 KCAL/MOL
REMARK 922        TOTAL FREE ENERGY PREDICTED BY IDOCK:   -7.29 KCAL/MOL
REMARK 923 INTER-LIGAND FREE ENERGY PREDICTED BY IDOCK:   -6.23 KCAL/MOL
REMARK 924 INTRA-LIGAND FREE ENERGY PREDICTED BY IDOCK:   -1.07 KCAL/MOL
REMARK 927      BINDING AFFINITY PREDICTED BY RF-SCORE:    0.00 PKD
ROOT
HETATM    1  C   UNL     1      -9.858  16.207  65.556  1.00  0.00    -0.190 C  
HETATM    2  C   UNL     1      -9.712  14.739  65.809  1.00  0.00    -0.347 A  
HETATM    3  C   UNL     1      -8.933  14.050  66.749  1.00  0.00    -0.197 A  
HETATM    4  C   UNL     1     -12.111  11.628  64.349  1.00  0.00    -0.085 A  
HETATM    5  N   UNL     1      -9.250  12.681  66.588  1.00  0.00    -0.228 NA 
HETATM    6  O   UNL     1     -13.064  12.873  62.607  1.00  0.00     0.220 OA 
HETATM    7  C   UNL     1     -10.345  12.559  65.735  1.00  0.00    -0.265 A  
HETATM    8  C   UNL     1     -12.191  12.811  63.651  1.00  0.00    -0.512 A  
HETATM    9  C   UNL     1     -10.509  13.789  65.104  1.00  0.00    -0.399 A  
HETATM   10  H   UNL     1     -13.582  12.121  62.344  1.00  0.00     0.000 HD 
HETATM   11  C   UNL     1     -11.222  11.506  65.418  1.00  0.00    -0.207 A  
HETATM   12  C   UNL     1     -11.434  13.910  64.036  1.00  0.00    -0.183 A  
ENDROOT
BRANCH   3  13
HETATM   13  C   UNL     1      -7.966  14.607  67.739  1.00  0.00    -0.166 A  
HETATM   14  C   UNL     1      -6.183  15.543  69.727  1.00  0.00    -0.159 A  
HETATM   15  H   UNL     1      -5.703  16.371  71.518  1.00  0.00     0.000 HD 
HETATM   16  C   UNL     1      -8.426  15.245  68.903  1.00  0.00    -0.202 A  
HETATM   17  C   UNL     1      -7.549  15.677  69.906  1.00  0.00     0.116 A  
HETATM   18  O   UNL     1      -5.361  15.981  70.721  1.00  0.00    -0.168 OA 
HETATM   19  C   UNL     1      -6.574  14.481  67.594  1.00  0.00    -0.174 A  
HETATM   20  C   UNL     1      -5.684  14.974  68.563  1.00  0.00    -0.098 A  
ENDBRANCH   3  13
BRANCH   5  21
HETATM   21  C   UNL     1      -8.503  11.570  67.236  1.00  0.00    -0.152 C  
BRANCH  21  22
HETATM   22  C   UNL     1      -9.266  10.679  68.185  1.00  0.00    -0.148 A  
HETATM   23  C   UNL     1     -11.167  10.336  69.637  1.00  0.00    -0.322 A  
HETATM   24  C   UNL     1      -9.343   8.785  69.724  1.00  0.00    -0.163 A  
HETATM   25  C   UNL     1     -10.529  11.061  68.634  1.00  0.00    -0.214 A  
HETATM   26  C   UNL     1     -10.529   9.260  70.265  1.00  0.00    -0.228 A  
HETATM   27  C   UNL     1      -8.772   9.445  68.637  1.00  0.00    -0.131 A  
BRANCH  26  28
HETATM   28  O   UNL     1     -10.982   8.640  71.413  1.00  0.00    -0.237 OA 
BRANCH  28  29
HETATM   29  C   UNL     1      -9.934   7.957  72.107  1.00  0.00    -0.207 C  
BRANCH  29  30
HETATM   30  C   UNL     1     -10.399   6.926  73.145  1.00  0.00    -0.266 C  
BRANCH  30  31
HETATM   31  N   UNL     1      -9.621   5.656  73.014  1.00  0.00    -0.150 NA 
HETATM   32  C   UNL     1      -8.496   5.624  73.965  1.00  0.00    -0.114 C  
HETATM   33  C   UNL     1      -7.584   4.399  73.956  1.00  0.00    -0.085 C  
HETATM   34  C   UNL     1      -8.246   3.169  74.544  1.00  0.00    -0.069 C  
HETATM   35  C   UNL     1      -9.093   2.391  73.549  1.00  0.00    -0.087 C  
HETATM   36  C   UNL     1      -9.876   3.222  72.539  1.00  0.00    -0.217 C  
HETATM   37  C   UNL     1     -10.519   4.498  73.095  1.00  0.00    -0.195 C  
ENDBRANCH  30  31
ENDBRANCH  29  30
ENDBRANCH  28  29
ENDBRANCH  26  28
ENDBRANCH  21  22
ENDBRANCH   5  21
TORSDOF 7
ENDMDL
MODEL      187
REMARK 921   NORMALIZED FREE ENERGY PREDICTED BY IDOCK:   -2.91 KCAL/MOL
REMARK 922        TOTAL FREE ENERGY PREDICTED BY IDOCK:   -7.17 KCAL/MOL
REMARK 923 INTER-LIGAND FREE ENERGY PREDICTED BY IDOCK:   -6.18 KCAL/MOL
REMARK 924 INTRA-LIGAND FREE ENERGY PREDICTED BY IDOCK:   -0.98 KCAL/MOL
REMARK 927      BINDING AFFINITY PREDICTED BY RF-SCORE:    0.00 PKD
ROOT
HETATM    1  C   UNL     1      -6.992  18.289  69.203  1.00  0.00    -0.230 C  
HETATM    2  C   UNL     1      -7.757  17.459  68.220  1.00  0.00    -0.241 A  
HETATM    3  C   UNL     1      -7.802  16.068  68.042  1.00  0.00    -0.137 A  
HETATM    4  C   UNL     1     -10.907  18.667  65.734  1.00  0.00    -0.093 A  
HETATM    5  N   UNL     1      -8.752  15.838  67.020  1.00  0.00    -0.206 NA 
HETATM    6  O   UNL     1     -10.458  20.962  65.895  1.00  0.00     0.107 OA 
HETATM    7  C   UNL     1      -9.424  17.025  66.739  1.00  0.00    -0.258 A  
HETATM    8  C   UNL     1     -10.116  19.683  66.219  1.00  0.00    -0.480 A  
HETATM    9  C   UNL     1      -8.693  18.055  67.324  1.00  0.00    -0.243 A  
HETATM   10  H   UNL     1     -11.197  21.154  65.330  1.00  0.00     0.000 HD 
HETATM   11  C   UNL     1     -10.594  17.339  66.023  1.00  0.00    -0.217 A  
HETATM   12  C   UNL     1      -9.035  19.403  67.045  1.00  0.00    -0.350 A  
ENDROOT
BRANCH   3  13
HETATM   13  C   UNL     1      -7.032  15.016  68.766  1.00  0.00    -0.107 A  
HETATM   14  C   UNL     1      -5.719  12.941  70.173  1.00  0.00    -0.148 A  
HETATM   15  H   UNL     1      -5.263  11.844  71.820  1.00  0.00     0.000 HD 
HETATM   16  C   UNL     1      -7.152  14.876  70.159  1.00  0.00     0.050 A  
HETATM   17  C   UNL     1      -6.534  13.829  70.854  1.00  0.00     0.393 A  
HETATM   18  O   UNL     1      -5.130  11.939  70.884  1.00  0.00    -0.110 OA 
HETATM   19  C   UNL     1      -6.204  14.091  68.106  1.00  0.00    -0.132 A  
HETATM   20  C   UNL     1      -5.525  13.080  68.806  1.00  0.00    -0.072 A  
ENDBRANCH   3  13
BRANCH   5  21
HETATM   21  C   UNL     1      -8.967  14.521  66.363  1.00  0.00    -0.118 C  
BRANCH  21  22
HETATM   22  C   UNL     1      -9.670  13.451  67.162  1.00  0.00    -0.237 A  
HETATM   23  C   UNL     1      -9.545  11.490  68.568  1.00  0.00    -0.180 A  
HETATM   24  C   UNL     1     -11.664  12.131  67.653  1.00  0.00    -0.386 A  
HETATM   25  C   UNL     1      -8.931  12.583  67.965  1.00  0.00    -0.192 A  
HETATM   26  C   UNL     1     -10.890  11.195  68.325  1.00  0.00    -0.212 A  
HETATM   27  C   UNL     1     -11.065  13.287  67.158  1.00  0.00    -0.308 A  
BRANCH  26  28
HETATM   28  O   UNL     1     -11.514  10.017  68.687  1.00  0.00    -0.120 OA 
BRANCH  28  29
HETATM   29  C   UNL     1     -10.587   8.939  68.840  1.00  0.00    -0.165 C  
BRANCH  29  30
HETATM   30  C   UNL     1     -11.006   7.849  69.837  1.00  0.00    -0.178 C  
BRANCH  30  31
HETATM   31  N   UNL     1     -10.848   6.491  69.233  1.00  0.00    -0.276 NA 
HETATM   32  C   UNL     1     -10.666   6.578  67.774  1.00  0.00    -0.296 C  
HETATM   33  C   UNL     1     -10.504   5.276  66.992  1.00  0.00    -0.290 C  
HETATM   34  C   UNL     1      -9.158   4.617  67.221  1.00  0.00    -0.132 C  
HETATM   35  C   UNL     1      -9.107   3.735  68.459  1.00  0.00    -0.196 C  
HETATM   36  C   UNL     1      -9.885   4.233  69.672  1.00  0.00    -0.244 C  
HETATM   37  C   UNL     1      -9.798   5.741  69.933  1.00  0.00    -0.179 C  
ENDBRANCH  30  31
ENDBRANCH  29  30
ENDBRANCH  28  29
ENDBRANCH  26  28
ENDBRANCH  21  22
ENDBRANCH   5  21
TORSDOF 7
ENDMDL
MODEL      188
REMARK 921   NORMALIZED FREE ENERGY PREDICTED BY IDOCK:   -2.88 KCAL/MOL
REMARK 922        TOTAL FREE ENERGY PREDICTED BY IDOCK:   -7.12 KCAL/MOL
REMARK 923 INTER-LIGAND FREE ENERGY PREDICTED BY IDOCK:   -5.17 KCAL/MOL
REMARK 924 INTRA-LIGAND FREE ENERGY PREDICTED BY IDOCK:   -1.95 KCAL/MOL
REMARK 927      BINDING AFFINITY PREDICTED BY RF-SCORE:    0.00 PKD
ROOT
HETATM    1  C   UNL     1     -13.145  12.377  69.854  1.00  0.00     1.156 C  
HETATM    2  C   UNL     1     -12.332  13.633  69.825  1.00  0.00    -0.285 A  
HETATM    3  C   UNL     1     -11.697  14.283  68.757  1.00  0.00    -0.343 A  
HETATM    4  C   UNL     1     -11.972  16.534  72.829  1.00  0.00    -0.484 A  
HETATM    5  N   UNL     1     -11.144  15.467  69.295  1.00  0.00    -0.264 NA 
HETATM    6  O   UNL     1     -12.758  15.165  74.562  1.00  0.00    -0.562 OA 
HETATM    7  C   UNL     1     -11.614  15.646  70.594  1.00  0.00    -0.367 A  
HETATM    8  C   UNL     1     -12.425  15.304  73.248  1.00  0.00    -0.486 A  
HETATM    9  C   UNL     1     -12.180  14.438  70.993  1.00  0.00    -0.422 A  
HETATM   10  H   UNL     1     -12.655  15.879  75.181  1.00  0.00     0.000 HD 
HETATM   11  C   UNL     1     -11.605  16.726  71.496  1.00  0.00     0.278 A  
HETATM   12  C   UNL     1     -12.575  14.260  72.343  1.00  0.00    -0.322 A  
ENDROOT
BRANCH   3  13
HETATM   13  C   UNL     1     -11.608  13.852  67.331  1.00  0.00    -0.398 A  
HETATM   14  C   UNL     1     -11.408  13.199  64.585  1.00  0.00    -0.333 A  
HETATM   15  H   UNL     1     -11.985  13.255  62.639  1.00  0.00     0.000 HD 
HETATM   16  C   UNL     1     -12.581  14.257  66.402  1.00  0.00    -0.159 A  
HETATM   17  C   UNL     1     -12.467  13.967  65.037  1.00  0.00    -0.446 A  
HETATM   18  O   UNL     1     -11.334  12.932  63.251  1.00  0.00    -0.392 OA 
HETATM   19  C   UNL     1     -10.542  13.081  66.836  1.00  0.00    -0.260 A  
HETATM   20  C   UNL     1     -10.457  12.727  65.479  1.00  0.00    -0.306 A  
ENDBRANCH   3  13
BRANCH   5  21
HETATM   21  C   UNL     1     -10.204  16.357  68.563  1.00  0.00    -0.257 C  
BRANCH  21  22
HETATM   22  C   UNL     1      -8.783  15.878  68.392  1.00  0.00    -0.183 A  
HETATM   23  C   UNL     1      -6.856  15.562  66.969  1.00  0.00     0.061 A  
HETATM   24  C   UNL     1      -6.903  14.499  69.115  1.00  0.00    -0.123 A  
HETATM   25  C   UNL     1      -8.099  16.142  67.206  1.00  0.00    -0.202 A  
HETATM   26  C   UNL     1      -6.302  14.649  67.874  1.00  0.00    -0.159 A  
HETATM   27  C   UNL     1      -8.086  15.182  69.393  1.00  0.00    -0.200 A  
BRANCH  26  28
HETATM   28  O   UNL     1      -5.201  13.856  67.615  1.00  0.00    -0.293 OA 
BRANCH  28  29
HETATM   29  C   UNL     1      -5.552  12.477  67.468  1.00  0.00    -0.131 C  
BRANCH  29  30
HETATM   30  C   UNL     1      -6.999  12.212  67.031  1.00  0.00    -0.068 C  
BRANCH  30  31
HETATM   31  N   UNL     1      -7.075  11.002  66.157  1.00  0.00    -0.097 NA 
HETATM   32  C   UNL     1      -6.514  11.276  64.823  1.00  0.00     1.248 C  
HETATM   33  C   UNL     1      -6.525  10.148  63.794  1.00  0.00    -0.125 C  
HETATM   34  C   UNL     1      -5.515   9.060  64.104  1.00  0.00    -0.060 C  
HETATM   35  C   UNL     1      -6.023   8.009  65.078  1.00  0.00    -0.045 C  
HETATM   36  C   UNL     1      -6.913   8.514  66.208  1.00  0.00    -0.077 C  
HETATM   37  C   UNL     1      -6.484   9.844  66.839  1.00  0.00    -0.066 C  
ENDBRANCH  30  31
ENDBRANCH  29  30
ENDBRANCH  28  29
ENDBRANCH  26  28
ENDBRANCH  21  22
ENDBRANCH   5  21
TORSDOF 7
ENDMDL
MODEL      189
REMARK 921   NORMALIZED FREE ENERGY PREDICTED BY IDOCK:   -2.83 KCAL/MOL
REMARK 922        TOTAL FREE ENERGY PREDICTED BY IDOCK:   -7.06 KCAL/MOL
REMARK 923 INTER-LIGAND FREE ENERGY PREDICTED BY IDOCK:   -6.85 KCAL/MOL
REMARK 924 INTRA-LIGAND FREE ENERGY PREDICTED BY IDOCK:   -0.21 KCAL/MOL
REMARK 927      BINDING AFFINITY PREDICTED BY RF-SCORE:    0.00 PKD
ROOT
HETATM    1  C   UNL     1      -9.530  17.363  66.748  1.00  0.00    -0.282 C  
HETATM    2  C   UNL     1      -9.490  15.867  66.738  1.00  0.00    -0.254 A  
HETATM    3  C   UNL     1      -8.765  14.970  67.536  1.00  0.00    -0.184 A  
HETATM    4  C   UNL     1     -12.098  13.237  64.777  1.00  0.00    -0.456 A  
HETATM    5  N   UNL     1      -9.177  13.677  67.141  1.00  0.00    -0.234 NA 
HETATM    6  O   UNL     1     -12.955  14.833  63.289  1.00  0.00    -0.097 OA 
HETATM    7  C   UNL     1     -10.275  13.784  66.290  1.00  0.00    -0.297 A  
HETATM    8  C   UNL     1     -12.091  14.527  64.299  1.00  0.00    -0.425 A  
HETATM    9  C   UNL     1     -10.350  15.113  65.885  1.00  0.00    -0.344 A  
HETATM   10  H   UNL     1     -13.524  14.177  62.903  1.00  0.00     0.000 HD 
HETATM   11  C   UNL     1     -11.224  12.867  65.801  1.00  0.00    -0.324 A  
HETATM   12  C   UNL     1     -11.259  15.485  64.863  1.00  0.00    -0.396 A  
ENDROOT
BRANCH   3  13
HETATM   13  C   UNL     1      -7.764  15.276  68.600  1.00  0.00    -0.135 A  
HETATM   14  C   UNL     1      -5.980  15.963  70.686  1.00  0.00     0.143 A  
HETATM   15  H   UNL     1      -4.796  17.227  71.745  1.00  0.00     0.000 HD 
HETATM   16  C   UNL     1      -7.181  16.552  68.684  1.00  0.00    -0.186 A  
HETATM   17  C   UNL     1      -6.327  16.907  69.735  1.00  0.00    -0.157 A  
HETATM   18  O   UNL     1      -5.142  16.344  71.690  1.00  0.00    -0.288 OA 
HETATM   19  C   UNL     1      -7.396  14.345  69.587  1.00  0.00     0.046 A  
HETATM   20  C   UNL     1      -6.486  14.672  70.605  1.00  0.00     0.014 A  
ENDBRANCH   3  13
BRANCH   5  21
HETATM   21  C   UNL     1      -8.514  12.420  67.578  1.00  0.00    -0.175 C  
BRANCH  21  22
HETATM   22  C   UNL     1      -9.357  11.405  68.310  1.00  0.00    -0.187 A  
HETATM   23  C   UNL     1     -11.349  10.886  69.575  1.00  0.00    -0.351 A  
HETATM   24  C   UNL     1      -9.580   9.272  69.477  1.00  0.00    -0.178 A  
HETATM   25  C   UNL     1     -10.632  11.751  68.754  1.00  0.00    -0.234 A  
HETATM   26  C   UNL     1     -10.781   9.691  70.032  1.00  0.00    -0.259 A  
HETATM   27  C   UNL     1      -8.927  10.091  68.557  1.00  0.00    -0.124 A  
BRANCH  26  28
HETATM   28  O   UNL     1     -11.319   8.894  71.024  1.00  0.00    -0.264 OA 
BRANCH  28  29
HETATM   29  C   UNL     1     -10.454   8.786  72.158  1.00  0.00    -0.314 C  
BRANCH  29  30
HETATM   30  C   UNL     1     -10.420   7.405  72.827  1.00  0.00    -0.275 C  
BRANCH  30  31
HETATM   31  N   UNL     1      -9.028   6.859  72.844  1.00  0.00    -0.126 NA 
HETATM   32  C   UNL     1      -8.111   7.725  72.084  1.00  0.00    -0.112 C  
HETATM   33  C   UNL     1      -6.645   7.306  71.986  1.00  0.00    -0.054 C  
HETATM   34  C   UNL     1      -5.894   7.487  73.290  1.00  0.00    -0.048 C  
HETATM   35  C   UNL     1      -6.036   6.315  74.249  1.00  0.00    -0.064 C  
HETATM   36  C   UNL     1      -7.402   5.639  74.287  1.00  0.00    -0.085 C  
HETATM   37  C   UNL     1      -8.605   6.586  74.223  1.00  0.00    -0.140 C  
ENDBRANCH  30  31
ENDBRANCH  29  30
ENDBRANCH  28  29
ENDBRANCH  26  28
ENDBRANCH  21  22
ENDBRANCH   5  21
TORSDOF 7
ENDMDL
MODEL      190
REMARK 921   NORMALIZED FREE ENERGY PREDICTED BY IDOCK:   -2.74 KCAL/MOL
REMARK 922        TOTAL FREE ENERGY PREDICTED BY IDOCK:   -6.92 KCAL/MOL
REMARK 923 INTER-LIGAND FREE ENERGY PREDICTED BY IDOCK:   -5.29 KCAL/MOL
REMARK 924 INTRA-LIGAND FREE ENERGY PREDICTED BY IDOCK:   -1.64 KCAL/MOL
REMARK 927      BINDING AFFINITY PREDICTED BY RF-SCORE:    0.00 PKD
ROOT
HETATM    1  C   UNL     1     -10.404  10.813  64.571  1.00  0.00    -0.401 C  
HETATM    2  C   UNL     1      -9.514  11.236  65.697  1.00  0.00    -0.254 A  
HETATM    3  C   UNL     1      -8.219  10.820  66.041  1.00  0.00    -0.164 A  
HETATM    4  C   UNL     1      -9.972  14.539  68.237  1.00  0.00    -0.229 A  
HETATM    5  N   UNL     1      -7.837  11.613  67.147  1.00  0.00    -0.156 NA 
HETATM    6  O   UNL     1     -12.246  14.869  67.773  1.00  0.00    -0.545 OA 
HETATM    7  C   UNL     1      -8.772  12.628  67.332  1.00  0.00    -0.191 A  
HETATM    8  C   UNL     1     -11.112  14.137  67.581  1.00  0.00    -0.282 A  
HETATM    9  C   UNL     1      -9.893  12.291  66.579  1.00  0.00    -0.240 A  
HETATM   10  H   UNL     1     -12.264  15.615  68.362  1.00  0.00     0.000 HD 
HETATM   11  C   UNL     1      -8.787  13.816  68.086  1.00  0.00    -0.185 A  
HETATM   12  C   UNL     1     -11.085  13.047  66.720  1.00  0.00    -0.316 A  
ENDROOT
BRANCH   3  13
HETATM   13  C   UNL     1      -7.382   9.768  65.395  1.00  0.00    -0.118 A  
HETATM   14  C   UNL     1      -5.939   7.695  64.117  1.00  0.00    -0.048 A  
HETATM   15  H   UNL     1      -5.335   5.775  63.851  1.00  0.00     0.000 HD 
HETATM   16  C   UNL     1      -7.381   8.453  65.891  1.00  0.00    -0.073 A  
HETATM   17  C   UNL     1      -6.698   7.417  65.241  1.00  0.00    -0.047 A  
HETATM   18  O   UNL     1      -5.284   6.663  63.517  1.00  0.00    -0.025 OA 
HETATM   19  C   UNL     1      -6.607  10.012  64.248  1.00  0.00    -0.130 A  
HETATM   20  C   UNL     1      -5.863   8.993  63.630  1.00  0.00    -0.076 A  
ENDBRANCH   3  13
BRANCH   5  21
HETATM   21  C   UNL     1      -6.621  11.367  67.969  1.00  0.00    -0.058 C  
BRANCH  21  22
HETATM   22  C   UNL     1      -6.731  10.366  69.093  1.00  0.00    -0.061 A  
HETATM   23  C   UNL     1      -5.834   8.453  70.264  1.00  0.00    -0.028 A  
HETATM   24  C   UNL     1      -8.064   9.176  70.756  1.00  0.00    -0.207 A  
HETATM   25  C   UNL     1      -5.678   9.489  69.348  1.00  0.00    -0.034 A  
HETATM   26  C   UNL     1      -7.063   8.224  70.891  1.00  0.00    -0.053 A  
HETATM   27  C   UNL     1      -7.854  10.280  69.931  1.00  0.00    -0.119 A  
BRANCH  26  28
HETATM   28  O   UNL     1      -7.374   7.096  71.625  1.00  0.00    -0.082 OA 
BRANCH  28  29
HETATM   29  C   UNL     1      -6.803   5.911  71.061  1.00  0.00    -0.065 C  
BRANCH  29  30
HETATM   30  C   UNL     1      -6.699   4.715  72.018  1.00  0.00    -0.042 C  
BRANCH  30  31
HETATM   31  N   UNL     1      -8.015   4.018  72.138  1.00  0.00    -0.082 NA 
HETATM   32  C   UNL     1      -7.844   2.651  72.660  1.00  0.00    -0.054 C  
HETATM   33  C   UNL     1      -9.093   1.787  72.833  1.00  0.00    -0.078 C  
HETATM   34  C   UNL     1      -9.957   2.231  73.997  1.00  0.00    -0.146 C  
HETATM   35  C   UNL     1     -10.928   3.348  73.651  1.00  0.00    -0.329 C  
HETATM   36  C   UNL     1     -10.416   4.409  72.684  1.00  0.00    -0.249 C  
HETATM   37  C   UNL     1      -8.962   4.844  72.897  1.00  0.00    -0.119 C  
ENDBRANCH  30  31
ENDBRANCH  29  30
ENDBRANCH  28  29
ENDBRANCH  26  28
ENDBRANCH  21  22
ENDBRANCH   5  21
TORSDOF 7
ENDMDL
MODEL      191
REMARK 921   NORMALIZED FREE ENERGY PREDICTED BY IDOCK:   -2.68 KCAL/MOL
REMARK 922        TOTAL FREE ENERGY PREDICTED BY IDOCK:   -6.84 KCAL/MOL
REMARK 923 INTER-LIGAND FREE ENERGY PREDICTED BY IDOCK:   -5.86 KCAL/MOL
REMARK 924 INTRA-LIGAND FREE ENERGY PREDICTED BY IDOCK:   -0.97 KCAL/MOL
REMARK 927      BINDING AFFINITY PREDICTED BY RF-SCORE:    0.00 PKD
ROOT
HETATM    1  C   UNL     1      -6.723   2.533  69.098  1.00  0.00    -0.033 C  
HETATM    2  C   UNL     1      -7.690   3.612  68.725  1.00  0.00    -0.052 A  
HETATM    3  C   UNL     1      -8.824   4.093  69.396  1.00  0.00    -0.094 A  
HETATM    4  C   UNL     1      -7.283   6.502  65.716  1.00  0.00    -0.070 A  
HETATM    5  N   UNL     1      -9.308   5.171  68.620  1.00  0.00    -0.119 NA 
HETATM    6  O   UNL     1      -5.602   5.369  64.538  1.00  0.00    -0.016 OA 
HETATM    7  C   UNL     1      -8.377   5.482  67.632  1.00  0.00    -0.100 A  
HETATM    8  C   UNL     1      -6.477   5.394  65.583  1.00  0.00    -0.040 A  
HETATM    9  C   UNL     1      -7.483   4.417  67.564  1.00  0.00    -0.073 A  
HETATM   10  H   UNL     1      -5.565   6.072  63.900  1.00  0.00     0.000 HD 
HETATM   11  C   UNL     1      -8.205   6.573  66.760  1.00  0.00    -0.110 A  
HETATM   12  C   UNL     1      -6.531   4.366  66.515  1.00  0.00    -0.037 A  
ENDROOT
BRANCH   3  13
HETATM   13  C   UNL     1      -9.424   3.601  70.671  1.00  0.00    -0.242 A  
HETATM   14  C   UNL     1     -10.408   2.600  73.127  1.00  0.00    -0.146 A  
HETATM   15  H   UNL     1     -10.925   1.136  74.436  1.00  0.00     0.000 HD 
HETATM   16  C   UNL     1      -9.609   2.225  70.887  1.00  0.00    -0.185 A  
HETATM   17  C   UNL     1     -10.061   1.723  72.114  1.00  0.00    -0.227 A  
HETATM   18  O   UNL     1     -10.850   2.074  74.304  1.00  0.00    -0.145 OA 
HETATM   19  C   UNL     1      -9.779   4.461  71.724  1.00  0.00    -0.236 A  
HETATM   20  C   UNL     1     -10.299   3.970  72.933  1.00  0.00    -0.238 A  
ENDBRANCH   3  13
BRANCH   5  21
HETATM   21  C   UNL     1     -10.616   5.841  68.848  1.00  0.00    -0.267 C  
BRANCH  21  22
HETATM   22  C   UNL     1     -10.631   7.350  68.871  1.00  0.00    -0.191 A  
HETATM   23  C   UNL     1     -10.608   9.407  70.139  1.00  0.00    -0.279 A  
HETATM   24  C   UNL     1     -11.131   9.487  67.802  1.00  0.00    -0.034 A  
HETATM   25  C   UNL     1     -10.426   8.029  70.071  1.00  0.00    -0.228 A  
HETATM   26  C   UNL     1     -11.069  10.128  69.031  1.00  0.00    -0.205 A  
HETATM   27  C   UNL     1     -10.826   8.129  67.720  1.00  0.00    -0.072 A  
BRANCH  26  28
HETATM   28  O   UNL     1     -11.497  11.440  69.071  1.00  0.00    -0.243 OA 
BRANCH  28  29
HETATM   29  C   UNL     1     -10.426  12.350  69.336  1.00  0.00     0.350 C  
BRANCH  29  30
HETATM   30  C   UNL     1      -9.963  13.186  68.134  1.00  0.00    -0.234 C  
BRANCH  30  31
HETATM   31  N   UNL     1     -10.533  12.645  66.862  1.00  0.00    -0.232 NA 
HETATM   32  C   UNL     1     -11.428  13.626  66.224  1.00  0.00    -0.333 C  
HETATM   33  C   UNL     1     -12.111  13.229  64.916  1.00  0.00    -0.440 C  
HETATM   34  C   UNL     1     -11.152  13.189  63.742  1.00  0.00    -0.274 C  
HETATM   35  C   UNL     1     -10.402  11.875  63.604  1.00  0.00    -0.477 C  
HETATM   36  C   UNL     1      -9.980  11.202  64.906  1.00  0.00    -0.331 C  
HETATM   37  C   UNL     1      -9.459  12.147  65.995  1.00  0.00    -0.207 C  
ENDBRANCH  30  31
ENDBRANCH  29  30
ENDBRANCH  28  29
ENDBRANCH  26  28
ENDBRANCH  21  22
ENDBRANCH   5  21
TORSDOF 7
ENDMDL
MODEL      192
REMARK 921   NORMALIZED FREE ENERGY PREDICTED BY IDOCK:   -2.53 KCAL/MOL
REMARK 922        TOTAL FREE ENERGY PREDICTED BY IDOCK:   -6.64 KCAL/MOL
REMARK 923 INTER-LIGAND FREE ENERGY PREDICTED BY IDOCK:   -4.23 KCAL/MOL
REMARK 924 INTRA-LIGAND FREE ENERGY PREDICTED BY IDOCK:   -2.40 KCAL/MOL
REMARK 927      BINDING AFFINITY PREDICTED BY RF-SCORE:    0.00 PKD
ROOT
HETATM    1  C   UNL     1     -10.084  12.133  68.048  1.00  0.00    -0.204 C  
HETATM    2  C   UNL     1      -9.321  11.608  66.874  1.00  0.00    -0.195 A  
HETATM    3  C   UNL     1      -8.227  10.732  66.816  1.00  0.00    -0.135 A  
HETATM    4  C   UNL     1     -10.372  11.812  62.822  1.00  0.00     0.219 A  
HETATM    5  N   UNL     1      -7.968  10.523  65.441  1.00  0.00    -0.150 NA 
HETATM    6  O   UNL     1     -11.943  13.533  63.080  1.00  0.00    -0.776 OA 
HETATM    7  C   UNL     1      -9.003  11.073  64.689  1.00  0.00    -0.072 A  
HETATM    8  C   UNL     1     -11.010  12.714  63.642  1.00  0.00    -0.416 A  
HETATM    9  C   UNL     1      -9.729  11.903  65.539  1.00  0.00    -0.237 A  
HETATM   10  H   UNL     1     -12.131  13.510  62.149  1.00  0.00     0.000 HD 
HETATM   11  C   UNL     1      -9.399  10.959  63.343  1.00  0.00    -0.308 A  
HETATM   12  C   UNL     1     -10.735  12.747  65.004  1.00  0.00    -0.321 A  
ENDROOT
BRANCH   3  13
HETATM   13  C   UNL     1      -7.471  10.118  67.946  1.00  0.00    -0.088 A  
HETATM   14  C   UNL     1      -6.135   9.043  70.197  1.00  0.00    -0.037 A  
HETATM   15  H   UNL     1      -4.972   9.140  71.859  1.00  0.00     0.000 HD 
HETATM   16  C   UNL     1      -6.633  10.905  68.754  1.00  0.00    -0.059 A  
HETATM   17  C   UNL     1      -5.999  10.386  69.890  1.00  0.00    -0.061 A  
HETATM   18  O   UNL     1      -5.498   8.574  71.306  1.00  0.00    -0.032 OA 
HETATM   19  C   UNL     1      -7.591   8.761  68.292  1.00  0.00    -0.096 A  
HETATM   20  C   UNL     1      -6.904   8.217  69.389  1.00  0.00    -0.043 A  
ENDBRANCH   3  13
BRANCH   5  21
HETATM   21  C   UNL     1      -6.763   9.827  64.916  1.00  0.00    -0.112 C  
BRANCH  21  22
HETATM   22  C   UNL     1      -6.945   8.430  64.377  1.00  0.00    -0.073 A  
HETATM   23  C   UNL     1      -8.086   6.302  64.466  1.00  0.00    -0.102 A  
HETATM   24  C   UNL     1      -6.096   6.499  63.147  1.00  0.00    -0.030 A  
HETATM   25  C   UNL     1      -8.007   7.645  64.824  1.00  0.00    -0.137 A  
HETATM   26  C   UNL     1      -7.072   5.695  63.717  1.00  0.00    -0.051 A  
HETATM   27  C   UNL     1      -6.095   7.868  63.410  1.00  0.00    -0.063 A  
BRANCH  26  28
HETATM   28  O   UNL     1      -6.951   4.333  63.518  1.00  0.00    -0.043 OA 
BRANCH  28  29
HETATM   29  C   UNL     1      -8.077   3.611  64.023  1.00  0.00    -0.089 C  
BRANCH  29  30
HETATM   30  C   UNL     1      -7.744   2.294  64.738  1.00  0.00    -0.073 C  
BRANCH  30  31
HETATM   31  N   UNL     1      -7.555   2.520  66.203  1.00  0.00    -0.071 NA 
HETATM   32  C   UNL     1      -6.158   2.873  66.508  1.00  0.00    -0.024 C  
HETATM   33  C   UNL     1      -5.783   3.125  67.968  1.00  0.00    -0.019 C  
HETATM   34  C   UNL     1      -6.335   4.434  68.498  1.00  0.00    -0.036 C  
HETATM   35  C   UNL     1      -7.763   4.338  69.010  1.00  0.00    -0.054 C  
HETATM   36  C   UNL     1      -8.698   3.423  68.227  1.00  0.00    -0.135 C  
HETATM   37  C   UNL     1      -8.547   3.480  66.702  1.00  0.00    -0.113 C  
ENDBRANCH  30  31
ENDBRANCH  29  30
ENDBRANCH  28  29
ENDBRANCH  26  28
ENDBRANCH  21  22
ENDBRANCH   5  21
TORSDOF 7
ENDMDL
MODEL      193
REMARK 921   NORMALIZED FREE ENERGY PREDICTED BY IDOCK:   -2.50 KCAL/MOL
REMARK 922        TOTAL FREE ENERGY PREDICTED BY IDOCK:   -6.58 KCAL/MOL
REMARK 923 INTER-LIGAND FREE ENERGY PREDICTED BY IDOCK:   -4.52 KCAL/MOL
REMARK 924 INTRA-LIGAND FREE ENERGY PREDICTED BY IDOCK:   -2.06 KCAL/MOL
REMARK 927      BINDING AFFINITY PREDICTED BY RF-SCORE:    0.00 PKD
ROOT
HETATM    1  C   UNL     1      -5.426  12.890  70.558  1.00  0.00    -0.163 C  
HETATM    2  C   UNL     1      -6.362  12.397  69.500  1.00  0.00    -0.116 A  
HETATM    3  C   UNL     1      -6.861  11.110  69.253  1.00  0.00    -0.110 A  
HETATM    4  C   UNL     1      -8.764  14.672  66.927  1.00  0.00    -0.251 A  
HETATM    5  N   UNL     1      -7.768  11.244  68.176  1.00  0.00    -0.106 NA 
HETATM    6  O   UNL     1      -7.581  16.674  67.221  1.00  0.00    -0.147 OA 
HETATM    7  C   UNL     1      -7.984  12.596  67.922  1.00  0.00    -0.156 A  
HETATM    8  C   UNL     1      -7.709  15.346  67.498  1.00  0.00    -0.181 A  
HETATM    9  C   UNL     1      -6.987  13.301  68.590  1.00  0.00    -0.101 A  
HETATM   10  H   UNL     1      -8.176  17.121  66.631  1.00  0.00     0.000 HD 
HETATM   11  C   UNL     1      -8.934  13.308  67.166  1.00  0.00    -0.229 A  
HETATM   12  C   UNL     1      -6.838  14.693  68.361  1.00  0.00    -0.102 A  
ENDROOT
BRANCH   3  13
HETATM   13  C   UNL     1      -6.535   9.838  69.961  1.00  0.00    -0.074 A  
HETATM   14  C   UNL     1      -5.764   7.493  71.345  1.00  0.00    -0.035 A  
HETATM   15  H   UNL     1      -4.634   5.835  71.657  1.00  0.00     0.000 HD 
HETATM   16  C   UNL     1      -5.536   8.982  69.467  1.00  0.00    -0.034 A  
HETATM   17  C   UNL     1      -5.126   7.841  70.167  1.00  0.00    -0.023 A  
HETATM   18  O   UNL     1      -5.342   6.372  71.994  1.00  0.00    -0.026 OA 
HETATM   19  C   UNL     1      -7.156   9.458  71.164  1.00  0.00    -0.013 A  
HETATM   20  C   UNL     1      -6.799   8.277  71.837  1.00  0.00    -0.084 A  
ENDBRANCH   3  13
BRANCH   5  21
HETATM   21  C   UNL     1      -8.372  10.097  67.447  1.00  0.00    -0.118 C  
BRANCH  21  22
HETATM   22  C   UNL     1      -9.153   9.091  68.256  1.00  0.00    -0.133 A  
HETATM   23  C   UNL     1      -9.868   6.808  68.598  1.00  0.00    -0.142 A  
HETATM   24  C   UNL     1     -10.930   8.558  69.842  1.00  0.00    -0.165 A  
HETATM   25  C   UNL     1      -9.029   7.730  67.979  1.00  0.00    -0.126 A  
HETATM   26  C   UNL     1     -10.896   7.228  69.448  1.00  0.00    -0.190 A  
HETATM   27  C   UNL     1     -10.005   9.455  69.311  1.00  0.00    -0.182 A  
BRANCH  26  28
HETATM   28  O   UNL     1     -11.911   6.415  69.915  1.00  0.00    -0.304 OA 
BRANCH  28  29
HETATM   29  C   UNL     1     -12.394   6.835  71.194  1.00  0.00    -0.333 C  
BRANCH  29  30
HETATM   30  C   UNL     1     -11.943   5.972  72.381  1.00  0.00    -0.179 C  
BRANCH  30  31
HETATM   31  N   UNL     1     -10.848   5.041  71.972  1.00  0.00    -0.137 NA 
HETATM   32  C   UNL     1      -9.532   5.697  72.064  1.00  0.00    -0.150 C  
HETATM   33  C   UNL     1      -8.297   4.890  71.667  1.00  0.00    -0.114 C  
HETATM   34  C   UNL     1      -7.945   3.818  72.680  1.00  0.00    -0.081 C  
HETATM   35  C   UNL     1      -8.706   2.516  72.488  1.00  0.00    -0.085 C  
HETATM   36  C   UNL     1     -10.159   2.646  72.046  1.00  0.00    -0.190 C  
HETATM   37  C   UNL     1     -10.950   3.777  72.712  1.00  0.00     0.063 C  
ENDBRANCH  30  31
ENDBRANCH  29  30
ENDBRANCH  28  29
ENDBRANCH  26  28
ENDBRANCH  21  22
ENDBRANCH   5  21
TORSDOF 7
ENDMDL
MODEL      194
REMARK 921   NORMALIZED FREE ENERGY PREDICTED BY IDOCK:   -2.44 KCAL/MOL
REMARK 922        TOTAL FREE ENERGY PREDICTED BY IDOCK:   -6.51 KCAL/MOL
REMARK 923 INTER-LIGAND FREE ENERGY PREDICTED BY IDOCK:   -5.47 KCAL/MOL
REMARK 924 INTRA-LIGAND FREE ENERGY PREDICTED BY IDOCK:   -1.04 KCAL/MOL
REMARK 927      BINDING AFFINITY PREDICTED BY RF-SCORE:    0.00 PKD
ROOT
HETATM    1  C   UNL     1      -7.065  18.047  69.508  1.00  0.00     0.090 C  
HETATM    2  C   UNL     1      -7.739  17.213  68.464  1.00  0.00    -0.248 A  
HETATM    3  C   UNL     1      -7.734  15.825  68.262  1.00  0.00    -0.132 A  
HETATM    4  C   UNL     1     -10.750  18.378  65.791  1.00  0.00    -0.161 A  
HETATM    5  N   UNL     1      -8.607  15.586  67.176  1.00  0.00    -0.198 NA 
HETATM    6  O   UNL     1     -10.377  20.681  66.017  1.00  0.00    -0.341 OA 
HETATM    7  C   UNL     1      -9.292  16.760  66.869  1.00  0.00    -0.236 A  
HETATM    8  C   UNL     1     -10.022  19.406  66.343  1.00  0.00    -0.414 A  
HETATM    9  C   UNL     1      -8.631  17.799  67.516  1.00  0.00    -0.228 A  
HETATM   10  H   UNL     1     -11.083  20.862  65.407  1.00  0.00     0.000 HD 
HETATM   11  C   UNL     1     -10.420  17.054  66.081  1.00  0.00    -0.274 A  
HETATM   12  C   UNL     1      -8.991  19.142  67.235  1.00  0.00    -0.329 A  
ENDROOT
BRANCH   3  13
HETATM   13  C   UNL     1      -6.984  14.782  69.020  1.00  0.00    -0.118 A  
HETATM   14  C   UNL     1      -5.712  12.750  70.524  1.00  0.00    -0.168 A  
HETATM   15  H   UNL     1      -5.130  11.826  72.236  1.00  0.00     0.000 HD 
HETATM   16  C   UNL     1      -6.898  14.842  70.422  1.00  0.00     0.111 A  
HETATM   17  C   UNL     1      -6.302  13.821  71.172  1.00  0.00     0.401 A  
HETATM   18  O   UNL     1      -5.136  11.779  71.287  1.00  0.00    -0.130 OA 
HETATM   19  C   UNL     1      -6.381  13.676  68.397  1.00  0.00    -0.098 A  
HETATM   20  C   UNL     1      -5.720  12.682  69.137  1.00  0.00    -0.076 A  
ENDBRANCH   3  13
BRANCH   5  21
HETATM   21  C   UNL     1      -8.741  14.275  66.487  1.00  0.00     0.023 C  
BRANCH  21  22
HETATM   22  C   UNL     1      -9.510  13.190  67.198  1.00  0.00    -0.239 A  
HETATM   23  C   UNL     1      -9.630  10.912  67.996  1.00  0.00    -0.170 A  
HETATM   24  C   UNL     1     -11.620  12.246  67.984  1.00  0.00    -0.408 A  
HETATM   25  C   UNL     1      -8.888  11.978  67.497  1.00  0.00    -0.172 A  
HETATM   26  C   UNL     1     -11.019  11.004  68.137  1.00  0.00    -0.247 A  
HETATM   27  C   UNL     1     -10.846  13.341  67.604  1.00  0.00    -0.273 A  
BRANCH  26  28
HETATM   28  O   UNL     1     -11.856   9.936  68.396  1.00  0.00     0.141 OA 
BRANCH  28  29
HETATM   29  C   UNL     1     -11.257   8.983  69.279  1.00  0.00     0.176 C  
BRANCH  29  30
HETATM   30  C   UNL     1     -11.765   9.021  70.727  1.00  0.00    -0.242 C  
BRANCH  30  31
HETATM   31  N   UNL     1     -10.692   8.595  71.676  1.00  0.00    -0.277 NA 
HETATM   32  C   UNL     1     -11.254   7.827  72.801  1.00  0.00    -0.398 C  
HETATM   33  C   UNL     1     -10.294   7.325  73.878  1.00  0.00    -0.281 C  
HETATM   34  C   UNL     1      -9.423   6.179  73.400  1.00  0.00    -0.141 C  
HETATM   35  C   UNL     1      -8.169   6.624  72.664  1.00  0.00    -0.108 C  
HETATM   36  C   UNL     1      -8.316   7.846  71.765  1.00  0.00    -0.144 C  
HETATM   37  C   UNL     1      -9.613   7.912  70.952  1.00  0.00    -0.161 C  
ENDBRANCH  30  31
ENDBRANCH  29  30
ENDBRANCH  28  29
ENDBRANCH  26  28
ENDBRANCH  21  22
ENDBRANCH   5  21
TORSDOF 7
ENDMDL
MODEL      195
REMARK 921   NORMALIZED FREE ENERGY PREDICTED BY IDOCK:   -2.37 KCAL/MOL
REMARK 922        TOTAL FREE ENERGY PREDICTED BY IDOCK:   -6.41 KCAL/MOL
REMARK 923 INTER-LIGAND FREE ENERGY PREDICTED BY IDOCK:   -5.77 KCAL/MOL
REMARK 924 INTRA-LIGAND FREE ENERGY PREDICTED BY IDOCK:   -0.64 KCAL/MOL
REMARK 927      BINDING AFFINITY PREDICTED BY RF-SCORE:    0.00 PKD
ROOT
HETATM    1  C   UNL     1      -7.027   2.807  68.906  1.00  0.00    -0.044 C  
HETATM    2  C   UNL     1      -7.907   3.712  68.100  1.00  0.00    -0.068 A  
HETATM    3  C   UNL     1      -9.004   4.495  68.485  1.00  0.00    -0.112 A  
HETATM    4  C   UNL     1      -7.262   5.131  64.210  1.00  0.00    -0.054 A  
HETATM    5  N   UNL     1      -9.400   5.206  67.329  1.00  0.00    -0.118 NA 
HETATM    6  O   UNL     1      -5.666   3.511  63.638  1.00  0.00    -0.013 OA 
HETATM    7  C   UNL     1      -8.442   5.034  66.333  1.00  0.00    -0.111 A  
HETATM    8  C   UNL     1      -6.542   4.010  64.555  1.00  0.00    -0.043 A  
HETATM    9  C   UNL     1      -7.632   3.972  66.725  1.00  0.00    -0.088 A  
HETATM   10  H   UNL     1      -5.572   3.899  62.776  1.00  0.00     0.000 HD 
HETATM   11  C   UNL     1      -8.182   5.674  65.107  1.00  0.00    -0.136 A  
HETATM   12  C   UNL     1      -6.681   3.443  65.816  1.00  0.00    -0.041 A  
ENDROOT
BRANCH   3  13
HETATM   13  C   UNL     1      -9.647   4.593  69.828  1.00  0.00    -0.258 A  
HETATM   14  C   UNL     1     -10.712   4.754  72.445  1.00  0.00    -0.149 A  
HETATM   15  H   UNL     1     -11.187   4.026  74.280  1.00  0.00     0.000 HD 
HETATM   16  C   UNL     1      -9.722   3.467  70.667  1.00  0.00    -0.196 A  
HETATM   17  C   UNL     1     -10.214   3.551  71.975  1.00  0.00    -0.130 A  
HETATM   18  O   UNL     1     -11.188   4.794  73.721  1.00  0.00    -0.298 OA 
HETATM   19  C   UNL     1     -10.154   5.799  70.341  1.00  0.00    -0.271 A  
HETATM   20  C   UNL     1     -10.713   5.876  71.628  1.00  0.00    -0.308 A  
ENDBRANCH   3  13
BRANCH   5  21
HETATM   21  C   UNL     1     -10.654   5.998  67.226  1.00  0.00    -0.294 C  
BRANCH  21  22
HETATM   22  C   UNL     1     -10.525   7.499  67.137  1.00  0.00    -0.407 A  
HETATM   23  C   UNL     1     -10.864   9.675  68.132  1.00  0.00    -0.241 A  
HETATM   24  C   UNL     1     -10.271   9.536  65.815  1.00  0.00    -0.107 A  
HETATM   25  C   UNL     1     -10.813   8.289  68.249  1.00  0.00     0.025 A  
HETATM   26  C   UNL     1     -10.703  10.299  66.890  1.00  0.00    -0.184 A  
HETATM   27  C   UNL     1     -10.101   8.161  65.973  1.00  0.00     0.301 A  
BRANCH  26  28
HETATM   28  O   UNL     1     -10.967  11.632  66.640  1.00  0.00    -0.274 OA 
BRANCH  28  29
HETATM   29  C   UNL     1      -9.789  12.439  66.715  1.00  0.00    -0.222 C  
BRANCH  29  30
HETATM   30  C   UNL     1      -9.552  13.129  68.066  1.00  0.00    -0.220 C  
BRANCH  30  31
HETATM   31  N   UNL     1     -10.847  13.566  68.672  1.00  0.00    -0.254 NA 
HETATM   32  C   UNL     1     -11.254  12.661  69.760  1.00  0.00     0.075 C  
HETATM   33  C   UNL     1     -12.568  12.953  70.483  1.00  0.00    -0.204 C  
HETATM   34  C   UNL     1     -12.483  14.166  71.389  1.00  0.00    -0.438 C  
HETATM   35  C   UNL     1     -12.726  15.485  70.674  1.00  0.00    -0.487 C  
HETATM   36  C   UNL     1     -12.167  15.597  69.260  1.00  0.00    -0.167 C  
HETATM   37  C   UNL     1     -10.779  14.982  69.052  1.00  0.00    -0.239 C  
ENDBRANCH  30  31
ENDBRANCH  29  30
ENDBRANCH  28  29
ENDBRANCH  26  28
ENDBRANCH  21  22
ENDBRANCH   5  21
TORSDOF 7
ENDMDL
MODEL      196
REMARK 921   NORMALIZED FREE ENERGY PREDICTED BY IDOCK:   -2.23 KCAL/MOL
REMARK 922        TOTAL FREE ENERGY PREDICTED BY IDOCK:   -6.21 KCAL/MOL
REMARK 923 INTER-LIGAND FREE ENERGY PREDICTED BY IDOCK:   -5.24 KCAL/MOL
REMARK 924 INTRA-LIGAND FREE ENERGY PREDICTED BY IDOCK:   -0.97 KCAL/MOL
REMARK 927      BINDING AFFINITY PREDICTED BY RF-SCORE:    0.00 PKD
ROOT
HETATM    1  C   UNL     1      -9.854  16.571  65.141  1.00  0.00     0.576 C  
HETATM    2  C   UNL     1     -10.472  15.799  66.264  1.00  0.00    -0.315 A  
HETATM    3  C   UNL     1     -10.859  14.454  66.341  1.00  0.00    -0.314 A  
HETATM    4  C   UNL     1     -10.828  16.943  70.281  1.00  0.00     0.219 A  
HETATM    5  N   UNL     1     -11.309  14.253  67.666  1.00  0.00    -0.308 NA 
HETATM    6  O   UNL     1     -10.485  19.230  69.898  1.00  0.00    -0.163 OA 
HETATM    7  C   UNL     1     -11.000  15.374  68.432  1.00  0.00    -0.284 A  
HETATM    8  C   UNL     1     -10.613  17.971  69.392  1.00  0.00     0.478 A  
HETATM    9  C   UNL     1     -10.668  16.395  67.546  1.00  0.00    -0.298 A  
HETATM   10  H   UNL     1     -10.570  19.406  70.828  1.00  0.00     0.000 HD 
HETATM   11  C   UNL     1     -10.980  15.637  69.815  1.00  0.00    -0.307 A  
HETATM   12  C   UNL     1     -10.489  17.715  68.032  1.00  0.00    -0.395 A  
ENDROOT
BRANCH   3  13
HETATM   13  C   UNL     1     -10.813  13.414  65.272  1.00  0.00    -0.318 A  
HETATM   14  C   UNL     1     -10.765  11.325  63.363  1.00  0.00    -0.274 A  
HETATM   15  H   UNL     1     -10.055   9.613  62.535  1.00  0.00     0.000 HD 
HETATM   16  C   UNL     1      -9.807  12.432  65.275  1.00  0.00    -0.180 A  
HETATM   17  C   UNL     1      -9.801  11.376  64.355  1.00  0.00    -0.303 A  
HETATM   18  O   UNL     1     -10.722  10.286  62.483  1.00  0.00     1.105 OA 
HETATM   19  C   UNL     1     -11.780  13.326  64.256  1.00  0.00    -0.454 A  
HETATM   20  C   UNL     1     -11.741  12.309  63.287  1.00  0.00    -0.451 A  
ENDBRANCH   3  13
BRANCH   5  21
HETATM   21  C   UNL     1     -12.007  13.025  68.132  1.00  0.00    -0.280 C  
BRANCH  21  22
HETATM   22  C   UNL     1     -11.214  12.044  68.960  1.00  0.00    -0.313 A  
HETATM   23  C   UNL     1      -9.236  10.684  69.237  1.00  0.00    -0.121 A  
HETATM   24  C   UNL     1     -11.099  10.339  70.703  1.00  0.00    -0.358 A  
HETATM   25  C   UNL     1      -9.913  11.711  68.586  1.00  0.00    -0.192 A  
HETATM   26  C   UNL     1      -9.866   9.919  70.225  1.00  0.00    -0.179 A  
HETATM   27  C   UNL     1     -11.718  11.447  70.127  1.00  0.00    -0.414 A  
BRANCH  26  28
HETATM   28  O   UNL     1      -9.361   8.747  70.753  1.00  0.00    -0.174 OA 
BRANCH  28  29
HETATM   29  C   UNL     1      -9.162   8.833  72.167  1.00  0.00    -0.178 C  
BRANCH  29  30
HETATM   30  C   UNL     1      -8.221   7.776  72.762  1.00  0.00    -0.126 C  
BRANCH  30  31
HETATM   31  N   UNL     1      -8.480   6.435  72.154  1.00  0.00    -0.112 NA 
HETATM   32  C   UNL     1      -9.893   6.048  72.306  1.00  0.00    -0.160 C  
HETATM   33  C   UNL     1     -10.330   4.693  71.752  1.00  0.00    -0.208 C  
HETATM   34  C   UNL     1     -10.383   4.668  70.237  1.00  0.00    -0.084 C  
HETATM   35  C   UNL     1      -9.045   4.367  69.579  1.00  0.00    -0.175 C  
HETATM   36  C   UNL     1      -7.815   4.967  70.251  1.00  0.00    -0.070 C  
HETATM   37  C   UNL     1      -7.985   6.399  70.772  1.00  0.00    -0.111 C  
ENDBRANCH  30  31
ENDBRANCH  29  30
ENDBRANCH  28  29
ENDBRANCH  26  28
ENDBRANCH  21  22
ENDBRANCH   5  21
TORSDOF 7
ENDMDL
MODEL      197
REMARK 921   NORMALIZED FREE ENERGY PREDICTED BY IDOCK:   -2.17 KCAL/MOL
REMARK 922        TOTAL FREE ENERGY PREDICTED BY IDOCK:   -6.12 KCAL/MOL
REMARK 923 INTER-LIGAND FREE ENERGY PREDICTED BY IDOCK:   -5.34 KCAL/MOL
REMARK 924 INTRA-LIGAND FREE ENERGY PREDICTED BY IDOCK:   -0.79 KCAL/MOL
REMARK 927      BINDING AFFINITY PREDICTED BY RF-SCORE:    0.00 PKD
ROOT
HETATM    1  C   UNL     1      -9.734  11.711  64.718  1.00  0.00    -0.217 C  
HETATM    2  C   UNL     1      -9.194  11.125  65.984  1.00  0.00    -0.223 A  
HETATM    3  C   UNL     1      -8.888  11.733  67.211  1.00  0.00    -0.167 A  
HETATM    4  C   UNL     1      -8.886   7.076  67.021  1.00  0.00    -0.124 A  
HETATM    5  N   UNL     1      -8.488  10.687  68.074  1.00  0.00    -0.117 NA 
HETATM    6  O   UNL     1      -9.085   6.264  64.831  1.00  0.00    -0.326 OA 
HETATM    7  C   UNL     1      -8.753   9.461  67.467  1.00  0.00    -0.122 A  
HETATM    8  C   UNL     1      -9.016   7.332  65.675  1.00  0.00     0.047 A  
HETATM    9  C   UNL     1      -9.000   9.718  66.121  1.00  0.00    -0.181 A  
HETATM   10  H   UNL     1      -9.016   5.371  65.148  1.00  0.00     0.000 HD 
HETATM   11  C   UNL     1      -8.797   8.133  67.928  1.00  0.00    -0.131 A  
HETATM   12  C   UNL     1      -9.116   8.637  65.211  1.00  0.00    -0.100 A  
ENDROOT
BRANCH   3  13
HETATM   13  C   UNL     1      -8.964  13.178  67.574  1.00  0.00    -0.197 A  
HETATM   14  C   UNL     1      -9.149  15.871  68.422  1.00  0.00    -0.189 A  
HETATM   15  H   UNL     1     -10.119  17.511  69.124  1.00  0.00     0.000 HD 
HETATM   16  C   UNL     1     -10.196  13.765  67.908  1.00  0.00    -0.245 A  
HETATM   17  C   UNL     1     -10.287  15.086  68.363  1.00  0.00    -0.231 A  
HETATM   18  O   UNL     1      -9.278  17.153  68.864  1.00  0.00    -0.262 OA 
HETATM   19  C   UNL     1      -7.828  14.002  67.653  1.00  0.00    -0.185 A  
HETATM   20  C   UNL     1      -7.920  15.348  68.042  1.00  0.00    -0.134 A  
ENDBRANCH   3  13
BRANCH   5  21
HETATM   21  C   UNL     1      -7.875  10.899  69.413  1.00  0.00    -0.040 C  
BRANCH  21  22
HETATM   22  C   UNL     1      -7.798   9.710  70.340  1.00  0.00    -0.181 A  
HETATM   23  C   UNL     1      -8.819   8.341  72.049  1.00  0.00    -0.256 A  
HETATM   24  C   UNL     1      -6.492   8.049  71.562  1.00  0.00    -0.041 A  
HETATM   25  C   UNL     1      -8.922   9.322  71.068  1.00  0.00    -0.225 A  
HETATM   26  C   UNL     1      -7.581   7.779  72.378  1.00  0.00    -0.089 A  
HETATM   27  C   UNL     1      -6.634   8.942  70.501  1.00  0.00    -0.049 A  
BRANCH  26  28
HETATM   28  O   UNL     1      -7.348   6.983  73.482  1.00  0.00    -0.077 OA 
BRANCH  28  29
HETATM   29  C   UNL     1      -6.790   5.715  73.126  1.00  0.00    -0.079 C  
BRANCH  29  30
HETATM   30  C   UNL     1      -7.619   4.890  72.131  1.00  0.00    -0.089 C  
BRANCH  30  31
HETATM   31  N   UNL     1      -8.474   3.898  72.850  1.00  0.00    -0.094 NA 
HETATM   32  C   UNL     1      -9.567   4.568  73.575  1.00  0.00    -0.116 C  
HETATM   33  C   UNL     1     -10.533   3.700  74.381  1.00  0.00    -0.261 C  
HETATM   34  C   UNL     1     -11.474   2.899  73.502  1.00  0.00    -0.196 C  
HETATM   35  C   UNL     1     -10.890   1.582  73.017  1.00  0.00    -0.240 C  
HETATM   36  C   UNL     1      -9.406   1.592  72.668  1.00  0.00    -0.112 C  
HETATM   37  C   UNL     1      -8.914   2.842  71.929  1.00  0.00    -0.085 C  
ENDBRANCH  30  31
ENDBRANCH  29  30
ENDBRANCH  28  29
ENDBRANCH  26  28
ENDBRANCH  21  22
ENDBRANCH   5  21
TORSDOF 7
ENDMDL
MODEL      198
REMARK 921   NORMALIZED FREE ENERGY PREDICTED BY IDOCK:   -2.12 KCAL/MOL
REMARK 922        TOTAL FREE ENERGY PREDICTED BY IDOCK:   -6.06 KCAL/MOL
REMARK 923 INTER-LIGAND FREE ENERGY PREDICTED BY IDOCK:   -5.21 KCAL/MOL
REMARK 924 INTRA-LIGAND FREE ENERGY PREDICTED BY IDOCK:   -0.84 KCAL/MOL
REMARK 927      BINDING AFFINITY PREDICTED BY RF-SCORE:    0.00 PKD
ROOT
HETATM    1  C   UNL     1      -6.528   5.300  66.469  1.00  0.00    -0.044 C  
HETATM    2  C   UNL     1      -7.611   6.226  66.929  1.00  0.00    -0.099 A  
HETATM    3  C   UNL     1      -8.161   6.422  68.204  1.00  0.00    -0.113 A  
HETATM    4  C   UNL     1      -9.294   9.451  64.848  1.00  0.00    -0.218 A  
HETATM    5  N   UNL     1      -9.093   7.476  68.067  1.00  0.00    -0.132 NA 
HETATM    6  O   UNL     1      -8.554   8.767  62.731  1.00  0.00    -0.317 OA 
HETATM    7  C   UNL     1      -8.956   8.052  66.806  1.00  0.00    -0.144 A  
HETATM    8  C   UNL     1      -8.639   8.525  64.069  1.00  0.00     0.054 A  
HETATM    9  C   UNL     1      -8.195   7.175  66.038  1.00  0.00    -0.129 A  
HETATM   10  H   UNL     1      -8.958   9.532  62.336  1.00  0.00     0.000 HD 
HETATM   11  C   UNL     1      -9.421   9.245  66.222  1.00  0.00    -0.284 A  
HETATM   12  C   UNL     1      -8.049   7.407  64.647  1.00  0.00    -0.092 A  
ENDROOT
BRANCH   3  13
HETATM   13  C   UNL     1      -7.848   5.697  69.470  1.00  0.00    -0.092 A  
HETATM   14  C   UNL     1      -7.189   4.194  71.775  1.00  0.00    -0.054 A  
HETATM   15  H   UNL     1      -7.332   2.606  73.032  1.00  0.00     0.000 HD 
HETATM   16  C   UNL     1      -8.527   4.512  69.799  1.00  0.00    -0.087 A  
HETATM   17  C   UNL     1      -8.180   3.746  70.918  1.00  0.00    -0.078 A  
HETATM   18  O   UNL     1      -6.884   3.425  72.858  1.00  0.00    -0.035 OA 
HETATM   19  C   UNL     1      -6.843   6.118  70.357  1.00  0.00    -0.054 A  
HETATM   20  C   UNL     1      -6.536   5.392  71.520  1.00  0.00    -0.040 A  
ENDBRANCH   3  13
BRANCH   5  21
HETATM   21  C   UNL     1     -10.060   7.876  69.124  1.00  0.00    -0.197 C  
BRANCH  21  22
HETATM   22  C   UNL     1     -10.446   9.333  69.201  1.00  0.00    -0.231 A  
HETATM   23  C   UNL     1     -12.171  11.024  69.257  1.00  0.00    -0.280 A  
HETATM   24  C   UNL     1      -9.896  11.695  68.918  1.00  0.00    -0.057 A  
HETATM   25  C   UNL     1     -11.784   9.691  69.357  1.00  0.00     0.260 A  
HETATM   26  C   UNL     1     -11.245  12.019  68.926  1.00  0.00    -0.261 A  
HETATM   27  C   UNL     1      -9.507  10.375  69.143  1.00  0.00    -0.220 A  
BRANCH  26  28
HETATM   28  O   UNL     1     -11.575  13.315  68.579  1.00  0.00    -0.287 OA 
BRANCH  28  29
HETATM   29  C   UNL     1     -10.469  14.019  68.008  1.00  0.00    -0.241 C  
BRANCH  29  30
HETATM   30  C   UNL     1     -10.840  15.130  67.015  1.00  0.00    -0.314 C  
BRANCH  30  31
HETATM   31  N   UNL     1     -10.786  16.470  67.675  1.00  0.00    -0.329 NA 
HETATM   32  C   UNL     1     -10.067  16.399  68.959  1.00  0.00    -0.262 C  
HETATM   33  C   UNL     1      -9.931  17.682  69.777  1.00  0.00     0.476 C  
HETATM   34  C   UNL     1      -8.950  18.665  69.168  1.00  0.00    -0.001 C  
HETATM   35  C   UNL     1      -9.558  19.558  68.099  1.00  0.00    -0.457 C  
HETATM   36  C   UNL     1     -10.591  18.907  67.186  1.00  0.00    -0.531 C  
HETATM   37  C   UNL     1     -10.265  17.476  66.742  1.00  0.00    -0.327 C  
ENDBRANCH  30  31
ENDBRANCH  29  30
ENDBRANCH  28  29
ENDBRANCH  26  28
ENDBRANCH  21  22
ENDBRANCH   5  21
TORSDOF 7
ENDMDL
MODEL      199
REMARK 921   NORMALIZED FREE ENERGY PREDICTED BY IDOCK:   -1.80 KCAL/MOL
REMARK 922        TOTAL FREE ENERGY PREDICTED BY IDOCK:   -5.60 KCAL/MOL
REMARK 923 INTER-LIGAND FREE ENERGY PREDICTED BY IDOCK:   -4.64 KCAL/MOL
REMARK 924 INTRA-LIGAND FREE ENERGY PREDICTED BY IDOCK:   -0.96 KCAL/MOL
REMARK 927      BINDING AFFINITY PREDICTED BY RF-SCORE:    0.00 PKD
ROOT
HETATM    1  C   UNL     1      -9.743  11.685  64.722  1.00  0.00    -0.217 C  
HETATM    2  C   UNL     1      -9.267  11.022  65.977  1.00  0.00    -0.213 A  
HETATM    3  C   UNL     1      -9.206  11.502  67.293  1.00  0.00    -0.167 A  
HETATM    4  C   UNL     1      -8.442   6.958  66.587  1.00  0.00    -0.121 A  
HETATM    5  N   UNL     1      -8.748  10.420  68.080  1.00  0.00    -0.123 NA 
HETATM    6  O   UNL     1      -8.254   6.420  64.313  1.00  0.00    -0.246 OA 
HETATM    7  C   UNL     1      -8.743   9.259  67.310  1.00  0.00    -0.128 A  
HETATM    8  C   UNL     1      -8.454   7.367  65.273  1.00  0.00    -0.056 A  
HETATM    9  C   UNL     1      -8.870   9.652  65.981  1.00  0.00    -0.178 A  
HETATM   10  H   UNL     1      -8.082   5.512  64.535  1.00  0.00     0.000 HD 
HETATM   11  C   UNL     1      -8.628   7.889  67.610  1.00  0.00    -0.127 A  
HETATM   12  C   UNL     1      -8.706   8.694  64.948  1.00  0.00    -0.126 A  
ENDROOT
BRANCH   3  13
HETATM   13  C   UNL     1      -9.552  12.861  67.802  1.00  0.00    -0.212 A  
HETATM   14  C   UNL     1     -10.117  15.506  68.635  1.00  0.00    -0.210 A  
HETATM   15  H   UNL     1      -9.639  17.350  69.335  1.00  0.00     0.000 HD 
HETATM   16  C   UNL     1      -8.556  13.698  68.333  1.00  0.00    -0.151 A  
HETATM   17  C   UNL     1      -8.824  15.019  68.712  1.00  0.00    -0.192 A  
HETATM   18  O   UNL     1     -10.340  16.793  69.019  1.00  0.00    -0.287 OA 
HETATM   19  C   UNL     1     -10.851  13.391  67.730  1.00  0.00    -0.267 A  
HETATM   20  C   UNL     1     -11.143  14.691  68.173  1.00  0.00    -0.285 A  
ENDBRANCH   3  13
BRANCH   5  21
HETATM   21  C   UNL     1      -8.336  10.541  69.504  1.00  0.00    -0.061 C  
BRANCH  21  22
HETATM   22  C   UNL     1      -8.165   9.264  70.291  1.00  0.00    -0.187 A  
HETATM   23  C   UNL     1      -9.159   7.376  71.425  1.00  0.00    -0.146 A  
HETATM   24  C   UNL     1      -6.823   7.815  71.726  1.00  0.00    -0.059 A  
HETATM   25  C   UNL     1      -9.272   8.460  70.559  1.00  0.00    -0.165 A  
HETATM   26  C   UNL     1      -7.961   7.114  72.099  1.00  0.00    -0.091 A  
HETATM   27  C   UNL     1      -6.920   8.819  70.764  1.00  0.00    -0.066 A  
BRANCH  26  28
HETATM   28  O   UNL     1      -7.825   6.216  73.140  1.00  0.00    -0.103 OA 
BRANCH  28  29
HETATM   29  C   UNL     1      -6.727   5.322  72.941  1.00  0.00    -0.071 C  
BRANCH  29  30
HETATM   30  C   UNL     1      -7.093   3.958  72.337  1.00  0.00    -0.051 C  
BRANCH  30  31
HETATM   31  N   UNL     1      -7.220   4.054  70.851  1.00  0.00    -0.037 NA 
HETATM   32  C   UNL     1      -5.896   4.047  70.206  1.00  0.00    -0.017 C  
HETATM   33  C   UNL     1      -5.839   4.154  68.683  1.00  0.00    -0.025 C  
HETATM   34  C   UNL     1      -6.295   2.886  67.988  1.00  0.00    -0.032 C  
HETATM   35  C   UNL     1      -7.801   2.795  67.802  1.00  0.00    -0.060 C  
HETATM   36  C   UNL     1      -8.654   3.344  68.940  1.00  0.00    -0.120 C  
HETATM   37  C   UNL     1      -8.145   3.031  70.352  1.00  0.00    -0.041 C  
ENDBRANCH  30  31
ENDBRANCH  29  30
ENDBRANCH  28  29
ENDBRANCH  26  28
ENDBRANCH  21  22
ENDBRANCH   5  21
TORSDOF 7
ENDMDL
MODEL      200
REMARK 921   NORMALIZED FREE ENERGY PREDICTED BY IDOCK:   -1.71 KCAL/MOL
REMARK 922        TOTAL FREE ENERGY PREDICTED BY IDOCK:   -5.47 KCAL/MOL
REMARK 923 INTER-LIGAND FREE ENERGY PREDICTED BY IDOCK:   -4.55 KCAL/MOL
REMARK 924 INTRA-LIGAND FREE ENERGY PREDICTED BY IDOCK:   -0.92 KCAL/MOL
REMARK 927      BINDING AFFINITY PREDICTED BY RF-SCORE:    0.00 PKD
ROOT
HETATM    1  C   UNL     1      -9.051  15.173  66.263  1.00  0.00    -0.313 C  
HETATM    2  C   UNL     1      -9.918  13.975  66.496  1.00  0.00    -0.289 A  
HETATM    3  C   UNL     1     -10.817  13.690  67.533  1.00  0.00    -0.264 A  
HETATM    4  C   UNL     1     -10.828  10.894  63.804  1.00  0.00    -0.027 A  
HETATM    5  N   UNL     1     -11.417  12.454  67.199  1.00  0.00    -0.335 NA 
HETATM    6  O   UNL     1      -9.042  11.328  62.349  1.00  0.00    -0.395 OA 
HETATM    7  C   UNL     1     -11.062  12.107  65.898  1.00  0.00    -0.318 A  
HETATM    8  C   UNL     1      -9.706  11.630  63.500  1.00  0.00    -0.322 A  
HETATM    9  C   UNL     1      -9.997  12.925  65.533  1.00  0.00    -0.226 A  
HETATM   10  H   UNL     1      -9.320  10.616  61.784  1.00  0.00     0.000 HD 
HETATM   11  C   UNL     1     -11.536  11.153  64.978  1.00  0.00     0.355 A  
HETATM   12  C   UNL     1      -9.299  12.671  64.326  1.00  0.00     0.666 A  
ENDROOT
BRANCH   3  13
HETATM   13  C   UNL     1     -11.116  14.500  68.750  1.00  0.00    -0.267 A  
HETATM   14  C   UNL     1     -11.514  16.042  71.090  1.00  0.00    -0.419 A  
HETATM   15  H   UNL     1     -11.465  16.385  73.090  1.00  0.00     0.000 HD 
HETATM   16  C   UNL     1     -10.895  13.969  70.032  1.00  0.00     0.255 A  
HETATM   17  C   UNL     1     -11.055  14.739  71.190  1.00  0.00     0.015 A  
HETATM   18  O   UNL     1     -11.663  16.758  72.239  1.00  0.00    -0.375 OA 
HETATM   19  C   UNL     1     -11.573  15.828  68.685  1.00  0.00    -0.392 A  
HETATM   20  C   UNL     1     -11.803  16.585  69.845  1.00  0.00     0.448 A  
ENDBRANCH   3  13
BRANCH   5  21
HETATM   21  C   UNL     1     -12.281  11.670  68.122  1.00  0.00     0.299 C  
BRANCH  21  22
HETATM   22  C   UNL     1     -11.657  10.492  68.828  1.00  0.00    -0.252 A  
HETATM   23  C   UNL     1     -11.510   9.086  70.788  1.00  0.00    -0.331 A  
HETATM   24  C   UNL     1      -9.825   8.900  69.095  1.00  0.00    -0.180 A  
HETATM   25  C   UNL     1     -12.178  10.056  70.046  1.00  0.00    -0.039 A  
HETATM   26  C   UNL     1     -10.273   8.584  70.370  1.00  0.00    -0.195 A  
HETATM   27  C   UNL     1     -10.566   9.779  68.306  1.00  0.00    -0.271 A  
BRANCH  26  28
HETATM   28  O   UNL     1      -9.438   7.805  71.147  1.00  0.00    -0.153 OA 
BRANCH  28  29
HETATM   29  C   UNL     1      -9.767   6.416  71.068  1.00  0.00    -0.176 C  
BRANCH  29  30
HETATM   30  C   UNL     1     -10.420   5.970  69.752  1.00  0.00    -0.255 C  
BRANCH  30  31
HETATM   31  N   UNL     1      -9.955   4.603  69.367  1.00  0.00    -0.205 NA 
HETATM   32  C   UNL     1      -8.883   4.674  68.359  1.00  0.00    -0.105 C  
HETATM   33  C   UNL     1      -8.299   3.361  67.839  1.00  0.00    -0.095 C  
HETATM   34  C   UNL     1      -7.427   2.660  68.863  1.00  0.00    -0.047 C  
HETATM   35  C   UNL     1      -8.202   1.787  69.836  1.00  0.00    -0.060 C  
HETATM   36  C   UNL     1      -9.559   2.319  70.284  1.00  0.00    -0.093 C  
HETATM   37  C   UNL     1      -9.614   3.825  70.564  1.00  0.00    -0.192 C  
ENDBRANCH  30  31
ENDBRANCH  29  30
ENDBRANCH  28  29
ENDBRANCH  26  28
ENDBRANCH  21  22
ENDBRANCH   5  21
TORSDOF 7
ENDMDL
MODEL      201
REMARK 921   NORMALIZED FREE ENERGY PREDICTED BY IDOCK:   -1.70 KCAL/MOL
REMARK 922        TOTAL FREE ENERGY PREDICTED BY IDOCK:   -5.46 KCAL/MOL
REMARK 923 INTER-LIGAND FREE ENERGY PREDICTED BY IDOCK:   -3.27 KCAL/MOL
REMARK 924 INTRA-LIGAND FREE ENERGY PREDICTED BY IDOCK:   -2.19 KCAL/MOL
REMARK 927      BINDING AFFINITY PREDICTED BY RF-SCORE:    0.00 PKD
ROOT
HETATM    1  C   UNL     1      -8.099  11.671  67.333  1.00  0.00    -0.153 C  
HETATM    2  C   UNL     1      -7.557  10.301  67.076  1.00  0.00    -0.099 A  
HETATM    3  C   UNL     1      -6.849   9.428  67.915  1.00  0.00    -0.075 A  
HETATM    4  C   UNL     1      -8.404   7.762  63.850  1.00  0.00     0.107 A  
HETATM    5  N   UNL     1      -6.661   8.240  67.173  1.00  0.00    -0.062 NA 
HETATM    6  O   UNL     1      -9.257   9.443  62.456  1.00  0.00    -0.449 OA 
HETATM    7  C   UNL     1      -7.419   8.302  66.006  1.00  0.00    -0.077 A  
HETATM    8  C   UNL     1      -8.689   9.093  63.644  1.00  0.00    -0.125 A  
HETATM    9  C   UNL     1      -7.812   9.627  65.844  1.00  0.00    -0.102 A  
HETATM   10  H   UNL     1      -9.427   8.801  61.776  1.00  0.00     0.000 HD 
HETATM   11  C   UNL     1      -7.809   7.352  65.043  1.00  0.00    -0.124 A  
HETATM   12  C   UNL     1      -8.440  10.030  64.638  1.00  0.00    -0.182 A  
ENDROOT
BRANCH   3  13
HETATM   13  C   UNL     1      -6.380   9.664  69.312  1.00  0.00    -0.044 A  
HETATM   14  C   UNL     1      -5.592  10.248  71.967  1.00  0.00     0.270 A  
HETATM   15  H   UNL     1      -4.717  11.369  73.416  1.00  0.00     0.000 HD 
HETATM   16  C   UNL     1      -5.587  10.783  69.619  1.00  0.00    -0.041 A  
HETATM   17  C   UNL     1      -5.226  11.096  70.935  1.00  0.00    -0.117 A  
HETATM   18  O   UNL     1      -5.217  10.582  73.232  1.00  0.00    -0.326 OA 
HETATM   19  C   UNL     1      -6.739   8.830  70.384  1.00  0.00    -0.043 A  
HETATM   20  C   UNL     1      -6.323   9.098  71.699  1.00  0.00    -0.037 A  
ENDBRANCH   3  13
BRANCH   5  21
HETATM   21  C   UNL     1      -5.778   7.122  67.598  1.00  0.00    -0.028 C  
BRANCH  21  22
HETATM   22  C   UNL     1      -6.440   5.856  68.083  1.00  0.00    -0.046 A  
HETATM   23  C   UNL     1      -8.118   4.784  69.452  1.00  0.00    -0.070 A  
HETATM   24  C   UNL     1      -6.396   3.445  68.462  1.00  0.00    -0.033 A  
HETATM   25  C   UNL     1      -7.597   5.930  68.858  1.00  0.00    -0.090 A  
HETATM   26  C   UNL     1      -7.458   3.555  69.349  1.00  0.00    -0.048 A  
HETATM   27  C   UNL     1      -5.957   4.574  67.774  1.00  0.00    -0.023 A  
BRANCH  26  28
HETATM   28  O   UNL     1      -7.769   2.431  70.090  1.00  0.00    -0.043 OA 
BRANCH  28  29
HETATM   29  C   UNL     1      -9.171   2.329  70.353  1.00  0.00    -0.119 C  
BRANCH  29  30
HETATM   30  C   UNL     1      -9.545   2.059  71.817  1.00  0.00    -0.129 C  
BRANCH  30  31
HETATM   31  N   UNL     1      -9.661   3.340  72.578  1.00  0.00    -0.121 NA 
HETATM   32  C   UNL     1      -8.333   3.849  72.963  1.00  0.00    -0.092 C  
HETATM   33  C   UNL     1      -8.267   5.149  73.764  1.00  0.00    -0.109 C  
HETATM   34  C   UNL     1      -8.604   6.370  72.930  1.00  0.00    -0.124 C  
HETATM   35  C   UNL     1     -10.094   6.653  72.829  1.00  0.00    -0.195 C  
HETATM   36  C   UNL     1     -11.005   5.435  72.729  1.00  0.00    -0.328 C  
HETATM   37  C   UNL     1     -10.488   4.300  71.838  1.00  0.00     0.009 C  
ENDBRANCH  30  31
ENDBRANCH  29  30
ENDBRANCH  28  29
ENDBRANCH  26  28
ENDBRANCH  21  22
ENDBRANCH   5  21
TORSDOF 7
ENDMDL
MODEL      202
REMARK 921   NORMALIZED FREE ENERGY PREDICTED BY IDOCK:   -1.62 KCAL/MOL
REMARK 922        TOTAL FREE ENERGY PREDICTED BY IDOCK:   -5.35 KCAL/MOL
REMARK 923 INTER-LIGAND FREE ENERGY PREDICTED BY IDOCK:   -3.85 KCAL/MOL
REMARK 924 INTRA-LIGAND FREE ENERGY PREDICTED BY IDOCK:   -1.50 KCAL/MOL
REMARK 927      BINDING AFFINITY PREDICTED BY RF-SCORE:    0.00 PKD
ROOT
HETATM    1  C   UNL     1      -9.863  16.677  65.078  1.00  0.00     0.987 C  
HETATM    2  C   UNL     1     -10.586  16.014  66.208  1.00  0.00    -0.288 A  
HETATM    3  C   UNL     1     -11.173  14.743  66.293  1.00  0.00    -0.343 A  
HETATM    4  C   UNL     1     -10.742  17.216  70.220  1.00  0.00     0.546 A  
HETATM    5  N   UNL     1     -11.642  14.619  67.622  1.00  0.00    -0.349 NA 
HETATM    6  O   UNL     1     -10.056  19.422  69.824  1.00  0.00    -0.404 OA 
HETATM    7  C   UNL     1     -11.161  15.684  68.381  1.00  0.00    -0.326 A  
HETATM    8  C   UNL     1     -10.377  18.195  69.325  1.00  0.00     0.113 A  
HETATM    9  C   UNL     1     -10.682  16.638  67.488  1.00  0.00    -0.278 A  
HETATM   10  H   UNL     1     -10.108  19.613  70.753  1.00  0.00     0.000 HD 
HETATM   11  C   UNL     1     -11.095  15.947  69.762  1.00  0.00    -0.324 A  
HETATM   12  C   UNL     1     -10.301  17.917  67.966  1.00  0.00    -0.394 A  
ENDROOT
BRANCH   3  13
HETATM   13  C   UNL     1     -11.292  13.704  65.229  1.00  0.00    -0.306 A  
HETATM   14  C   UNL     1     -11.580  11.626  63.330  1.00  0.00    -0.237 A  
HETATM   15  H   UNL     1     -11.172   9.807  62.525  1.00  0.00     0.000 HD 
HETATM   16  C   UNL     1     -10.480  12.557  65.259  1.00  0.00    -0.313 A  
HETATM   17  C   UNL     1     -10.644  11.510  64.344  1.00  0.00    -0.392 A  
HETATM   18  O   UNL     1     -11.706  10.590  62.455  1.00  0.00     2.107 OA 
HETATM   19  C   UNL     1     -12.237  13.784  64.192  1.00  0.00    -0.443 A  
HETATM   20  C   UNL     1     -12.360  12.770  63.228  1.00  0.00    -0.437 A  
ENDBRANCH   3  13
BRANCH   5  21
HETATM   21  C   UNL     1     -12.517  13.515  68.097  1.00  0.00     0.353 C  
BRANCH  21  22
HETATM   22  C   UNL     1     -11.860  12.372  68.831  1.00  0.00    -0.350 A  
HETATM   23  C   UNL     1     -10.265  10.557  68.844  1.00  0.00    -0.223 A  
HETATM   24  C   UNL     1     -11.869  10.708  70.617  1.00  0.00    -0.463 A  
HETATM   25  C   UNL     1     -10.769  11.716  68.262  1.00  0.00    -0.246 A  
HETATM   26  C   UNL     1     -10.882   9.985  69.962  1.00  0.00    -0.302 A  
HETATM   27  C   UNL     1     -12.284  11.932  70.095  1.00  0.00    -0.319 A  
BRANCH  26  28
HETATM   28  O   UNL     1     -10.599   8.728  70.458  1.00  0.00    -0.201 OA 
BRANCH  28  29
HETATM   29  C   UNL     1     -10.072   8.778  71.787  1.00  0.00    -0.333 C  
BRANCH  29  30
HETATM   30  C   UNL     1      -9.483   7.459  72.309  1.00  0.00    -0.146 C  
BRANCH  30  31
HETATM   31  N   UNL     1      -8.010   7.587  72.527  1.00  0.00    -0.099 NA 
HETATM   32  C   UNL     1      -7.321   7.961  71.279  1.00  0.00    -0.068 C  
HETATM   33  C   UNL     1      -5.802   8.120  71.318  1.00  0.00    -0.034 C  
HETATM   34  C   UNL     1      -5.361   9.371  72.053  1.00  0.00    -0.076 C  
HETATM   35  C   UNL     1      -5.258   9.195  73.559  1.00  0.00    -0.105 C  
HETATM   36  C   UNL     1      -6.316   8.309  74.207  1.00  0.00    -0.142 C  
HETATM   37  C   UNL     1      -7.738   8.478  73.661  1.00  0.00    -0.008 C  
ENDBRANCH  30  31
ENDBRANCH  29  30
ENDBRANCH  28  29
ENDBRANCH  26  28
ENDBRANCH  21  22
ENDBRANCH   5  21
TORSDOF 7
ENDMDL
MODEL      203
REMARK 921   NORMALIZED FREE ENERGY PREDICTED BY IDOCK:   -1.45 KCAL/MOL
REMARK 922        TOTAL FREE ENERGY PREDICTED BY IDOCK:   -5.11 KCAL/MOL
REMARK 923 INTER-LIGAND FREE ENERGY PREDICTED BY IDOCK:   -8.34 KCAL/MOL
REMARK 924 INTRA-LIGAND FREE ENERGY PREDICTED BY IDOCK:    3.23 KCAL/MOL
REMARK 927      BINDING AFFINITY PREDICTED BY RF-SCORE:    0.00 PKD
ROOT
HETATM    1  C   UNL     1     -10.548   5.747  70.782  1.00  0.00    -0.337 C  
HETATM    2  C   UNL     1     -10.405   7.213  70.517  1.00  0.00    -0.215 A  
HETATM    3  C   UNL     1      -9.538   7.903  69.658  1.00  0.00    -0.164 A  
HETATM    4  C   UNL     1     -13.021  10.295  71.625  1.00  0.00    -0.570 A  
HETATM    5  N   UNL     1      -9.900   9.267  69.753  1.00  0.00    -0.178 NA 
HETATM    6  O   UNL     1     -14.144   9.059  73.272  1.00  0.00    -1.218 OA 
HETATM    7  C   UNL     1     -11.088   9.379  70.471  1.00  0.00    -0.273 A  
HETATM    8  C   UNL     1     -13.157   9.123  72.334  1.00  0.00    -0.423 A  
HETATM    9  C   UNL     1     -11.298   8.158  71.105  1.00  0.00    -0.299 A  
HETATM   10  H   UNL     1     -14.704   9.804  73.457  1.00  0.00     0.000 HD 
HETATM   11  C   UNL     1     -12.018  10.417  70.663  1.00  0.00    -0.448 A  
HETATM   12  C   UNL     1     -12.337   8.034  72.062  1.00  0.00    -0.366 A  
ENDROOT
BRANCH   3  13
HETATM   13  C   UNL     1      -8.451   7.351  68.798  1.00  0.00    -0.129 A  
HETATM   14  C   UNL     1      -6.331   6.462  67.148  1.00  0.00    -0.037 A  
HETATM   15  H   UNL     1      -5.294   6.328  65.407  1.00  0.00     0.000 HD 
HETATM   16  C   UNL     1      -8.412   7.640  67.423  1.00  0.00    -0.122 A  
HETATM   17  C   UNL     1      -7.347   7.234  66.611  1.00  0.00    -0.080 A  
HETATM   18  O   UNL     1      -5.315   6.081  66.325  1.00  0.00    -0.009 OA 
HETATM   19  C   UNL     1      -7.399   6.572  69.310  1.00  0.00    -0.093 A  
HETATM   20  C   UNL     1      -6.362   6.102  68.488  1.00  0.00    -0.040 A  
ENDBRANCH   3  13
BRANCH   5  21
HETATM   21  C   UNL     1      -9.107  10.383  69.171  1.00  0.00    -0.187 C  
BRANCH  21  22
HETATM   22  C   UNL     1      -9.861  11.597  68.690  1.00  0.00    -0.173 A  
HETATM   23  C   UNL     1     -11.920  12.582  67.896  1.00  0.00    -0.283 A  
HETATM   24  C   UNL     1      -9.887  13.838  67.721  1.00  0.00    -0.234 A  
HETATM   25  C   UNL     1     -11.241  11.528  68.499  1.00  0.00    -0.315 A  
HETATM   26  C   UNL     1     -11.230  13.695  67.402  1.00  0.00    -0.302 A  
HETATM   27  C   UNL     1      -9.241  12.831  68.436  1.00  0.00    -0.136 A  
BRANCH  26  28
HETATM   28  O   UNL     1     -11.783  14.667  66.591  1.00  0.00    -0.372 OA 
BRANCH  28  29
HETATM   29  C   UNL     1     -10.823  15.650  66.194  1.00  0.00    -0.264 C  
BRANCH  29  30
HETATM   30  C   UNL     1      -9.788  15.178  65.163  1.00  0.00    -0.135 C  
BRANCH  30  31
HETATM   31  N   UNL     1     -10.364  14.115  64.284  1.00  0.00    -0.043 NA 
HETATM   32  C   UNL     1      -9.757  12.804  64.572  1.00  0.00     0.117 C  
HETATM   33  C   UNL     1     -10.221  11.602  63.751  1.00  0.00    -0.430 C  
HETATM   34  C   UNL     1     -11.620  11.146  64.116  1.00  0.00     0.322 C  
HETATM   35  C   UNL     1     -12.723  11.907  63.397  1.00  0.00    -0.496 C  
HETATM   36  C   UNL     1     -12.480  13.396  63.179  1.00  0.00     0.018 C  
HETATM   37  C   UNL     1     -11.830  14.134  64.355  1.00  0.00    -0.428 C  
ENDBRANCH  30  31
ENDBRANCH  29  30
ENDBRANCH  28  29
ENDBRANCH  26  28
ENDBRANCH  21  22
ENDBRANCH   5  21
TORSDOF 7
ENDMDL
MODEL      204
REMARK 921   NORMALIZED FREE ENERGY PREDICTED BY IDOCK:   -1.38 KCAL/MOL
REMARK 922        TOTAL FREE ENERGY PREDICTED BY IDOCK:   -5.01 KCAL/MOL
REMARK 923 INTER-LIGAND FREE ENERGY PREDICTED BY IDOCK:   -3.96 KCAL/MOL
REMARK 924 INTRA-LIGAND FREE ENERGY PREDICTED BY IDOCK:   -1.04 KCAL/MOL
REMARK 927      BINDING AFFINITY PREDICTED BY RF-SCORE:    0.00 PKD
ROOT
HETATM    1  C   UNL     1     -11.835  15.710  68.774  1.00  0.00    -0.336 C  
HETATM    2  C   UNL     1     -10.474  15.442  68.213  1.00  0.00    -0.241 A  
HETATM    3  C   UNL     1      -9.822  14.230  67.946  1.00  0.00    -0.226 A  
HETATM    4  C   UNL     1      -7.886  18.151  66.335  1.00  0.00    -0.295 A  
HETATM    5  N   UNL     1      -8.588  14.575  67.346  1.00  0.00    -0.188 NA 
HETATM    6  O   UNL     1      -8.932  20.078  67.164  1.00  0.00    -0.318 OA 
HETATM    7  C   UNL     1      -8.584  15.937  67.054  1.00  0.00    -0.216 A  
HETATM    8  C   UNL     1      -8.865  18.718  67.118  1.00  0.00    -0.278 A  
HETATM    9  C   UNL     1      -9.644  16.508  67.753  1.00  0.00    -0.232 A  
HETATM   10  H   UNL     1      -8.309  20.625  66.699  1.00  0.00     0.000 HD 
HETATM   11  C   UNL     1      -7.764  16.763  66.263  1.00  0.00    -0.310 A  
HETATM   12  C   UNL     1      -9.775  17.919  67.798  1.00  0.00    -0.283 A  
ENDROOT
BRANCH   3  13
HETATM   13  C   UNL     1     -10.299  12.842  68.214  1.00  0.00    -0.248 A  
HETATM   14  C   UNL     1     -11.352  10.276  68.777  1.00  0.00    -0.167 A  
HETATM   15  H   UNL     1     -12.073   8.814  69.988  1.00  0.00     0.000 HD 
HETATM   16  C   UNL     1     -10.531  12.410  69.532  1.00  0.00     0.478 A  
HETATM   17  C   UNL     1     -11.087  11.156  69.812  1.00  0.00    -0.271 A  
HETATM   18  O   UNL     1     -11.886   9.063  69.090  1.00  0.00     0.754 OA 
HETATM   19  C   UNL     1     -10.587  11.926  67.188  1.00  0.00    -0.264 A  
HETATM   20  C   UNL     1     -11.079  10.640  67.465  1.00  0.00    -0.367 A  
ENDBRANCH   3  13
BRANCH   5  21
HETATM   21  C   UNL     1      -7.486  13.610  67.090  1.00  0.00     0.108 C  
BRANCH  21  22
HETATM   22  C   UNL     1      -7.009  12.773  68.252  1.00  0.00    -0.097 A  
HETATM   23  C   UNL     1      -5.441  12.431  70.058  1.00  0.00    -0.112 A  
HETATM   24  C   UNL     1      -6.900  10.637  69.430  1.00  0.00    -0.095 A  
HETATM   25  C   UNL     1      -6.008  13.257  69.093  1.00  0.00    -0.088 A  
HETATM   26  C   UNL     1      -5.806  11.084  70.157  1.00  0.00    -0.117 A  
HETATM   27  C   UNL     1      -7.543  11.510  68.553  1.00  0.00    -0.130 A  
BRANCH  26  28
HETATM   28  O   UNL     1      -5.139  10.142  70.916  1.00  0.00    -0.048 OA 
BRANCH  28  29
HETATM   29  C   UNL     1      -5.341  10.337  72.319  1.00  0.00     0.172 C  
BRANCH  29  30
HETATM   30  C   UNL     1      -6.340   9.374  72.977  1.00  0.00     0.527 C  
BRANCH  30  31
HETATM   31  N   UNL     1      -7.224   8.745  71.950  1.00  0.00    -0.261 NA 
HETATM   32  C   UNL     1      -6.580   7.564  71.349  1.00  0.00    -0.042 C  
HETATM   33  C   UNL     1      -7.342   6.805  70.264  1.00  0.00    -0.085 C  
HETATM   34  C   UNL     1      -8.511   6.011  70.813  1.00  0.00    -0.130 C  
HETATM   35  C   UNL     1      -9.787   6.824  70.967  1.00  0.00    -0.192 C  
HETATM   36  C   UNL     1      -9.614   8.268  71.424  1.00  0.00    -0.231 C  
HETATM   37  C   UNL     1      -8.556   8.491  72.510  1.00  0.00    -0.134 C  
ENDBRANCH  30  31
ENDBRANCH  29  30
ENDBRANCH  28  29
ENDBRANCH  26  28
ENDBRANCH  21  22
ENDBRANCH   5  21
TORSDOF 7
ENDMDL
MODEL      205
REMARK 921   NORMALIZED FREE ENERGY PREDICTED BY IDOCK:   -0.43 KCAL/MOL
REMARK 922        TOTAL FREE ENERGY PREDICTED BY IDOCK:   -3.67 KCAL/MOL
REMARK 923 INTER-LIGAND FREE ENERGY PREDICTED BY IDOCK:   -3.21 KCAL/MOL
REMARK 924 INTRA-LIGAND FREE ENERGY PREDICTED BY IDOCK:   -0.46 KCAL/MOL
REMARK 927      BINDING AFFINITY PREDICTED BY RF-SCORE:    0.00 PKD
ROOT
HETATM    1  C   UNL     1      -9.744   8.754  64.340  1.00  0.00     1.599 C  
HETATM    2  C   UNL     1      -8.902   9.531  65.302  1.00  0.00    -0.220 A  
HETATM    3  C   UNL     1      -9.035  10.844  65.775  1.00  0.00    -0.193 A  
HETATM    4  C   UNL     1      -5.915   8.079  67.859  1.00  0.00    -0.042 A  
HETATM    5  N   UNL     1      -8.003  11.022  66.725  1.00  0.00    -0.145 NA 
HETATM    6  O   UNL     1      -5.603   6.055  66.719  1.00  0.00    -0.012 OA 
HETATM    7  C   UNL     1      -7.401   9.793  66.987  1.00  0.00    -0.091 A  
HETATM    8  C   UNL     1      -6.236   7.259  66.802  1.00  0.00    -0.043 A  
HETATM    9  C   UNL     1      -7.809   8.918  65.984  1.00  0.00    -0.102 A  
HETATM   10  H   UNL     1      -4.941   5.795  67.349  1.00  0.00     0.000 HD 
HETATM   11  C   UNL     1      -6.523   9.329  67.983  1.00  0.00    -0.059 A  
HETATM   12  C   UNL     1      -7.204   7.640  65.882  1.00  0.00    -0.069 A  
ENDROOT
BRANCH   3  13
HETATM   13  C   UNL     1     -10.047  11.870  65.389  1.00  0.00    -0.285 A  
HETATM   14  C   UNL     1     -11.964  13.751  64.497  1.00  0.00    -0.427 A  
HETATM   15  H   UNL     1     -12.613  15.322  63.387  1.00  0.00     0.000 HD 
HETATM   16  C   UNL     1      -9.709  12.906  64.502  1.00  0.00     0.115 A  
HETATM   17  C   UNL     1     -10.662  13.817  64.029  1.00  0.00     0.157 A  
HETATM   18  O   UNL     1     -12.861  14.658  64.020  1.00  0.00    -0.690 OA 
HETATM   19  C   UNL     1     -11.379  11.829  65.837  1.00  0.00    -0.324 A  
HETATM   20  C   UNL     1     -12.325  12.781  65.422  1.00  0.00    -0.528 A  
ENDBRANCH   3  13
BRANCH   5  21
HETATM   21  C   UNL     1      -7.640  12.333  67.326  1.00  0.00    -0.152 C  
BRANCH  21  22
HETATM   22  C   UNL     1      -8.750  13.152  67.935  1.00  0.00    -0.192 A  
HETATM   23  C   UNL     1      -9.729  15.316  68.384  1.00  0.00    -0.213 A  
HETATM   24  C   UNL     1     -10.589  13.392  69.524  1.00  0.00     0.289 A  
HETATM   25  C   UNL     1      -8.817  14.524  67.693  1.00  0.00    -0.189 A  
HETATM   26  C   UNL     1     -10.544  14.772  69.383  1.00  0.00    -0.218 A  
HETATM   27  C   UNL     1      -9.759  12.594  68.738  1.00  0.00     0.051 A  
BRANCH  26  28
HETATM   28  O   UNL     1     -11.300  15.512  70.270  1.00  0.00    -0.273 OA 
BRANCH  28  29
HETATM   29  C   UNL     1     -11.443  16.873  69.854  1.00  0.00     0.680 C  
BRANCH  29  30
HETATM   30  C   UNL     1     -11.568  17.085  68.338  1.00  0.00     0.497 C  
BRANCH  30  31
HETATM   31  N   UNL     1     -10.922  18.369  67.928  1.00  0.00    -0.192 NA 
HETATM   32  C   UNL     1      -9.864  18.756  68.878  1.00  0.00    -0.365 C  
HETATM   33  C   UNL     1      -9.107  20.058  68.618  1.00  0.00    -0.074 C  
HETATM   34  C   UNL     1      -8.155  19.958  67.442  1.00  0.00    -0.348 C  
HETATM   35  C   UNL     1      -8.810  20.215  66.095  1.00  0.00    -0.257 C  
HETATM   36  C   UNL     1     -10.228  19.681  65.925  1.00  0.00    -0.536 C  
HETATM   37  C   UNL     1     -10.486  18.296  66.529  1.00  0.00    -0.356 C  
ENDBRANCH  30  31
ENDBRANCH  29  30
ENDBRANCH  28  29
ENDBRANCH  26  28
ENDBRANCH  21  22
ENDBRANCH   5  21
TORSDOF 7
ENDMDL
MODEL      206
REMARK 921   NORMALIZED FREE ENERGY PREDICTED BY IDOCK:   -0.25 KCAL/MOL
REMARK 922        TOTAL FREE ENERGY PREDICTED BY IDOCK:   -3.42 KCAL/MOL
REMARK 923 INTER-LIGAND FREE ENERGY PREDICTED BY IDOCK:   -4.15 KCAL/MOL
REMARK 924 INTRA-LIGAND FREE ENERGY PREDICTED BY IDOCK:    0.73 KCAL/MOL
REMARK 927      BINDING AFFINITY PREDICTED BY RF-SCORE:    0.00 PKD
ROOT
HETATM    1  C   UNL     1     -12.497  11.232  66.832  1.00  0.00     2.778 C  
HETATM    2  C   UNL     1     -11.036  11.409  67.105  1.00  0.00    -0.340 A  
HETATM    3  C   UNL     1     -10.170  12.464  66.782  1.00  0.00    -0.219 A  
HETATM    4  C   UNL     1      -8.614   9.177  69.697  1.00  0.00    -0.143 A  
HETATM    5  N   UNL     1      -8.921  12.132  67.356  1.00  0.00    -0.173 NA 
HETATM    6  O   UNL     1     -10.068   7.344  69.845  1.00  0.00    -0.190 OA 
HETATM    7  C   UNL     1      -9.076  11.025  68.187  1.00  0.00    -0.155 A  
HETATM    8  C   UNL     1      -9.786   8.567  69.313  1.00  0.00    -0.185 A  
HETATM    9  C   UNL     1     -10.314  10.461  67.889  1.00  0.00    -0.227 A  
HETATM   10  H   UNL     1      -9.467   6.906  70.437  1.00  0.00     0.000 HD 
HETATM   11  C   UNL     1      -8.271  10.423  69.172  1.00  0.00    -0.157 A  
HETATM   12  C   UNL     1     -10.665   9.206  68.448  1.00  0.00    -0.163 A  
ENDROOT
BRANCH   3  13
HETATM   13  C   UNL     1     -10.467  13.702  66.004  1.00  0.00    -0.300 A  
HETATM   14  C   UNL     1     -11.176  16.065  64.619  1.00  0.00    -0.330 A  
HETATM   15  H   UNL     1     -12.329  17.193  63.385  1.00  0.00     0.000 HD 
HETATM   16  C   UNL     1     -11.545  13.736  65.103  1.00  0.00    -0.341 A  
HETATM   17  C   UNL     1     -11.922  14.912  64.444  1.00  0.00    -0.408 A  
HETATM   18  O   UNL     1     -11.569  17.188  63.955  1.00  0.00    -0.612 OA 
HETATM   19  C   UNL     1      -9.737  14.892  66.163  1.00  0.00    -0.333 A  
HETATM   20  C   UNL     1     -10.066  16.059  65.452  1.00  0.00    -0.260 A  
ENDBRANCH   3  13
BRANCH   5  21
HETATM   21  C   UNL     1      -7.657  12.867  67.085  1.00  0.00    -0.028 C  
BRANCH  21  22
HETATM   22  C   UNL     1      -7.462  14.195  67.774  1.00  0.00    -0.174 A  
HETATM   23  C   UNL     1      -7.995  15.684  69.601  1.00  0.00    -0.080 A  
HETATM   24  C   UNL     1      -6.792  16.542  67.716  1.00  0.00    -0.159 A  
HETATM   25  C   UNL     1      -8.021  14.414  69.033  1.00  0.00    -0.057 A  
HETATM   26  C   UNL     1      -7.479  16.778  68.898  1.00  0.00    -0.240 A  
HETATM   27  C   UNL     1      -6.715  15.244  67.214  1.00  0.00    -0.059 A  
BRANCH  26  28
HETATM   28  O   UNL     1      -7.624  18.097  69.281  1.00  0.00    -0.109 OA 
BRANCH  28  29
HETATM   29  C   UNL     1      -8.992  18.514  69.274  1.00  0.00     0.211 C  
BRANCH  29  30
HETATM   30  C   UNL     1      -9.951  17.606  68.493  1.00  0.00    -0.368 C  
BRANCH  30  31
HETATM   31  N   UNL     1     -10.544  16.567  69.389  1.00  0.00    -0.315 NA 
HETATM   32  C   UNL     1     -11.013  17.162  70.652  1.00  0.00     0.863 C  
HETATM   33  C   UNL     1     -11.635  16.236  71.695  1.00  0.00    -0.436 C  
HETATM   34  C   UNL     1     -13.014  15.747  71.298  1.00  0.00    -0.455 C  
HETATM   35  C   UNL     1     -12.997  14.521  70.399  1.00  0.00    -0.230 C  
HETATM   36  C   UNL     1     -11.881  14.463  69.362  1.00  0.00    -0.369 C  
HETATM   37  C   UNL     1     -11.560  15.792  68.668  1.00  0.00    -0.386 C  
ENDBRANCH  30  31
ENDBRANCH  29  30
ENDBRANCH  28  29
ENDBRANCH  26  28
ENDBRANCH  21  22
ENDBRANCH   5  21
TORSDOF 7
ENDMDL
MODEL      207
REMARK 921   NORMALIZED FREE ENERGY PREDICTED BY IDOCK:   -0.24 KCAL/MOL
REMARK 922        TOTAL FREE ENERGY PREDICTED BY IDOCK:   -3.40 KCAL/MOL
REMARK 923 INTER-LIGAND FREE ENERGY PREDICTED BY IDOCK:   -3.02 KCAL/MOL
REMARK 924 INTRA-LIGAND FREE ENERGY PREDICTED BY IDOCK:   -0.38 KCAL/MOL
REMARK 927      BINDING AFFINITY PREDICTED BY RF-SCORE:    0.00 PKD
ROOT
HETATM    1  C   UNL     1      -7.636  11.626  65.840  1.00  0.00     0.527 C  
HETATM    2  C   UNL     1      -7.711  10.841  67.113  1.00  0.00    -0.120 A  
HETATM    3  C   UNL     1      -7.449  11.224  68.436  1.00  0.00    -0.108 A  
HETATM    4  C   UNL     1      -9.482   7.091  67.722  1.00  0.00    -0.132 A  
HETATM    5  N   UNL     1      -7.762  10.101  69.236  1.00  0.00    -0.112 NA 
HETATM    6  O   UNL     1      -9.528   6.490  65.456  1.00  0.00    -0.361 OA 
HETATM    7  C   UNL     1      -8.403   9.143  68.453  1.00  0.00    -0.120 A  
HETATM    8  C   UNL     1      -9.180   7.395  66.414  1.00  0.00    -0.159 A  
HETATM    9  C   UNL     1      -8.202   9.501  67.123  1.00  0.00    -0.113 A  
HETATM   10  H   UNL     1      -9.937   5.662  65.678  1.00  0.00     0.000 HD 
HETATM   11  C   UNL     1      -9.136   7.977  68.743  1.00  0.00    -0.144 A  
HETATM   12  C   UNL     1      -8.581   8.607  66.091  1.00  0.00    -0.158 A  
ENDROOT
BRANCH   3  13
HETATM   13  C   UNL     1      -6.951  12.538  68.939  1.00  0.00    -0.088 A  
HETATM   14  C   UNL     1      -5.889  15.026  69.769  1.00  0.00    -0.117 A  
HETATM   15  H   UNL     1      -4.449  16.250  70.511  1.00  0.00     0.000 HD 
HETATM   16  C   UNL     1      -5.680  12.639  69.530  1.00  0.00    -0.097 A  
HETATM   17  C   UNL     1      -5.136  13.873  69.908  1.00  0.00    -0.092 A  
HETATM   18  O   UNL     1      -5.328  16.206  70.154  1.00  0.00    -0.143 OA 
HETATM   19  C   UNL     1      -7.684  13.729  68.806  1.00  0.00    -0.080 A  
HETATM   20  C   UNL     1      -7.174  14.962  69.247  1.00  0.00    -0.172 A  
ENDBRANCH   3  13
BRANCH   5  21
HETATM   21  C   UNL     1      -7.435   9.990  70.682  1.00  0.00     0.204 C  
BRANCH  21  22
HETATM   22  C   UNL     1      -7.202   8.607  71.240  1.00  0.00    -0.093 A  
HETATM   23  C   UNL     1      -7.989   6.740  72.556  1.00  0.00    -0.101 A  
HETATM   24  C   UNL     1      -5.689   6.804  71.887  1.00  0.00    -0.037 A  
HETATM   25  C   UNL     1      -8.237   7.936  71.890  1.00  0.00    -0.142 A  
HETATM   26  C   UNL     1      -6.691   6.224  72.652  1.00  0.00    -0.069 A  
HETATM   27  C   UNL     1      -5.976   7.933  71.122  1.00  0.00    -0.034 A  
BRANCH  26  28
HETATM   28  O   UNL     1      -6.319   5.183  73.480  1.00  0.00    -0.052 OA 
BRANCH  28  29
HETATM   29  C   UNL     1      -5.576   4.179  72.783  1.00  0.00    -0.003 C  
BRANCH  29  30
HETATM   30  C   UNL     1      -6.359   3.414  71.707  1.00  0.00    -0.015 C  
BRANCH  30  31
HETATM   31  N   UNL     1      -7.518   2.688  72.310  1.00  0.00    -0.049 NA 
HETATM   32  C   UNL     1      -7.616   2.956  73.755  1.00  0.00    -0.052 C  
HETATM   33  C   UNL     1      -8.741   2.279  74.536  1.00  0.00    -0.073 C  
HETATM   34  C   UNL     1     -10.104   2.869  74.234  1.00  0.00    -0.185 C  
HETATM   35  C   UNL     1     -10.771   2.278  73.002  1.00  0.00    -0.246 C  
HETATM   36  C   UNL     1      -9.850   1.946  71.833  1.00  0.00    -0.214 C  
HETATM   37  C   UNL     1      -8.745   2.971  71.555  1.00  0.00    -0.074 C  
ENDBRANCH  30  31
ENDBRANCH  29  30
ENDBRANCH  28  29
ENDBRANCH  26  28
ENDBRANCH  21  22
ENDBRANCH   5  21
TORSDOF 7
ENDMDL
MODEL      208
REMARK 921   NORMALIZED FREE ENERGY PREDICTED BY IDOCK:   -0.03 KCAL/MOL
REMARK 922        TOTAL FREE ENERGY PREDICTED BY IDOCK:   -3.10 KCAL/MOL
REMARK 923 INTER-LIGAND FREE ENERGY PREDICTED BY IDOCK:   -3.45 KCAL/MOL
REMARK 924 INTRA-LIGAND FREE ENERGY PREDICTED BY IDOCK:    0.35 KCAL/MOL
REMARK 927      BINDING AFFINITY PREDICTED BY RF-SCORE:    0.00 PKD
ROOT
HETATM    1  C   UNL     1      -7.498  13.899  69.195  1.00  0.00     0.027 C  
HETATM    2  C   UNL     1      -8.326  12.954  68.382  1.00  0.00    -0.116 A  
HETATM    3  C   UNL     1      -8.332  11.553  68.340  1.00  0.00    -0.154 A  
HETATM    4  C   UNL     1     -11.765  13.817  66.147  1.00  0.00    -0.392 A  
HETATM    5  N   UNL     1      -9.373  11.194  67.453  1.00  0.00    -0.163 NA 
HETATM    6  O   UNL     1     -11.397  16.130  66.045  1.00  0.00     0.098 OA 
HETATM    7  C   UNL     1     -10.119  12.327  67.137  1.00  0.00    -0.208 A  
HETATM    8  C   UNL     1     -10.971  14.899  66.448  1.00  0.00    -0.336 A  
HETATM    9  C   UNL     1      -9.374  13.432  67.540  1.00  0.00    -0.218 A  
HETATM   10  H   UNL     1     -12.198  16.242  65.548  1.00  0.00     0.000 HD 
HETATM   11  C   UNL     1     -11.369  12.533  66.524  1.00  0.00    -0.387 A  
HETATM   12  C   UNL     1      -9.799  14.735  67.175  1.00  0.00    -0.232 A  
ENDROOT
BRANCH   3  13
HETATM   13  C   UNL     1      -7.448  10.600  69.073  1.00  0.00    -0.117 A  
HETATM   14  C   UNL     1      -5.899   8.678  70.457  1.00  0.00    -0.027 A  
HETATM   15  H   UNL     1      -5.447   7.471  72.026  1.00  0.00     0.000 HD 
HETATM   16  C   UNL     1      -7.744  10.224  70.394  1.00  0.00     0.301 A  
HETATM   17  C   UNL     1      -7.002   9.247  71.070  1.00  0.00    -0.090 A  
HETATM   18  O   UNL     1      -5.198   7.737  71.148  1.00  0.00    -0.026 OA 
HETATM   19  C   UNL     1      -6.326   9.996  68.479  1.00  0.00    -0.049 A  
HETATM   20  C   UNL     1      -5.535   9.066  69.175  1.00  0.00    -0.036 A  
ENDBRANCH   3  13
BRANCH   5  21
HETATM   21  C   UNL     1      -9.600   9.814  66.949  1.00  0.00    -0.180 C  
BRANCH  21  22
HETATM   22  C   UNL     1      -9.967   8.755  67.959  1.00  0.00    -0.220 A  
HETATM   23  C   UNL     1      -9.277   7.168  69.646  1.00  0.00    -0.146 A  
HETATM   24  C   UNL     1     -11.519   7.072  68.807  1.00  0.00     0.219 A  
HETATM   25  C   UNL     1      -8.997   8.260  68.831  1.00  0.00    -0.144 A  
HETATM   26  C   UNL     1     -10.503   6.499  69.558  1.00  0.00    -0.222 A  
HETATM   27  C   UNL     1     -11.266   8.240  68.089  1.00  0.00     0.564 A  
BRANCH  26  28
HETATM   28  O   UNL     1     -10.778   5.281  70.150  1.00  0.00    -0.276 OA 
BRANCH  28  29
HETATM   29  C   UNL     1      -9.652   4.400  70.121  1.00  0.00    -0.193 C  
BRANCH  29  30
HETATM   30  C   UNL     1      -9.621   3.413  68.946  1.00  0.00    -0.051 C  
BRANCH  30  31
HETATM   31  N   UNL     1      -8.921   4.014  67.769  1.00  0.00    -0.116 NA 
HETATM   32  C   UNL     1      -7.500   3.627  67.745  1.00  0.00    -0.066 C  
HETATM   33  C   UNL     1      -6.628   4.167  66.613  1.00  0.00    -0.046 C  
HETATM   34  C   UNL     1      -6.930   3.517  65.277  1.00  0.00    -0.060 C  
HETATM   35  C   UNL     1      -8.086   4.159  64.528  1.00  0.00    -0.094 C  
HETATM   36  C   UNL     1      -9.255   4.641  65.380  1.00  0.00    -0.155 C  
HETATM   37  C   UNL     1      -9.653   3.714  66.533  1.00  0.00    -0.138 C  
ENDBRANCH  30  31
ENDBRANCH  29  30
ENDBRANCH  28  29
ENDBRANCH  26  28
ENDBRANCH  21  22
ENDBRANCH   5  21
TORSDOF 7
ENDMDL
MODEL      209
REMARK 921   NORMALIZED FREE ENERGY PREDICTED BY IDOCK:    0.04 KCAL/MOL
REMARK 922        TOTAL FREE ENERGY PREDICTED BY IDOCK:   -3.02 KCAL/MOL
REMARK 923 INTER-LIGAND FREE ENERGY PREDICTED BY IDOCK:   -3.32 KCAL/MOL
REMARK 924 INTRA-LIGAND FREE ENERGY PREDICTED BY IDOCK:    0.31 KCAL/MOL
REMARK 927      BINDING AFFINITY PREDICTED BY RF-SCORE:    0.00 PKD
ROOT
HETATM    1  C   UNL     1     -11.170  12.720  70.961  1.00  0.00     2.404 C  
HETATM    2  C   UNL     1     -11.045  12.085  69.612  1.00  0.00    -0.074 A  
HETATM    3  C   UNL     1     -11.049  10.734  69.236  1.00  0.00    -0.256 A  
HETATM    4  C   UNL     1     -11.323  13.938  65.863  1.00  0.00    -0.314 A  
HETATM    5  N   UNL     1     -10.980  10.722  67.824  1.00  0.00    -0.275 NA 
HETATM    6  O   UNL     1     -10.964  16.114  66.656  1.00  0.00    -0.211 OA 
HETATM    7  C   UNL     1     -11.152  12.018  67.344  1.00  0.00    -0.281 A  
HETATM    8  C   UNL     1     -11.056  14.780  66.918  1.00  0.00    -0.339 A  
HETATM    9  C   UNL     1     -10.997  12.879  68.427  1.00  0.00    -0.285 A  
HETATM   10  H   UNL     1     -11.049  16.457  65.774  1.00  0.00     0.000 HD 
HETATM   11  C   UNL     1     -11.415  12.562  66.073  1.00  0.00    -0.423 A  
HETATM   12  C   UNL     1     -10.932  14.278  68.207  1.00  0.00    -0.261 A  
ENDROOT
BRANCH   3  13
HETATM   13  C   UNL     1     -11.121   9.529  70.113  1.00  0.00    -0.294 A  
HETATM   14  C   UNL     1     -11.103   7.195  71.714  1.00  0.00    -0.236 A  
HETATM   15  H   UNL     1     -11.117   5.190  72.034  1.00  0.00     0.000 HD 
HETATM   16  C   UNL     1     -11.253   8.247  69.553  1.00  0.00     0.152 A  
HETATM   17  C   UNL     1     -11.208   7.088  70.337  1.00  0.00    -0.339 A  
HETATM   18  O   UNL     1     -11.069   6.046  72.444  1.00  0.00    -0.247 OA 
HETATM   19  C   UNL     1     -11.008   9.600  71.512  1.00  0.00    -0.266 A  
HETATM   20  C   UNL     1     -11.032   8.446  72.313  1.00  0.00    -0.431 A  
ENDBRANCH   3  13
BRANCH   5  21
HETATM   21  C   UNL     1     -10.749   9.499  67.011  1.00  0.00    -0.149 C  
BRANCH  21  22
HETATM   22  C   UNL     1      -9.342   8.957  66.951  1.00  0.00    -0.213 A  
HETATM   23  C   UNL     1      -7.498   8.108  65.641  1.00  0.00    -0.081 A  
HETATM   24  C   UNL     1      -7.432   7.880  68.024  1.00  0.00    -0.108 A  
HETATM   25  C   UNL     1      -8.723   8.764  65.717  1.00  0.00    -0.209 A  
HETATM   26  C   UNL     1      -6.900   7.564  66.782  1.00  0.00    -0.070 A  
HETATM   27  C   UNL     1      -8.594   8.646  68.098  1.00  0.00    -0.141 A  
BRANCH  26  28
HETATM   28  O   UNL     1      -5.818   6.705  66.770  1.00  0.00    -0.017 OA 
BRANCH  28  29
HETATM   29  C   UNL     1      -6.216   5.338  66.628  1.00  0.00    -0.035 C  
BRANCH  29  30
HETATM   30  C   UNL     1      -7.476   4.938  67.409  1.00  0.00    -0.082 C  
BRANCH  30  31
HETATM   31  N   UNL     1      -7.173   3.837  68.374  1.00  0.00    -0.054 NA 
HETATM   32  C   UNL     1      -5.730   3.767  68.660  1.00  0.00    -0.022 C  
HETATM   33  C   UNL     1      -5.240   2.684  69.620  1.00  0.00    -0.011 C  
HETATM   34  C   UNL     1      -5.614   2.965  71.063  1.00  0.00    -0.012 C  
HETATM   35  C   UNL     1      -7.010   2.494  71.439  1.00  0.00    -0.032 C  
HETATM   36  C   UNL     1      -8.084   2.651  70.369  1.00  0.00    -0.056 C  
HETATM   37  C   UNL     1      -8.024   3.955  69.564  1.00  0.00    -0.055 C  
ENDBRANCH  30  31
ENDBRANCH  29  30
ENDBRANCH  28  29
ENDBRANCH  26  28
ENDBRANCH  21  22
ENDBRANCH   5  21
TORSDOF 7
ENDMDL
MODEL      210
REMARK 921   NORMALIZED FREE ENERGY PREDICTED BY IDOCK:    0.13 KCAL/MOL
REMARK 922        TOTAL FREE ENERGY PREDICTED BY IDOCK:   -2.89 KCAL/MOL
REMARK 923 INTER-LIGAND FREE ENERGY PREDICTED BY IDOCK:   -2.71 KCAL/MOL
REMARK 924 INTRA-LIGAND FREE ENERGY PREDICTED BY IDOCK:   -0.17 KCAL/MOL
REMARK 927      BINDING AFFINITY PREDICTED BY RF-SCORE:    0.00 PKD
ROOT
HETATM    1  C   UNL     1     -11.722   7.567  67.273  1.00  0.00     1.938 C  
HETATM    2  C   UNL     1     -10.232   7.573  67.139  1.00  0.00    -0.350 A  
HETATM    3  C   UNL     1      -9.343   8.628  66.887  1.00  0.00    -0.170 A  
HETATM    4  C   UNL     1      -7.546   4.520  68.156  1.00  0.00    -0.076 A  
HETATM    5  N   UNL     1      -8.047   8.069  66.947  1.00  0.00    -0.107 NA 
HETATM    6  O   UNL     1      -9.150   2.811  68.202  1.00  0.00    -0.140 OA 
HETATM    7  C   UNL     1      -8.129   6.768  67.438  1.00  0.00    -0.118 A  
HETATM    8  C   UNL     1      -8.851   4.122  67.980  1.00  0.00    -0.112 A  
HETATM    9  C   UNL     1      -9.467   6.391  67.373  1.00  0.00    -0.123 A  
HETATM   10  H   UNL     1      -8.481   2.180  68.441  1.00  0.00     0.000 HD 
HETATM   11  C   UNL     1      -7.183   5.848  67.929  1.00  0.00    -0.072 A  
HETATM   12  C   UNL     1      -9.830   5.045  67.632  1.00  0.00    -0.202 A  
ENDROOT
BRANCH   3  13
HETATM   13  C   UNL     1      -9.660  10.061  66.615  1.00  0.00    -0.234 A  
HETATM   14  C   UNL     1     -10.347  12.781  66.248  1.00  0.00    -0.258 A  
HETATM   15  H   UNL     1     -11.633  14.325  65.956  1.00  0.00     0.000 HD 
HETATM   16  C   UNL     1     -10.980  10.460  66.345  1.00  0.00     0.031 A  
HETATM   17  C   UNL     1     -11.331  11.808  66.199  1.00  0.00    -0.342 A  
HETATM   18  O   UNL     1     -10.726  14.081  66.096  1.00  0.00    -0.285 OA 
HETATM   19  C   UNL     1      -8.690  11.076  66.666  1.00  0.00    -0.160 A  
HETATM   20  C   UNL     1      -9.022  12.424  66.452  1.00  0.00    -0.101 A  
ENDBRANCH   3  13
BRANCH   5  21
HETATM   21  C   UNL     1      -6.810   8.784  66.534  1.00  0.00    -0.072 C  
BRANCH  21  22
HETATM   22  C   UNL     1      -6.240   9.800  67.493  1.00  0.00    -0.059 A  
HETATM   23  C   UNL     1      -6.100  10.689  69.736  1.00  0.00    -0.074 A  
HETATM   24  C   UNL     1      -5.189  11.962  67.922  1.00  0.00    -0.055 A  
HETATM   25  C   UNL     1      -6.471   9.671  68.862  1.00  0.00    -0.046 A  
HETATM   26  C   UNL     1      -5.558  11.887  69.258  1.00  0.00    -0.059 A  
HETATM   27  C   UNL     1      -5.453  10.886  67.076  1.00  0.00    -0.053 A  
BRANCH  26  28
HETATM   28  O   UNL     1      -5.380  13.027  70.017  1.00  0.00    -0.088 OA 
BRANCH  28  29
HETATM   29  C   UNL     1      -6.624  13.605  70.422  1.00  0.00     0.264 C  
BRANCH  29  30
HETATM   30  C   UNL     1      -7.632  13.851  69.291  1.00  0.00     0.150 C  
BRANCH  30  31
HETATM   31  N   UNL     1      -8.211  15.226  69.387  1.00  0.00    -0.239 NA 
HETATM   32  C   UNL     1      -7.452  16.178  68.557  1.00  0.00    -0.167 C  
HETATM   33  C   UNL     1      -7.899  17.639  68.550  1.00  0.00    -0.282 C  
HETATM   34  C   UNL     1      -9.193  17.853  67.789  1.00  0.00    -0.258 C  
HETATM   35  C   UNL     1     -10.443  17.603  68.617  1.00  0.00    -0.317 C  
HETATM   36  C   UNL     1     -10.370  16.450  69.613  1.00  0.00    -0.244 C  
HETATM   37  C   UNL     1      -9.652  15.193  69.111  1.00  0.00    -0.232 C  
ENDBRANCH  30  31
ENDBRANCH  29  30
ENDBRANCH  28  29
ENDBRANCH  26  28
ENDBRANCH  21  22
ENDBRANCH   5  21
TORSDOF 7
ENDMDL
MODEL      211
REMARK 921   NORMALIZED FREE ENERGY PREDICTED BY IDOCK:    0.17 KCAL/MOL
REMARK 922        TOTAL FREE ENERGY PREDICTED BY IDOCK:   -2.83 KCAL/MOL
REMARK 923 INTER-LIGAND FREE ENERGY PREDICTED BY IDOCK:   -2.38 KCAL/MOL
REMARK 924 INTRA-LIGAND FREE ENERGY PREDICTED BY IDOCK:   -0.44 KCAL/MOL
REMARK 927      BINDING AFFINITY PREDICTED BY RF-SCORE:    0.00 PKD
ROOT
HETATM    1  C   UNL     1      -6.772  11.755  67.745  1.00  0.00    -0.082 C  
HETATM    2  C   UNL     1      -6.576  10.294  67.489  1.00  0.00    -0.067 A  
HETATM    3  C   UNL     1      -6.546   9.209  68.377  1.00  0.00    -0.059 A  
HETATM    4  C   UNL     1      -6.702   8.288  63.811  1.00  0.00    -0.075 A  
HETATM    5  N   UNL     1      -6.411   8.053  67.575  1.00  0.00    -0.054 NA 
HETATM    6  O   UNL     1      -6.406  10.205  62.495  1.00  0.00    -0.112 OA 
HETATM    7  C   UNL     1      -6.576   8.399  66.236  1.00  0.00    -0.058 A  
HETATM    8  C   UNL     1      -6.495   9.646  63.735  1.00  0.00    -0.111 A  
HETATM    9  C   UNL     1      -6.483   9.786  66.159  1.00  0.00    -0.076 A  
HETATM   10  H   UNL     1      -6.455   9.679  61.706  1.00  0.00     0.000 HD 
HETATM   11  C   UNL     1      -6.786   7.662  65.056  1.00  0.00    -0.051 A  
HETATM   12  C   UNL     1      -6.424  10.415  64.890  1.00  0.00    -0.072 A  
ENDROOT
BRANCH   3  13
HETATM   13  C   UNL     1      -6.644   9.228  69.866  1.00  0.00    -0.049 A  
HETATM   14  C   UNL     1      -6.847   9.092  72.685  1.00  0.00     0.303 A  
HETATM   15  H   UNL     1      -7.800   8.722  74.440  1.00  0.00     0.000 HD 
HETATM   16  C   UNL     1      -7.852   8.902  70.506  1.00  0.00    -0.116 A  
HETATM   17  C   UNL     1      -7.948   8.798  71.899  1.00  0.00    -0.079 A  
HETATM   18  O   UNL     1      -6.981   8.986  74.037  1.00  0.00    -0.371 OA 
HETATM   19  C   UNL     1      -5.545   9.511  70.695  1.00  0.00    -0.049 A  
HETATM   20  C   UNL     1      -5.651   9.477  72.096  1.00  0.00    -0.005 A  
ENDBRANCH   3  13
BRANCH   5  21
HETATM   21  C   UNL     1      -6.127   6.695  68.111  1.00  0.00    -0.029 C  
BRANCH  21  22
HETATM   22  C   UNL     1      -7.164   6.072  69.013  1.00  0.00    -0.083 A  
HETATM   23  C   UNL     1      -7.731   4.456  70.718  1.00  0.00    -0.056 A  
HETATM   24  C   UNL     1      -9.494   5.585  69.554  1.00  0.00    -0.185 A  
HETATM   25  C   UNL     1      -6.774   5.164  69.998  1.00  0.00    -0.044 A  
HETATM   26  C   UNL     1      -9.093   4.581  70.424  1.00  0.00    -0.111 A  
HETATM   27  C   UNL     1      -8.532   6.376  68.929  1.00  0.00    -0.121 A  
BRANCH  26  28
HETATM   28  O   UNL     1     -10.083   3.754  70.919  1.00  0.00    -0.105 OA 
BRANCH  28  29
HETATM   29  C   UNL     1     -10.079   3.703  72.348  1.00  0.00    -0.163 C  
BRANCH  29  30
HETATM   30  C   UNL     1      -9.737   2.335  72.954  1.00  0.00    -0.104 C  
BRANCH  30  31
HETATM   31  N   UNL     1      -8.260   2.190  73.134  1.00  0.00    -0.057 NA 
HETATM   32  C   UNL     1      -7.620   1.717  71.893  1.00  0.00    -0.040 C  
HETATM   33  C   UNL     1      -6.108   1.499  71.904  1.00  0.00    -0.013 C  
HETATM   34  C   UNL     1      -5.327   2.798  71.929  1.00  0.00    -0.004 C  
HETATM   35  C   UNL     1      -5.130   3.370  73.324  1.00  0.00     0.000 C  
HETATM   36  C   UNL     1      -6.300   3.209  74.289  1.00  0.00    -0.024 C  
HETATM   37  C   UNL     1      -7.689   3.427  73.678  1.00  0.00    -0.066 C  
ENDBRANCH  30  31
ENDBRANCH  29  30
ENDBRANCH  28  29
ENDBRANCH  26  28
ENDBRANCH  21  22
ENDBRANCH   5  21
TORSDOF 7
ENDMDL
MODEL      212
REMARK 921   NORMALIZED FREE ENERGY PREDICTED BY IDOCK:    0.53 KCAL/MOL
REMARK 922        TOTAL FREE ENERGY PREDICTED BY IDOCK:   -2.32 KCAL/MOL
REMARK 923 INTER-LIGAND FREE ENERGY PREDICTED BY IDOCK:   -1.23 KCAL/MOL
REMARK 924 INTRA-LIGAND FREE ENERGY PREDICTED BY IDOCK:   -1.08 KCAL/MOL
REMARK 927      BINDING AFFINITY PREDICTED BY RF-SCORE:    0.00 PKD
ROOT
HETATM    1  C   UNL     1     -13.212  11.931  68.336  1.00  0.00     4.426 C  
HETATM    2  C   UNL     1     -11.935  12.659  68.616  1.00  0.00    -0.264 A  
HETATM    3  C   UNL     1     -10.822  12.897  67.796  1.00  0.00    -0.229 A  
HETATM    4  C   UNL     1     -11.063  15.166  71.860  1.00  0.00    -0.116 A  
HETATM    5  N   UNL     1      -9.945  13.705  68.555  1.00  0.00    -0.229 NA 
HETATM    6  O   UNL     1     -12.805  14.390  73.223  1.00  0.00    -0.486 OA 
HETATM    7  C   UNL     1     -10.595  14.131  69.711  1.00  0.00     0.225 A  
HETATM    8  C   UNL     1     -12.122  14.307  72.047  1.00  0.00    -0.025 A  
HETATM    9  C   UNL     1     -11.734  13.344  69.852  1.00  0.00    -0.337 A  
HETATM   10  H   UNL     1     -12.548  14.995  73.908  1.00  0.00     0.000 HD 
HETATM   11  C   UNL     1     -10.321  15.115  70.680  1.00  0.00     0.144 A  
HETATM   12  C   UNL     1     -12.498  13.422  71.045  1.00  0.00    -0.437 A  
ENDROOT
BRANCH   3  13
HETATM   13  C   UNL     1     -10.579  12.421  66.403  1.00  0.00    -0.271 A  
HETATM   14  C   UNL     1      -9.962  11.588  63.770  1.00  0.00    -0.349 A  
HETATM   15  H   UNL     1      -9.506  11.880  61.813  1.00  0.00     0.000 HD 
HETATM   16  C   UNL     1     -10.441  13.341  65.350  1.00  0.00    -0.306 A  
HETATM   17  C   UNL     1     -10.100  12.936  64.054  1.00  0.00    -0.142 A  
HETATM   18  O   UNL     1      -9.635  11.232  62.497  1.00  0.00    -0.263 OA 
HETATM   19  C   UNL     1     -10.425  11.062  66.081  1.00  0.00    -0.301 A  
HETATM   20  C   UNL     1     -10.150  10.642  64.769  1.00  0.00    -0.412 A  
ENDBRANCH   3  13
BRANCH   5  21
HETATM   21  C   UNL     1      -8.549  14.024  68.155  1.00  0.00    -0.181 C  
BRANCH  21  22
HETATM   22  C   UNL     1      -7.572  12.877  68.061  1.00  0.00    -0.137 A  
HETATM   23  C   UNL     1      -5.508  11.975  67.186  1.00  0.00    -0.121 A  
HETATM   24  C   UNL     1      -7.063  10.497  68.253  1.00  0.00    -0.081 A  
HETATM   25  C   UNL     1      -6.342  13.062  67.431  1.00  0.00    -0.096 A  
HETATM   26  C   UNL     1      -5.914  10.672  67.496  1.00  0.00    -0.048 A  
HETATM   27  C   UNL     1      -7.830  11.608  68.602  1.00  0.00    -0.132 A  
BRANCH  26  28
HETATM   28  O   UNL     1      -5.263   9.526  67.081  1.00  0.00    -0.035 OA 
BRANCH  28  29
HETATM   29  C   UNL     1      -5.994   8.341  67.407  1.00  0.00    -0.047 C  
BRANCH  29  30
HETATM   30  C   UNL     1      -6.048   7.994  68.901  1.00  0.00    -0.039 C  
BRANCH  30  31
HETATM   31  N   UNL     1      -7.047   6.913  69.158  1.00  0.00    -0.081 NA 
HETATM   32  C   UNL     1      -6.991   6.462  70.559  1.00  0.00    -0.064 C  
HETATM   33  C   UNL     1      -7.939   5.345  70.992  1.00  0.00    -0.105 C  
HETATM   34  C   UNL     1      -9.381   5.805  71.093  1.00  0.00    -0.174 C  
HETATM   35  C   UNL     1     -10.133   5.763  69.773  1.00  0.00    -0.273 C  
HETATM   36  C   UNL     1      -9.336   6.147  68.532  1.00  0.00    -0.117 C  
HETATM   37  C   UNL     1      -8.379   7.332  68.707  1.00  0.00    -0.129 C  
ENDBRANCH  30  31
ENDBRANCH  29  30
ENDBRANCH  28  29
ENDBRANCH  26  28
ENDBRANCH  21  22
ENDBRANCH   5  21
TORSDOF 7
ENDMDL
MODEL      213
REMARK 921   NORMALIZED FREE ENERGY PREDICTED BY IDOCK:    0.79 KCAL/MOL
REMARK 922        TOTAL FREE ENERGY PREDICTED BY IDOCK:   -1.95 KCAL/MOL
REMARK 923 INTER-LIGAND FREE ENERGY PREDICTED BY IDOCK:   -1.23 KCAL/MOL
REMARK 924 INTRA-LIGAND FREE ENERGY PREDICTED BY IDOCK:   -0.72 KCAL/MOL
REMARK 927      BINDING AFFINITY PREDICTED BY RF-SCORE:    0.00 PKD
ROOT
HETATM    1  C   UNL     1     -10.580   6.409  67.224  1.00  0.00    -0.382 C  
HETATM    2  C   UNL     1      -9.609   7.527  67.439  1.00  0.00    -0.187 A  
HETATM    3  C   UNL     1      -9.053   8.036  68.622  1.00  0.00    -0.140 A  
HETATM    4  C   UNL     1      -7.268   9.490  64.570  1.00  0.00    -0.110 A  
HETATM    5  N   UNL     1      -8.138   9.037  68.223  1.00  0.00    -0.108 NA 
HETATM    6  O   UNL     1      -8.537   8.795  62.726  1.00  0.00    -0.317 OA 
HETATM    7  C   UNL     1      -7.975   8.987  66.840  1.00  0.00    -0.105 A  
HETATM    8  C   UNL     1      -8.358   8.810  64.077  1.00  0.00    -0.141 A  
HETATM    9  C   UNL     1      -9.010   8.205  66.336  1.00  0.00    -0.207 A  
HETATM   10  H   UNL     1      -7.952   9.260  62.139  1.00  0.00     0.000 HD 
HETATM   11  C   UNL     1      -7.045   9.549  65.946  1.00  0.00    -0.096 A  
HETATM   12  C   UNL     1      -9.213   8.130  64.935  1.00  0.00     0.631 A  
ENDROOT
BRANCH   3  13
HETATM   13  C   UNL     1      -9.336   7.628  70.029  1.00  0.00    -0.154 A  
HETATM   14  C   UNL     1      -9.708   6.805  72.711  1.00  0.00    -0.153 A  
HETATM   15  H   UNL     1      -9.789   5.448  74.219  1.00  0.00     0.000 HD 
HETATM   16  C   UNL     1      -9.313   6.272  70.397  1.00  0.00    -0.171 A  
HETATM   17  C   UNL     1      -9.460   5.863  71.727  1.00  0.00    -0.168 A  
HETATM   18  O   UNL     1      -9.852   6.369  73.993  1.00  0.00    -0.200 OA 
HETATM   19  C   UNL     1      -9.582   8.558  71.055  1.00  0.00    -0.241 A  
HETATM   20  C   UNL     1      -9.799   8.151  72.381  1.00  0.00    -0.346 A  
ENDBRANCH   3  13
BRANCH   5  21
HETATM   21  C   UNL     1      -7.477   9.984  69.160  1.00  0.00    -0.092 C  
BRANCH  21  22
HETATM   22  C   UNL     1      -7.229  11.390  68.670  1.00  0.00    -0.100 A  
HETATM   23  C   UNL     1      -8.069  13.611  68.224  1.00  0.00    -0.155 A  
HETATM   24  C   UNL     1      -5.920  12.988  67.369  1.00  0.00    -0.047 A  
HETATM   25  C   UNL     1      -8.216  12.363  68.822  1.00  0.00     0.099 A  
HETATM   26  C   UNL     1      -6.972  13.892  67.403  1.00  0.00    -0.043 A  
HETATM   27  C   UNL     1      -6.023  11.789  68.073  1.00  0.00    -0.049 A  
BRANCH  26  28
HETATM   28  O   UNL     1      -6.863  15.004  66.591  1.00  0.00     0.291 OA 
BRANCH  28  29
HETATM   29  C   UNL     1      -8.102  15.706  66.466  1.00  0.00    -0.133 C  
BRANCH  29  30
HETATM   30  C   UNL     1      -8.002  17.112  65.858  1.00  0.00     0.016 C  
BRANCH  30  31
HETATM   31  N   UNL     1      -9.304  17.835  65.976  1.00  0.00    -0.523 NA 
HETATM   32  C   UNL     1      -9.910  17.619  67.302  1.00  0.00    -0.303 C  
HETATM   33  C   UNL     1     -11.259  18.277  67.590  1.00  0.00     0.281 C  
HETATM   34  C   UNL     1     -11.153  19.778  67.772  1.00  0.00     0.024 C  
HETATM   35  C   UNL     1     -11.190  20.560  66.469  1.00  0.00     1.509 C  
HETATM   36  C   UNL     1     -10.477  19.923  65.282  1.00  0.00     0.069 C  
HETATM   37  C   UNL     1      -9.140  19.245  65.605  1.00  0.00     0.522 C  
ENDBRANCH  30  31
ENDBRANCH  29  30
ENDBRANCH  28  29
ENDBRANCH  26  28
ENDBRANCH  21  22
ENDBRANCH   5  21
TORSDOF 7
ENDMDL
MODEL      214
REMARK 921   NORMALIZED FREE ENERGY PREDICTED BY IDOCK:    1.16 KCAL/MOL
REMARK 922        TOTAL FREE ENERGY PREDICTED BY IDOCK:   -1.44 KCAL/MOL
REMARK 923 INTER-LIGAND FREE ENERGY PREDICTED BY IDOCK:   -2.44 KCAL/MOL
REMARK 924 INTRA-LIGAND FREE ENERGY PREDICTED BY IDOCK:    1.00 KCAL/MOL
REMARK 927      BINDING AFFINITY PREDICTED BY RF-SCORE:    0.00 PKD
ROOT
HETATM    1  C   UNL     1     -10.919   7.497  68.959  1.00  0.00     0.004 C  
HETATM    2  C   UNL     1      -9.532   7.617  69.508  1.00  0.00    -0.152 A  
HETATM    3  C   UNL     1      -8.508   8.526  69.205  1.00  0.00    -0.128 A  
HETATM    4  C   UNL     1      -7.938   5.748  72.904  1.00  0.00    -0.108 A  
HETATM    5  N   UNL     1      -7.444   8.220  70.084  1.00  0.00    -0.059 NA 
HETATM    6  O   UNL     1      -9.585   4.086  73.043  1.00  0.00    -0.122 OA 
HETATM    7  C   UNL     1      -7.883   7.305  71.038  1.00  0.00    -0.097 A  
HETATM    8  C   UNL     1      -9.070   5.163  72.385  1.00  0.00    -0.134 A  
HETATM    9  C   UNL     1      -9.090   6.786  70.580  1.00  0.00    -0.156 A  
HETATM   10  H   UNL     1      -9.167   3.727  73.817  1.00  0.00     0.000 HD 
HETATM   11  C   UNL     1      -7.362   6.845  72.262  1.00  0.00    -0.086 A  
HETATM   12  C   UNL     1      -9.682   5.688  71.254  1.00  0.00    -0.211 A  
ENDROOT
BRANCH   3  13
HETATM   13  C   UNL     1      -8.506   9.612  68.182  1.00  0.00    -0.118 A  
HETATM   14  C   UNL     1      -8.595  11.570  66.140  1.00  0.00    -0.094 A  
HETATM   15  H   UNL     1      -8.196  12.313  64.294  1.00  0.00     0.000 HD 
HETATM   16  C   UNL     1      -7.819   9.446  66.967  1.00  0.00    -0.098 A  
HETATM   17  C   UNL     1      -7.890  10.395  65.941  1.00  0.00    -0.148 A  
HETATM   18  O   UNL     1      -8.636  12.472  65.121  1.00  0.00     1.167 OA 
HETATM   19  C   UNL     1      -9.217  10.813  68.347  1.00  0.00    -0.164 A  
HETATM   20  C   UNL     1      -9.237  11.801  67.349  1.00  0.00    -0.174 A  
ENDBRANCH   3  13
BRANCH   5  21
HETATM   21  C   UNL     1      -6.078   8.798  69.972  1.00  0.00    -0.037 C  
BRANCH  21  22
HETATM   22  C   UNL     1      -5.936  10.290  70.149  1.00  0.00    -0.076 A  
HETATM   23  C   UNL     1      -5.620  12.186  71.613  1.00  0.00     0.419 A  
HETATM   24  C   UNL     1      -6.279  12.568  69.342  1.00  0.00    -0.113 A  
HETATM   25  C   UNL     1      -5.587  10.812  71.394  1.00  0.00     0.111 A  
HETATM   26  C   UNL     1      -6.074  13.063  70.622  1.00  0.00     0.080 A  
HETATM   27  C   UNL     1      -6.122  11.204  69.100  1.00  0.00    -0.047 A  
BRANCH  26  28
HETATM   28  O   UNL     1      -6.361  14.399  70.825  1.00  0.00    -0.178 OA 
BRANCH  28  29
HETATM   29  C   UNL     1      -5.184  15.171  71.080  1.00  0.00    -0.134 C  
BRANCH  29  30
HETATM   30  C   UNL     1      -5.317  16.677  70.809  1.00  0.00    -0.141 C  
BRANCH  30  31
HETATM   31  N   UNL     1      -6.320  16.934  69.731  1.00  0.00    -0.212 NA 
HETATM   32  C   UNL     1      -5.910  18.070  68.887  1.00  0.00    -0.201 C  
HETATM   33  C   UNL     1      -6.831  18.482  67.740  1.00  0.00    -0.217 C  
HETATM   34  C   UNL     1      -6.814  17.494  66.590  1.00  0.00    -0.256 C  
HETATM   35  C   UNL     1      -7.767  16.323  66.771  1.00  0.00    -0.295 C  
HETATM   36  C   UNL     1      -7.905  15.781  68.190  1.00  0.00    -0.133 C  
HETATM   37  C   UNL     1      -6.600  15.698  68.990  1.00  0.00    -0.130 C  
ENDBRANCH  30  31
ENDBRANCH  29  30
ENDBRANCH  28  29
ENDBRANCH  26  28
ENDBRANCH  21  22
ENDBRANCH   5  21
TORSDOF 7
ENDMDL
MODEL      215
REMARK 921   NORMALIZED FREE ENERGY PREDICTED BY IDOCK:    1.36 KCAL/MOL
REMARK 922        TOTAL FREE ENERGY PREDICTED BY IDOCK:   -1.15 KCAL/MOL
REMARK 923 INTER-LIGAND FREE ENERGY PREDICTED BY IDOCK:   -1.63 KCAL/MOL
REMARK 924 INTRA-LIGAND FREE ENERGY PREDICTED BY IDOCK:    0.48 KCAL/MOL
REMARK 927      BINDING AFFINITY PREDICTED BY RF-SCORE:    0.00 PKD
ROOT
HETATM    1  C   UNL     1     -13.528  12.798  69.173  1.00  0.00     3.987 C  
HETATM    2  C   UNL     1     -12.329  13.658  69.420  1.00  0.00    -0.199 A  
HETATM    3  C   UNL     1     -11.207  13.909  68.616  1.00  0.00    -0.270 A  
HETATM    4  C   UNL     1     -11.802  16.540  72.417  1.00  0.00    -0.425 A  
HETATM    5  N   UNL     1     -10.432  14.861  69.317  1.00  0.00    -0.241 NA 
HETATM    6  O   UNL     1     -13.528  15.754  73.795  1.00  0.00    -0.689 OA 
HETATM    7  C   UNL     1     -11.162  15.341  70.402  1.00  0.00    -0.299 A  
HETATM    8  C   UNL     1     -12.793  15.615  72.656  1.00  0.00    -0.445 A  
HETATM    9  C   UNL     1     -12.237  14.476  70.585  1.00  0.00    -0.401 A  
HETATM   10  H   UNL     1     -13.351  16.444  74.423  1.00  0.00     0.000 HD 
HETATM   11  C   UNL     1     -11.011  16.436  71.273  1.00  0.00     0.331 A  
HETATM   12  C   UNL     1     -13.052  14.605  71.738  1.00  0.00    -0.420 A  
ENDROOT
BRANCH   3  13
HETATM   13  C   UNL     1     -10.868  13.320  67.288  1.00  0.00    -0.275 A  
HETATM   14  C   UNL     1     -10.076  12.288  64.775  1.00  0.00    -0.246 A  
HETATM   15  H   UNL     1      -9.571  12.423  62.813  1.00  0.00     0.000 HD 
HETATM   16  C   UNL     1     -10.770  14.139  66.150  1.00  0.00    -0.297 A  
HETATM   17  C   UNL     1     -10.343  13.640  64.913  1.00  0.00    -0.408 A  
HETATM   18  O   UNL     1      -9.670  11.839  63.555  1.00  0.00    -0.330 OA 
HETATM   19  C   UNL     1     -10.582  11.956  67.112  1.00  0.00    -0.264 A  
HETATM   20  C   UNL     1     -10.221  11.434  65.859  1.00  0.00    -0.292 A  
ENDBRANCH   3  13
BRANCH   5  21
HETATM   21  C   UNL     1      -9.051  15.259  68.932  1.00  0.00    -0.209 C  
BRANCH  21  22
HETATM   22  C   UNL     1      -8.032  14.159  68.760  1.00  0.00    -0.102 A  
HETATM   23  C   UNL     1      -6.520  12.936  67.327  1.00  0.00    -0.035 A  
HETATM   24  C   UNL     1      -7.017  12.067  69.503  1.00  0.00     0.085 A  
HETATM   25  C   UNL     1      -7.332  14.042  67.560  1.00  0.00    -0.187 A  
HETATM   26  C   UNL     1      -6.445  11.889  68.252  1.00  0.00    -0.052 A  
HETATM   27  C   UNL     1      -7.727  13.236  69.773  1.00  0.00     1.205 A  
BRANCH  26  28
HETATM   28  O   UNL     1      -5.859  10.663  68.005  1.00  0.00    -0.043 OA 
BRANCH  28  29
HETATM   29  C   UNL     1      -6.184   9.697  69.008  1.00  0.00    -0.041 C  
BRANCH  29  30
HETATM   30  C   UNL     1      -6.543  10.276  70.384  1.00  0.00    -0.126 C  
BRANCH  30  31
HETATM   31  N   UNL     1      -7.103   9.215  71.275  1.00  0.00    -0.239 NA 
HETATM   32  C   UNL     1      -8.562   9.102  71.110  1.00  0.00    -0.130 C  
HETATM   33  C   UNL     1      -9.303   8.071  71.961  1.00  0.00    -0.237 C  
HETATM   34  C   UNL     1      -9.041   6.645  71.515  1.00  0.00    -0.142 C  
HETATM   35  C   UNL     1      -7.777   6.039  72.103  1.00  0.00    -0.101 C  
HETATM   36  C   UNL     1      -6.587   6.981  72.254  1.00  0.00    -0.057 C  
HETATM   37  C   UNL     1      -6.371   7.956  71.092  1.00  0.00    -0.034 C  
ENDBRANCH  30  31
ENDBRANCH  29  30
ENDBRANCH  28  29
ENDBRANCH  26  28
ENDBRANCH  21  22
ENDBRANCH   5  21
TORSDOF 7
ENDMDL
MODEL      216
REMARK 921   NORMALIZED FREE ENERGY PREDICTED BY IDOCK:    2.65 KCAL/MOL
REMARK 922        TOTAL FREE ENERGY PREDICTED BY IDOCK:    0.67 KCAL/MOL
REMARK 923 INTER-LIGAND FREE ENERGY PREDICTED BY IDOCK:   -4.46 KCAL/MOL
REMARK 924 INTRA-LIGAND FREE ENERGY PREDICTED BY IDOCK:    5.12 KCAL/MOL
REMARK 927      BINDING AFFINITY PREDICTED BY RF-SCORE:    0.00 PKD
ROOT
HETATM    1  C   UNL     1     -10.756  10.722  64.250  1.00  0.00    -0.096 C  
HETATM    2  C   UNL     1     -10.398  10.749  65.702  1.00  0.00    -0.297 A  
HETATM    3  C   UNL     1     -10.219  11.831  66.576  1.00  0.00    -0.208 A  
HETATM    4  C   UNL     1     -10.378   7.548  68.408  1.00  0.00    -0.226 A  
HETATM    5  N   UNL     1      -9.969  11.266  67.848  1.00  0.00    -0.172 NA 
HETATM    6  O   UNL     1     -10.341   5.868  66.773  1.00  0.00    -0.199 OA 
HETATM    7  C   UNL     1     -10.207   9.895  67.798  1.00  0.00    -0.197 A  
HETATM    8  C   UNL     1     -10.333   7.197  67.078  1.00  0.00    -0.298 A  
HETATM    9  C   UNL     1     -10.278   9.542  66.454  1.00  0.00    -0.302 A  
HETATM   10  H   UNL     1     -10.347   5.201  67.449  1.00  0.00     0.000 HD 
HETATM   11  C   UNL     1     -10.358   8.894  68.776  1.00  0.00    -0.232 A  
HETATM   12  C   UNL     1     -10.325   8.173  66.090  1.00  0.00     0.480 A  
ENDROOT
BRANCH   3  13
HETATM   13  C   UNL     1     -10.282  13.290  66.270  1.00  0.00    -0.296 A  
HETATM   14  C   UNL     1     -10.497  16.077  65.830  1.00  0.00    -0.374 A  
HETATM   15  H   UNL     1     -11.494  17.797  65.416  1.00  0.00     0.000 HD 
HETATM   16  C   UNL     1     -11.494  13.886  65.882  1.00  0.00    -0.328 A  
HETATM   17  C   UNL     1     -11.614  15.269  65.698  1.00  0.00    -0.039 A  
HETATM   18  O   UNL     1     -10.652  17.417  65.637  1.00  0.00    -0.534 OA 
HETATM   19  C   UNL     1      -9.172  14.142  66.402  1.00  0.00    -0.209 A  
HETATM   20  C   UNL     1      -9.267  15.521  66.152  1.00  0.00    -0.379 A  
ENDBRANCH   3  13
BRANCH   5  21
HETATM   21  C   UNL     1      -9.516  12.045  69.032  1.00  0.00     0.284 C  
BRANCH  21  22
HETATM   22  C   UNL     1      -9.945  13.489  69.122  1.00  0.00     0.251 A  
HETATM   23  C   UNL     1      -9.393  15.793  69.596  1.00  0.00    -0.176 A  
HETATM   24  C   UNL     1     -11.695  15.176  69.350  1.00  0.00    -0.355 A  
HETATM   25  C   UNL     1      -8.994  14.485  69.341  1.00  0.00     0.217 A  
HETATM   26  C   UNL     1     -10.748  16.123  69.712  1.00  0.00    -0.336 A  
HETATM   27  C   UNL     1     -11.280  13.899  68.974  1.00  0.00    -0.312 A  
BRANCH  26  28
HETATM   28  O   UNL     1     -11.225  17.328  70.190  1.00  0.00     0.480 OA 
BRANCH  28  29
HETATM   29  C   UNL     1     -10.982  18.404  69.279  1.00  0.00     1.454 C  
BRANCH  29  30
HETATM   30  C   UNL     1     -10.295  18.008  67.965  1.00  0.00    -0.387 C  
BRANCH  30  31
HETATM   31  N   UNL     1      -9.056  18.816  67.751  1.00  0.00    -0.283 NA 
HETATM   32  C   UNL     1      -7.902  18.209  68.437  1.00  0.00    -0.297 C  
HETATM   33  C   UNL     1      -6.552  18.917  68.335  1.00  0.00    -0.260 C  
HETATM   34  C   UNL     1      -5.927  18.792  66.959  1.00  0.00    -0.171 C  
HETATM   35  C   UNL     1      -6.410  19.838  65.967  1.00  0.00    -0.206 C  
HETATM   36  C   UNL     1      -7.882  20.224  66.061  1.00  0.00    -0.179 C  
HETATM   37  C   UNL     1      -8.850  19.064  66.319  1.00  0.00    -0.277 C  
ENDBRANCH  30  31
ENDBRANCH  29  30
ENDBRANCH  28  29
ENDBRANCH  26  28
ENDBRANCH  21  22
ENDBRANCH   5  21
TORSDOF 7
ENDMDL
MODEL      217
REMARK 921   NORMALIZED FREE ENERGY PREDICTED BY IDOCK:    3.75 KCAL/MOL
REMARK 922        TOTAL FREE ENERGY PREDICTED BY IDOCK:    2.21 KCAL/MOL
REMARK 923 INTER-LIGAND FREE ENERGY PREDICTED BY IDOCK:    2.30 KCAL/MOL
REMARK 924 INTRA-LIGAND FREE ENERGY PREDICTED BY IDOCK:   -0.09 KCAL/MOL
REMARK 927      BINDING AFFINITY PREDICTED BY RF-SCORE:    0.00 PKD
ROOT
HETATM    1  C   UNL     1      -9.830  16.171  64.264  1.00  0.00     3.495 C  
HETATM    2  C   UNL     1     -10.541  15.715  65.499  1.00  0.00    -0.422 A  
HETATM    3  C   UNL     1     -11.220  14.518  65.771  1.00  0.00    -0.334 A  
HETATM    4  C   UNL     1     -10.391  17.413  69.328  1.00  0.00    -0.212 A  
HETATM    5  N   UNL     1     -11.626  14.599  67.123  1.00  0.00    -0.375 NA 
HETATM    6  O   UNL     1      -9.557  19.488  68.625  1.00  0.00    -0.376 OA 
HETATM    7  C   UNL     1     -11.024  15.705  67.719  1.00  0.00    -0.316 A  
HETATM    8  C   UNL     1      -9.999  18.240  68.301  1.00  0.00    -0.364 A  
HETATM    9  C   UNL     1     -10.520  16.498  66.692  1.00  0.00    -0.266 A  
HETATM   10  H   UNL     1      -9.545  19.795  69.524  1.00  0.00     0.000 HD 
HETATM   11  C   UNL     1     -10.864  16.130  69.051  1.00  0.00    -0.299 A  
HETATM   12  C   UNL     1     -10.016  17.790  66.986  1.00  0.00    -0.322 A  
ENDROOT
BRANCH   3  13
HETATM   13  C   UNL     1     -11.476  13.369  64.854  1.00  0.00    -0.346 A  
HETATM   14  C   UNL     1     -11.818  11.116  63.177  1.00  0.00     0.853 A  
HETATM   15  H   UNL     1     -11.303   9.855  61.671  1.00  0.00     0.000 HD 
HETATM   16  C   UNL     1     -10.610  13.110  63.777  1.00  0.00    -0.040 A  
HETATM   17  C   UNL     1     -10.754  11.977  62.968  1.00  0.00    -0.081 A  
HETATM   18  O   UNL     1     -11.929  10.027  62.365  1.00  0.00     4.122 OA 
HETATM   19  C   UNL     1     -12.539  12.470  65.041  1.00  0.00    -0.424 A  
HETATM   20  C   UNL     1     -12.732  11.368  64.191  1.00  0.00     0.643 A  
ENDBRANCH   3  13
BRANCH   5  21
HETATM   21  C   UNL     1     -12.558  13.639  67.772  1.00  0.00     0.566 C  
BRANCH  21  22
HETATM   22  C   UNL     1     -11.951  12.508  68.566  1.00  0.00    -0.266 A  
HETATM   23  C   UNL     1     -10.960  10.305  68.617  1.00  0.00    -0.289 A  
HETATM   24  C   UNL     1     -11.635  11.324  70.678  1.00  0.00    -0.117 A  
HETATM   25  C   UNL     1     -11.367  11.429  67.905  1.00  0.00    -0.371 A  
HETATM   26  C   UNL     1     -11.194  10.201  69.993  1.00  0.00    -0.299 A  
HETATM   27  C   UNL     1     -11.923  12.490  69.970  1.00  0.00    -0.372 A  
BRANCH  26  28
HETATM   28  O   UNL     1     -11.041   9.043  70.731  1.00  0.00    -0.245 OA 
BRANCH  28  29
HETATM   29  C   UNL     1      -9.740   8.945  71.317  1.00  0.00    -0.289 C  
BRANCH  29  30
HETATM   30  C   UNL     1      -8.572   9.291  70.382  1.00  0.00    -0.219 C  
BRANCH  30  31
HETATM   31  N   UNL     1      -8.626   8.464  69.139  1.00  0.00    -0.133 NA 
HETATM   32  C   UNL     1      -7.514   8.799  68.232  1.00  0.00    -0.092 C  
HETATM   33  C   UNL     1      -7.425   8.055  66.900  1.00  0.00    -0.091 C  
HETATM   34  C   UNL     1      -6.989   6.612  67.062  1.00  0.00    -0.071 C  
HETATM   35  C   UNL     1      -8.129   5.657  67.378  1.00  0.00    -0.102 C  
HETATM   36  C   UNL     1      -9.219   6.193  68.300  1.00  0.00    -0.114 C  
HETATM   37  C   UNL     1      -8.725   7.040  69.478  1.00  0.00    -0.134 C  
ENDBRANCH  30  31
ENDBRANCH  29  30
ENDBRANCH  28  29
ENDBRANCH  26  28
ENDBRANCH  21  22
ENDBRANCH   5  21
TORSDOF 7
ENDMDL
MODEL      218
REMARK 921   NORMALIZED FREE ENERGY PREDICTED BY IDOCK:    4.60 KCAL/MOL
REMARK 922        TOTAL FREE ENERGY PREDICTED BY IDOCK:    3.42 KCAL/MOL
REMARK 923 INTER-LIGAND FREE ENERGY PREDICTED BY IDOCK:   -1.67 KCAL/MOL
REMARK 924 INTRA-LIGAND FREE ENERGY PREDICTED BY IDOCK:    5.09 KCAL/MOL
REMARK 927      BINDING AFFINITY PREDICTED BY RF-SCORE:    0.00 PKD
ROOT
HETATM    1  C   UNL     1     -12.817  13.283  66.795  1.00  0.00     0.835 C  
HETATM    2  C   UNL     1     -11.333  13.214  66.613  1.00  0.00    -0.361 A  
HETATM    3  C   UNL     1     -10.368  14.232  66.603  1.00  0.00    -0.279 A  
HETATM    4  C   UNL     1      -8.882   9.816  66.728  1.00  0.00    -0.151 A  
HETATM    5  N   UNL     1      -9.119  13.583  66.472  1.00  0.00    -0.171 NA 
HETATM    6  O   UNL     1     -10.616   8.273  66.400  1.00  0.00    -0.333 OA 
HETATM    7  C   UNL     1      -9.296  12.209  66.622  1.00  0.00    -0.226 A  
HETATM    8  C   UNL     1     -10.218   9.572  66.506  1.00  0.00    -0.237 A  
HETATM    9  C   UNL     1     -10.661  11.959  66.513  1.00  0.00    -0.293 A  
HETATM   10  H   UNL     1      -9.995   7.556  66.447  1.00  0.00     0.000 HD 
HETATM   11  C   UNL     1      -8.419  11.129  66.830  1.00  0.00    -0.147 A  
HETATM   12  C   UNL     1     -11.125  10.622  66.437  1.00  0.00     0.039 A  
ENDROOT
BRANCH   3  13
HETATM   13  C   UNL     1     -10.574  15.706  66.713  1.00  0.00    -0.307 A  
HETATM   14  C   UNL     1     -10.818  18.509  67.011  1.00  0.00    -0.207 A  
HETATM   15  H   UNL     1     -11.053  20.228  68.065  1.00  0.00     0.000 HD 
HETATM   16  C   UNL     1     -10.843  16.297  67.960  1.00  0.00    -0.339 A  
HETATM   17  C   UNL     1     -10.928  17.685  68.118  1.00  0.00    -0.089 A  
HETATM   18  O   UNL     1     -10.913  19.854  67.203  1.00  0.00    -0.369 OA 
HETATM   19  C   UNL     1     -10.461  16.573  65.613  1.00  0.00    -0.341 A  
HETATM   20  C   UNL     1     -10.614  17.962  65.751  1.00  0.00    -0.175 A  
ENDBRANCH   3  13
BRANCH   5  21
HETATM   21  C   UNL     1      -7.836  14.288  66.208  1.00  0.00     1.764 C  
BRANCH  21  22
HETATM   22  C   UNL     1      -7.178  14.993  67.368  1.00  0.00    -0.224 A  
HETATM   23  C   UNL     1      -7.379  16.337  69.366  1.00  0.00    -0.173 A  
HETATM   24  C   UNL     1      -5.212  16.012  68.397  1.00  0.00    -0.101 A  
HETATM   25  C   UNL     1      -7.960  15.540  68.385  1.00  0.00    -0.127 A  
HETATM   26  C   UNL     1      -6.021  16.669  69.314  1.00  0.00    -0.173 A  
HETATM   27  C   UNL     1      -5.785  15.116  67.495  1.00  0.00     0.037 A  
BRANCH  26  28
HETATM   28  O   UNL     1      -5.416  17.631  70.099  1.00  0.00    -0.217 OA 
BRANCH  28  29
HETATM   29  C   UNL     1      -6.325  18.211  71.039  1.00  0.00     1.491 C  
BRANCH  29  30
HETATM   30  C   UNL     1      -7.329  19.211  70.449  1.00  0.00     1.113 C  
BRANCH  30  31
HETATM   31  N   UNL     1      -6.924  19.615  69.068  1.00  0.00    -0.347 NA 
HETATM   32  C   UNL     1      -5.708  18.899  68.642  1.00  0.00    -0.206 C  
HETATM   33  C   UNL     1      -5.144  19.204  67.256  1.00  0.00    -0.160 C  
HETATM   34  C   UNL     1      -5.994  18.632  66.137  1.00  0.00    -0.202 C  
HETATM   35  C   UNL     1      -7.153  19.526  65.727  1.00  0.00    -0.318 C  
HETATM   36  C   UNL     1      -7.851  20.282  66.852  1.00  0.00    -0.351 C  
HETATM   37  C   UNL     1      -8.059  19.487  68.147  1.00  0.00    -0.319 C  
ENDBRANCH  30  31
ENDBRANCH  29  30
ENDBRANCH  28  29
ENDBRANCH  26  28
ENDBRANCH  21  22
ENDBRANCH   5  21
TORSDOF 7
ENDMDL
MODEL      219
REMARK 921   NORMALIZED FREE ENERGY PREDICTED BY IDOCK:    5.79 KCAL/MOL
REMARK 922        TOTAL FREE ENERGY PREDICTED BY IDOCK:    5.09 KCAL/MOL
REMARK 923 INTER-LIGAND FREE ENERGY PREDICTED BY IDOCK:    2.88 KCAL/MOL
REMARK 924 INTRA-LIGAND FREE ENERGY PREDICTED BY IDOCK:    2.21 KCAL/MOL
REMARK 927      BINDING AFFINITY PREDICTED BY RF-SCORE:    0.00 PKD
ROOT
HETATM    1  C   UNL     1      -7.586   9.203  70.577  1.00  0.00    -0.130 C  
HETATM    2  C   UNL     1      -8.771   9.247  69.665  1.00  0.00    -0.155 A  
HETATM    3  C   UNL     1      -8.925   8.788  68.348  1.00  0.00    -0.141 A  
HETATM    4  C   UNL     1     -12.747  10.132  70.653  1.00  0.00    -0.334 A  
HETATM    5  N   UNL     1     -10.279   9.020  68.011  1.00  0.00    -0.202 NA 
HETATM    6  O   UNL     1     -12.248  11.172  72.694  1.00  0.00     1.576 OA 
HETATM    7  C   UNL     1     -10.979   9.399  69.154  1.00  0.00    -0.090 A  
HETATM    8  C   UNL     1     -11.804  10.561  71.559  1.00  0.00    -0.021 A  
HETATM    9  C   UNL     1     -10.034   9.729  70.121  1.00  0.00    -0.315 A  
HETATM   10  H   UNL     1     -13.173  11.327  72.848  1.00  0.00     0.000 HD 
HETATM   11  C   UNL     1     -12.346   9.512  69.469  1.00  0.00     1.054 A  
HETATM   12  C   UNL     1     -10.453  10.333  71.333  1.00  0.00     1.386 A  
ENDROOT
BRANCH   3  13
HETATM   13  C   UNL     1      -7.901   8.170  67.456  1.00  0.00    -0.110 A  
HETATM   14  C   UNL     1      -6.037   6.846  65.789  1.00  0.00    -0.036 A  
HETATM   15  H   UNL     1      -4.547   5.526  65.389  1.00  0.00     0.000 HD 
HETATM   16  C   UNL     1      -6.960   7.263  67.973  1.00  0.00    -0.079 A  
HETATM   17  C   UNL     1      -6.060   6.579  67.147  1.00  0.00    -0.028 A  
HETATM   18  O   UNL     1      -5.144   6.165  65.018  1.00  0.00    -0.013 OA 
HETATM   19  C   UNL     1      -7.854   8.411  66.073  1.00  0.00    -0.098 A  
HETATM   20  C   UNL     1      -6.909   7.781  65.246  1.00  0.00    -0.051 A  
ENDBRANCH   3  13
BRANCH   5  21
HETATM   21  C   UNL     1     -10.832   8.878  66.638  1.00  0.00     0.258 C  
BRANCH  21  22
HETATM   22  C   UNL     1     -10.623  10.025  65.681  1.00  0.00     0.099 A  
HETATM   23  C   UNL     1      -9.936  12.310  65.296  1.00  0.00    -0.250 A  
HETATM   24  C   UNL     1     -11.097  11.137  63.560  1.00  0.00    -0.095 A  
HETATM   25  C   UNL     1      -9.982  11.185  66.115  1.00  0.00    -0.273 A  
HETATM   26  C   UNL     1     -10.590  12.328  64.060  1.00  0.00    -0.400 A  
HETATM   27  C   UNL     1     -11.029   9.982  64.337  1.00  0.00     2.507 A  
BRANCH  26  28
HETATM   28  O   UNL     1     -10.794  13.460  63.295  1.00  0.00     0.379 OA 
BRANCH  28  29
HETATM   29  C   UNL     1     -11.708  14.371  63.913  1.00  0.00     0.033 C  
BRANCH  29  30
HETATM   30  C   UNL     1     -11.100  15.280  64.990  1.00  0.00    -0.426 C  
BRANCH  30  31
HETATM   31  N   UNL     1     -10.676  14.481  66.180  1.00  0.00    -0.303 NA 
HETATM   32  C   UNL     1      -9.217  14.549  66.369  1.00  0.00    -0.234 C  
HETATM   33  C   UNL     1      -8.608  13.774  67.536  1.00  0.00    -0.194 C  
HETATM   34  C   UNL     1      -8.912  14.402  68.882  1.00  0.00    -0.067 C  
HETATM   35  C   UNL     1     -10.253  13.986  69.466  1.00  0.00     0.294 C  
HETATM   36  C   UNL     1     -11.396  13.815  68.472  1.00  0.00    -0.318 C  
HETATM   37  C   UNL     1     -11.461  14.867  67.358  1.00  0.00    -0.343 C  
ENDBRANCH  30  31
ENDBRANCH  29  30
ENDBRANCH  28  29
ENDBRANCH  26  28
ENDBRANCH  21  22
ENDBRANCH   5  21
TORSDOF 7
ENDMDL
MODEL      220
REMARK 921   NORMALIZED FREE ENERGY PREDICTED BY IDOCK:    5.84 KCAL/MOL
REMARK 922        TOTAL FREE ENERGY PREDICTED BY IDOCK:    5.16 KCAL/MOL
REMARK 923 INTER-LIGAND FREE ENERGY PREDICTED BY IDOCK:    4.43 KCAL/MOL
REMARK 924 INTRA-LIGAND FREE ENERGY PREDICTED BY IDOCK:    0.73 KCAL/MOL
REMARK 927      BINDING AFFINITY PREDICTED BY RF-SCORE:    0.00 PKD
ROOT
HETATM    1  C   UNL     1      -8.662  20.323  68.592  1.00  0.00     0.265 C  
HETATM    2  C   UNL     1      -8.900  19.075  67.802  1.00  0.00    -0.326 A  
HETATM    3  C   UNL     1      -8.464  17.761  68.022  1.00  0.00    -0.253 A  
HETATM    4  C   UNL     1     -11.675  18.471  64.720  1.00  0.00     4.337 A  
HETATM    5  N   UNL     1      -9.054  16.979  67.002  1.00  0.00    -0.215 NA 
HETATM    6  O   UNL     1     -12.021  20.747  64.276  1.00  0.00     1.058 OA 
HETATM    7  C   UNL     1      -9.994  17.747  66.319  1.00  0.00    -0.318 A  
HETATM    8  C   UNL     1     -11.368  19.785  64.987  1.00  0.00     1.387 A  
HETATM    9  C   UNL     1      -9.767  19.075  66.669  1.00  0.00    -0.383 A  
HETATM   10  H   UNL     1     -12.648  20.526  63.596  1.00  0.00     0.000 HD 
HETATM   11  C   UNL     1     -11.025  17.447  65.410  1.00  0.00     0.137 A  
HETATM   12  C   UNL     1     -10.452  20.108  65.981  1.00  0.00    -0.446 A  
ENDROOT
BRANCH   3  13
HETATM   13  C   UNL     1      -7.569  17.249  69.101  1.00  0.00    -0.103 A  
HETATM   14  C   UNL     1      -5.942  16.396  71.253  1.00  0.00     1.025 A  
HETATM   15  H   UNL     1      -4.494  16.619  72.659  1.00  0.00     0.000 HD 
HETATM   16  C   UNL     1      -6.536  18.054  69.612  1.00  0.00    -0.076 A  
HETATM   17  C   UNL     1      -5.753  17.651  70.700  1.00  0.00     0.019 A  
HETATM   18  O   UNL     1      -5.157  16.037  72.307  1.00  0.00    -0.150 OA 
HETATM   19  C   UNL     1      -7.738  15.986  69.692  1.00  0.00     0.062 A  
HETATM   20  C   UNL     1      -6.911  15.545  70.739  1.00  0.00     0.878 A  
ENDBRANCH   3  13
BRANCH   5  21
HETATM   21  C   UNL     1      -8.698  15.562  66.726  1.00  0.00    -0.267 C  
BRANCH  21  22
HETATM   22  C   UNL     1      -9.705  14.504  67.103  1.00  0.00    -0.240 A  
HETATM   23  C   UNL     1     -10.208  12.421  68.220  1.00  0.00    -0.230 A  
HETATM   24  C   UNL     1     -11.829  13.361  66.727  1.00  0.00    -0.452 A  
HETATM   25  C   UNL     1      -9.351  13.494  67.997  1.00  0.00    -0.213 A  
HETATM   26  C   UNL     1     -11.403  12.292  67.502  1.00  0.00    -0.325 A  
HETATM   27  C   UNL     1     -11.019  14.489  66.608  1.00  0.00    -0.321 A  
BRANCH  26  28
HETATM   28  O   UNL     1     -12.191  11.158  67.485  1.00  0.00    -0.220 OA 
BRANCH  28  29
HETATM   29  C   UNL     1     -11.653  10.113  68.301  1.00  0.00     0.165 C  
BRANCH  29  30
HETATM   30  C   UNL     1     -10.143   9.877  68.150  1.00  0.00    -0.165 C  
BRANCH  30  31
HETATM   31  N   UNL     1      -9.578   9.260  69.389  1.00  0.00    -0.163 NA 
HETATM   32  C   UNL     1      -9.367   7.813  69.211  1.00  0.00    -0.148 C  
HETATM   33  C   UNL     1      -8.806   7.019  70.389  1.00  0.00    -0.155 C  
HETATM   34  C   UNL     1      -7.339   7.303  70.644  1.00  0.00    -0.071 C  
HETATM   35  C   UNL     1      -7.091   8.528  71.511  1.00  0.00    -0.096 C  
HETATM   36  C   UNL     1      -8.030   9.708  71.291  1.00  0.00     0.605 C  
HETATM   37  C   UNL     1      -8.389   9.998  69.829  1.00  0.00    -0.172 C  
ENDBRANCH  30  31
ENDBRANCH  29  30
ENDBRANCH  28  29
ENDBRANCH  26  28
ENDBRANCH  21  22
ENDBRANCH   5  21
TORSDOF 7
ENDMDL
MODEL      221
REMARK 921   NORMALIZED FREE ENERGY PREDICTED BY IDOCK:    9.24 KCAL/MOL
REMARK 922        TOTAL FREE ENERGY PREDICTED BY IDOCK:    9.95 KCAL/MOL
REMARK 923 INTER-LIGAND FREE ENERGY PREDICTED BY IDOCK:   12.13 KCAL/MOL
REMARK 924 INTRA-LIGAND FREE ENERGY PREDICTED BY IDOCK:   -2.17 KCAL/MOL
REMARK 927      BINDING AFFINITY PREDICTED BY RF-SCORE:    0.00 PKD
ROOT
HETATM    1  C   UNL     1     -12.045  16.128  63.783  1.00  0.00     1.211 C  
HETATM    2  C   UNL     1     -11.150  16.375  64.957  1.00  0.00    -0.216 A  
HETATM    3  C   UNL     1     -10.507  15.474  65.818  1.00  0.00    -0.361 A  
HETATM    4  C   UNL     1      -9.318  19.973  66.083  1.00  0.00    -0.415 A  
HETATM    5  N   UNL     1      -9.728  16.263  66.695  1.00  0.00    -0.238 NA 
HETATM    6  O   UNL     1     -10.728  21.352  64.817  1.00  0.00     1.751 OA 
HETATM    7  C   UNL     1      -9.720  17.581  66.245  1.00  0.00    -0.258 A  
HETATM    8  C   UNL     1     -10.398  20.099  65.240  1.00  0.00     0.226 A  
HETATM    9  C   UNL     1     -10.738  17.696  65.303  1.00  0.00     0.151 A  
HETATM   10  H   UNL     1     -10.254  22.120  65.113  1.00  0.00     0.000 HD 
HETATM   11  C   UNL     1      -8.946  18.714  66.557  1.00  0.00    -0.308 A  
HETATM   12  C   UNL     1     -11.092  18.976  64.807  1.00  0.00     2.368 A  
ENDROOT
BRANCH   3  13
HETATM   13  C   UNL     1     -10.594  13.984  65.833  1.00  0.00    -0.302 A  
HETATM   14  C   UNL     1     -10.848  11.168  65.715  1.00  0.00    -0.151 A  
HETATM   15  H   UNL     1     -11.875   9.417  65.732  1.00  0.00     0.000 HD 
HETATM   16  C   UNL     1     -11.830  13.344  66.030  1.00  0.00    -0.423 A  
HETATM   17  C   UNL     1     -11.966  11.954  65.937  1.00  0.00     0.034 A  
HETATM   18  O   UNL     1     -11.020   9.819  65.637  1.00  0.00     0.602 OA 
HETATM   19  C   UNL     1      -9.482  13.157  65.603  1.00  0.00     0.090 A  
HETATM   20  C   UNL     1      -9.598  11.757  65.577  1.00  0.00    -0.222 A  
ENDBRANCH   3  13
BRANCH   5  21
HETATM   21  C   UNL     1      -9.044  15.735  67.906  1.00  0.00    -0.186 C  
BRANCH  21  22
HETATM   22  C   UNL     1      -9.908  15.132  68.987  1.00  0.00    -0.238 A  
HETATM   23  C   UNL     1     -11.966  15.151  70.252  1.00  0.00    -0.361 A  
HETATM   24  C   UNL     1     -10.152  13.779  71.004  1.00  0.00     4.647 A  
HETATM   25  C   UNL     1     -11.219  15.573  69.156  1.00  0.00    -0.300 A  
HETATM   26  C   UNL     1     -11.399  14.340  71.241  1.00  0.00     0.534 A  
HETATM   27  C   UNL     1      -9.460  14.111  69.840  1.00  0.00     1.211 A  
BRANCH  26  28
HETATM   28  O   UNL     1     -11.981  14.069  72.464  1.00  0.00     0.255 OA 
BRANCH  28  29
HETATM   29  C   UNL     1     -13.395  13.879  72.359  1.00  0.00    -0.529 C  
BRANCH  29  30
HETATM   30  C   UNL     1     -13.873  12.427  72.492  1.00  0.00     0.189 C  
BRANCH  30  31
HETATM   31  N   UNL     1     -12.860  11.482  71.931  1.00  0.00    -0.347 NA 
HETATM   32  C   UNL     1     -12.531  10.422  72.900  1.00  0.00     2.807 C  
HETATM   33  C   UNL     1     -11.496   9.375  72.494  1.00  0.00     0.767 C  
HETATM   34  C   UNL     1     -12.020   8.402  71.457  1.00  0.00    -0.344 C  
HETATM   35  C   UNL     1     -11.894   8.901  70.026  1.00  0.00     0.327 C  
HETATM   36  C   UNL     1     -12.136  10.390  69.810  1.00  0.00    -0.208 C  
HETATM   37  C   UNL     1     -13.292  10.992  70.617  1.00  0.00     0.365 C  
ENDBRANCH  30  31
ENDBRANCH  29  30
ENDBRANCH  28  29
ENDBRANCH  26  28
ENDBRANCH  21  22
ENDBRANCH   5  21
TORSDOF 7
ENDMDL
MODEL      222
REMARK 921   NORMALIZED FREE ENERGY PREDICTED BY IDOCK:   12.29 KCAL/MOL
REMARK 922        TOTAL FREE ENERGY PREDICTED BY IDOCK:   14.25 KCAL/MOL
REMARK 923 INTER-LIGAND FREE ENERGY PREDICTED BY IDOCK:   12.03 KCAL/MOL
REMARK 924 INTRA-LIGAND FREE ENERGY PREDICTED BY IDOCK:    2.22 KCAL/MOL
REMARK 927      BINDING AFFINITY PREDICTED BY RF-SCORE:    0.00 PKD
ROOT
HETATM    1  C   UNL     1     -10.207  16.057  69.587  1.00  0.00    -0.265 C  
HETATM    2  C   UNL     1      -9.610  14.712  69.317  1.00  0.00    -0.018 A  
HETATM    3  C   UNL     1      -8.481  14.349  68.569  1.00  0.00    -0.170 A  
HETATM    4  C   UNL     1     -10.480  11.083  71.226  1.00  0.00     3.643 A  
HETATM    5  N   UNL     1      -8.343  12.951  68.726  1.00  0.00     0.052 NA 
HETATM    6  O   UNL     1     -12.529  11.784  72.125  1.00  0.00     0.182 OA 
HETATM    7  C   UNL     1      -9.222  12.509  69.712  1.00  0.00     2.459 A  
HETATM    8  C   UNL     1     -11.437  12.063  71.358  1.00  0.00     2.466 A  
HETATM    9  C   UNL     1     -10.132  13.538  69.938  1.00  0.00     1.445 A  
HETATM   10  H   UNL     1     -12.647  10.935  72.534  1.00  0.00     0.000 HD 
HETATM   11  C   UNL     1      -9.350  11.312  70.441  1.00  0.00     3.064 A  
HETATM   12  C   UNL     1     -11.264  13.305  70.760  1.00  0.00     1.361 A  
ENDROOT
BRANCH   3  13
HETATM   13  C   UNL     1      -7.580  15.227  67.767  1.00  0.00    -0.171 A  
HETATM   14  C   UNL     1      -5.942  17.027  66.323  1.00  0.00     0.081 A  
HETATM   15  H   UNL     1      -5.585  18.517  64.991  1.00  0.00     0.000 HD 
HETATM   16  C   UNL     1      -8.105  16.071  66.774  1.00  0.00    -0.302 A  
HETATM   17  C   UNL     1      -7.305  16.989  66.083  1.00  0.00    -0.225 A  
HETATM   18  O   UNL     1      -5.195  17.929  65.627  1.00  0.00    -0.172 OA 
HETATM   19  C   UNL     1      -6.194  15.298  67.990  1.00  0.00    -0.156 A  
HETATM   20  C   UNL     1      -5.373  16.167  67.252  1.00  0.00    -0.053 A  
ENDBRANCH   3  13
BRANCH   5  21
HETATM   21  C   UNL     1      -7.401  12.112  67.937  1.00  0.00    -0.108 C  
BRANCH  21  22
HETATM   22  C   UNL     1      -7.538  10.614  68.054  1.00  0.00    -0.091 A  
HETATM   23  C   UNL     1      -7.954   8.479  67.001  1.00  0.00    -0.100 A  
HETATM   24  C   UNL     1      -7.951   8.615  69.393  1.00  0.00    -0.102 A  
HETATM   25  C   UNL     1      -7.657   9.835  66.903  1.00  0.00    -0.095 A  
HETATM   26  C   UNL     1      -8.212   7.886  68.242  1.00  0.00    -0.124 A  
HETATM   27  C   UNL     1      -7.532   9.940  69.285  1.00  0.00    -0.096 A  
BRANCH  26  28
HETATM   28  O   UNL     1      -8.739   6.620  68.413  1.00  0.00    -0.123 OA 
BRANCH  28  29
HETATM   29  C   UNL     1      -7.880   5.779  69.188  1.00  0.00    -0.090 C  
BRANCH  29  30
HETATM   30  C   UNL     1      -7.307   6.421  70.460  1.00  0.00    -0.085 C  
BRANCH  30  31
HETATM   31  N   UNL     1      -6.427   5.457  71.189  1.00  0.00    -0.034 NA 
HETATM   32  C   UNL     1      -6.657   5.526  72.642  1.00  0.00    -0.066 C  
HETATM   33  C   UNL     1      -5.827   4.614  73.544  1.00  0.00    -0.017 C  
HETATM   34  C   UNL     1      -6.239   3.158  73.447  1.00  0.00    -0.012 C  
HETATM   35  C   UNL     1      -5.586   2.409  72.297  1.00  0.00    -0.008 C  
HETATM   36  C   UNL     1      -5.395   3.195  71.005  1.00  0.00    -0.008 C  
HETATM   37  C   UNL     1      -6.560   4.113  70.616  1.00  0.00    -0.031 C  
ENDBRANCH  30  31
ENDBRANCH  29  30
ENDBRANCH  28  29
ENDBRANCH  26  28
ENDBRANCH  21  22
ENDBRANCH   5  21
TORSDOF 7
ENDMDL
MODEL      223
REMARK 921   NORMALIZED FREE ENERGY PREDICTED BY IDOCK:   12.80 KCAL/MOL
REMARK 922        TOTAL FREE ENERGY PREDICTED BY IDOCK:   14.97 KCAL/MOL
REMARK 923 INTER-LIGAND FREE ENERGY PREDICTED BY IDOCK:   -1.85 KCAL/MOL
REMARK 924 INTRA-LIGAND FREE ENERGY PREDICTED BY IDOCK:   16.82 KCAL/MOL
REMARK 927      BINDING AFFINITY PREDICTED BY RF-SCORE:    0.00 PKD
ROOT
HETATM    1  C   UNL     1     -11.151   5.024  70.199  1.00  0.00     0.945 C  
HETATM    2  C   UNL     1     -10.707   6.430  69.943  1.00  0.00    -0.332 A  
HETATM    3  C   UNL     1      -9.795   6.942  69.008  1.00  0.00    -0.152 A  
HETATM    4  C   UNL     1     -12.430   9.973  71.373  1.00  0.00    -0.510 A  
HETATM    5  N   UNL     1      -9.827   8.347  69.163  1.00  0.00    -0.178 NA 
HETATM    6  O   UNL     1     -13.633   8.957  73.109  1.00  0.00    -0.997 OA 
HETATM    7  C   UNL     1     -10.880   8.694  70.005  1.00  0.00    -0.221 A  
HETATM    8  C   UNL     1     -12.756   8.834  72.073  1.00  0.00    -0.387 A  
HETATM    9  C   UNL     1     -11.298   7.527  70.638  1.00  0.00    -0.301 A  
HETATM   10  H   UNL     1     -13.988   9.800  73.366  1.00  0.00     0.000 HD 
HETATM   11  C   UNL     1     -11.527   9.906  70.312  1.00  0.00    -0.349 A  
HETATM   12  C   UNL     1     -12.237   7.602  71.698  1.00  0.00    -0.346 A  
ENDROOT
BRANCH   3  13
HETATM   13  C   UNL     1      -8.954   6.194  68.029  1.00  0.00    -0.113 A  
HETATM   14  C   UNL     1      -7.474   4.648  66.177  1.00  0.00    -0.082 A  
HETATM   15  H   UNL     1      -6.379   3.043  65.589  1.00  0.00     0.000 HD 
HETATM   16  C   UNL     1      -8.296   5.012  68.411  1.00  0.00    -0.088 A  
HETATM   17  C   UNL     1      -7.593   4.226  67.490  1.00  0.00    -0.073 A  
HETATM   18  O   UNL     1      -6.778   3.860  65.312  1.00  0.00    -0.046 OA 
HETATM   19  C   UNL     1      -8.819   6.588  66.687  1.00  0.00    -0.135 A  
HETATM   20  C   UNL     1      -8.058   5.841  65.772  1.00  0.00    -0.116 A  
ENDBRANCH   3  13
BRANCH   5  21
HETATM   21  C   UNL     1      -8.863   9.278  68.518  1.00  0.00    -0.129 C  
BRANCH  21  22
HETATM   22  C   UNL     1      -9.232  10.741  68.473  1.00  0.00    -0.174 A  
HETATM   23  C   UNL     1     -10.666  12.495  67.633  1.00  0.00    -0.242 A  
HETATM   24  C   UNL     1      -8.644  13.091  68.772  1.00  0.00     0.159 A  
HETATM   25  C   UNL     1     -10.403  11.143  67.831  1.00  0.00    -0.211 A  
HETATM   26  C   UNL     1      -9.735  13.472  68.003  1.00  0.00    -0.228 A  
HETATM   27  C   UNL     1      -8.453  11.744  69.072  1.00  0.00     0.206 A  
BRANCH  26  28
HETATM   28  O   UNL     1      -9.804  14.802  67.638  1.00  0.00    -0.216 OA 
BRANCH  28  29
HETATM   29  C   UNL     1      -8.518  15.345  67.329  1.00  0.00    -0.192 C  
BRANCH  29  30
HETATM   30  C   UNL     1      -7.342  14.368  67.470  1.00  0.00    -0.186 C  
BRANCH  30  31
HETATM   31  N   UNL     1      -7.738  12.997  67.027  1.00  0.00    -0.020 NA 
HETATM   32  C   UNL     1      -8.194  13.004  65.626  1.00  0.00     2.361 C  
HETATM   33  C   UNL     1      -8.652  11.682  65.014  1.00  0.00     0.576 C  
HETATM   34  C   UNL     1      -7.503  10.732  64.739  1.00  0.00     0.259 C  
HETATM   35  C   UNL     1      -7.098   9.893  65.940  1.00  0.00    -0.107 C  
HETATM   36  C   UNL     1      -7.155  10.588  67.296  1.00  0.00    -0.088 C  
HETATM   37  C   UNL     1      -6.663  12.039  67.312  1.00  0.00    -0.144 C  
ENDBRANCH  30  31
ENDBRANCH  29  30
ENDBRANCH  28  29
ENDBRANCH  26  28
ENDBRANCH  21  22
ENDBRANCH   5  21
TORSDOF 7
ENDMDL
MODEL      224
REMARK 921   NORMALIZED FREE ENERGY PREDICTED BY IDOCK:   14.19 KCAL/MOL
REMARK 922        TOTAL FREE ENERGY PREDICTED BY IDOCK:   16.92 KCAL/MOL
REMARK 923 INTER-LIGAND FREE ENERGY PREDICTED BY IDOCK:    3.86 KCAL/MOL
REMARK 924 INTRA-LIGAND FREE ENERGY PREDICTED BY IDOCK:   13.07 KCAL/MOL
REMARK 927      BINDING AFFINITY PREDICTED BY RF-SCORE:    0.00 PKD
ROOT
HETATM    1  C   UNL     1      -8.897   9.467  66.688  1.00  0.00    -0.151 C  
HETATM    2  C   UNL     1      -8.369   9.827  68.040  1.00  0.00    -0.110 A  
HETATM    3  C   UNL     1      -8.078  11.079  68.601  1.00  0.00    -0.149 A  
HETATM    4  C   UNL     1      -8.060   7.368  71.420  1.00  0.00    -0.097 A  
HETATM    5  N   UNL     1      -7.684  10.826  69.935  1.00  0.00     0.060 NA 
HETATM    6  O   UNL     1      -8.233   5.346  70.248  1.00  0.00    -0.097 OA 
HETATM    7  C   UNL     1      -7.939   9.493  70.246  1.00  0.00    -0.175 A  
HETATM    8  C   UNL     1      -8.176   6.707  70.219  1.00  0.00    -0.126 A  
HETATM    9  C   UNL     1      -8.173   8.831  69.043  1.00  0.00    -0.117 A  
HETATM   10  H   UNL     1      -8.165   4.860  71.062  1.00  0.00     0.000 HD 
HETATM   11  C   UNL     1      -7.983   8.761  71.447  1.00  0.00    -0.175 A  
HETATM   12  C   UNL     1      -8.275   7.417  69.029  1.00  0.00    -0.128 A  
ENDROOT
BRANCH   3  13
HETATM   13  C   UNL     1      -8.162  12.424  67.960  1.00  0.00    -0.168 A  
HETATM   14  C   UNL     1      -8.326  14.895  66.590  1.00  0.00    -0.024 A  
HETATM   15  H   UNL     1      -7.656  16.347  65.339  1.00  0.00     0.000 HD 
HETATM   16  C   UNL     1      -7.098  12.911  67.182  1.00  0.00     0.028 A  
HETATM   17  C   UNL     1      -7.189  14.115  66.474  1.00  0.00     2.048 A  
HETATM   18  O   UNL     1      -8.375  16.063  65.891  1.00  0.00    -0.133 OA 
HETATM   19  C   UNL     1      -9.304  13.238  68.049  1.00  0.00    -0.218 A  
HETATM   20  C   UNL     1      -9.377  14.480  67.398  1.00  0.00    -0.197 A  
ENDBRANCH   3  13
BRANCH   5  21
HETATM   21  C   UNL     1      -7.087  11.848  70.836  1.00  0.00     3.402 C  
BRANCH  21  22
HETATM   22  C   UNL     1      -6.785  13.204  70.248  1.00  0.00     0.552 A  
HETATM   23  C   UNL     1      -6.023  14.535  68.380  1.00  0.00    -0.103 A  
HETATM   24  C   UNL     1      -6.262  15.573  70.526  1.00  0.00     0.105 A  
HETATM   25  C   UNL     1      -6.469  13.321  68.895  1.00  0.00    -0.100 A  
HETATM   26  C   UNL     1      -5.811  15.637  69.215  1.00  0.00    -0.112 A  
HETATM   27  C   UNL     1      -6.824  14.389  71.001  1.00  0.00     0.788 A  
BRANCH  26  28
HETATM   28  O   UNL     1      -5.157  16.794  68.839  1.00  0.00    -0.121 OA 
BRANCH  28  29
HETATM   29  C   UNL     1      -6.049  17.761  68.279  1.00  0.00    -0.171 C  
BRANCH  29  30
HETATM   30  C   UNL     1      -6.871  18.562  69.298  1.00  0.00    -0.214 C  
BRANCH  30  31
HETATM   31  N   UNL     1      -8.176  18.990  68.707  1.00  0.00    -0.354 NA 
HETATM   32  C   UNL     1      -8.324  20.454  68.757  1.00  0.00     0.541 C  
HETATM   33  C   UNL     1      -9.612  21.064  68.205  1.00  0.00     0.449 C  
HETATM   34  C   UNL     1      -9.688  21.007  66.692  1.00  0.00     0.331 C  
HETATM   35  C   UNL     1     -10.226  19.692  66.152  1.00  0.00    -0.604 C  
HETATM   36  C   UNL     1      -9.805  18.434  66.903  1.00  0.00    -0.347 C  
HETATM   37  C   UNL     1      -8.345  18.406  67.371  1.00  0.00    -0.252 C  
ENDBRANCH  30  31
ENDBRANCH  29  30
ENDBRANCH  28  29
ENDBRANCH  26  28
ENDBRANCH  21  22
ENDBRANCH   5  21
TORSDOF 7
ENDMDL
MODEL      225
REMARK 921   NORMALIZED FREE ENERGY PREDICTED BY IDOCK:   14.25 KCAL/MOL
REMARK 922        TOTAL FREE ENERGY PREDICTED BY IDOCK:   17.02 KCAL/MOL
REMARK 923 INTER-LIGAND FREE ENERGY PREDICTED BY IDOCK:   18.18 KCAL/MOL
REMARK 924 INTRA-LIGAND FREE ENERGY PREDICTED BY IDOCK:   -1.16 KCAL/MOL
REMARK 927      BINDING AFFINITY PREDICTED BY RF-SCORE:    0.00 PKD
ROOT
HETATM    1  C   UNL     1     -10.029  12.748  72.135  1.00  0.00    15.722 C  
HETATM    2  C   UNL     1     -10.358  12.352  70.730  1.00  0.00     4.942 A  
HETATM    3  C   UNL     1     -10.269  11.108  70.089  1.00  0.00     1.002 A  
HETATM    4  C   UNL     1     -12.494  14.552  67.872  1.00  0.00     0.250 A  
HETATM    5  N   UNL     1     -10.787  11.303  68.788  1.00  0.00    -0.195 NA 
HETATM    6  O   UNL     1     -12.245  16.622  68.944  1.00  0.00     0.066 OA 
HETATM    7  C   UNL     1     -11.377  12.563  68.711  1.00  0.00    -0.293 A  
HETATM    8  C   UNL     1     -11.975  15.286  68.914  1.00  0.00    -0.264 A  
HETATM    9  C   UNL     1     -10.950  13.282  69.823  1.00  0.00     0.207 A  
HETATM   10  H   UNL     1     -12.748  17.045  68.259  1.00  0.00     0.000 HD 
HETATM   11  C   UNL     1     -12.236  13.183  67.785  1.00  0.00    -0.124 A  
HETATM   12  C   UNL     1     -11.239  14.667  69.916  1.00  0.00    -0.271 A  
ENDROOT
BRANCH   3  13
HETATM   13  C   UNL     1      -9.750   9.820  70.634  1.00  0.00    -0.133 A  
HETATM   14  C   UNL     1      -8.701   7.465  71.801  1.00  0.00    -0.115 A  
HETATM   15  H   UNL     1      -7.214   6.245  72.450  1.00  0.00     0.000 HD 
HETATM   16  C   UNL     1      -8.366   9.581  70.701  1.00  0.00    -0.159 A  
HETATM   17  C   UNL     1      -7.843   8.434  71.311  1.00  0.00    -0.128 A  
HETATM   18  O   UNL     1      -8.154   6.360  72.380  1.00  0.00    -0.103 OA 
HETATM   19  C   UNL     1     -10.591   8.819  71.148  1.00  0.00    -0.310 A  
HETATM   20  C   UNL     1     -10.075   7.634  71.698  1.00  0.00    -0.212 A  
ENDBRANCH   3  13
BRANCH   5  21
HETATM   21  C   UNL     1     -10.692  10.300  67.694  1.00  0.00    -0.288 C  
BRANCH  21  22
HETATM   22  C   UNL     1      -9.350   9.652  67.457  1.00  0.00    -0.149 A  
HETATM   23  C   UNL     1      -7.094   9.803  66.604  1.00  0.00    -0.086 A  
HETATM   24  C   UNL     1      -7.968   7.655  67.208  1.00  0.00    -0.118 A  
HETATM   25  C   UNL     1      -8.282  10.417  66.989  1.00  0.00    -0.123 A  
HETATM   26  C   UNL     1      -6.970   8.409  66.607  1.00  0.00    -0.072 A  
HETATM   27  C   UNL     1      -9.104   8.293  67.705  1.00  0.00    -0.138 A  
BRANCH  26  28
HETATM   28  O   UNL     1      -5.928   7.712  66.028  1.00  0.00    -0.037 OA 
BRANCH  28  29
HETATM   29  C   UNL     1      -6.207   7.350  64.673  1.00  0.00    -0.038 C  
BRANCH  29  30
HETATM   30  C   UNL     1      -7.686   7.082  64.357  1.00  0.00    -0.113 C  
BRANCH  30  31
HETATM   31  N   UNL     1      -7.889   5.660  63.943  1.00  0.00    -0.105 NA 
HETATM   32  C   UNL     1      -6.708   5.142  63.230  1.00  0.00    -0.033 C  
HETATM   33  C   UNL     1      -6.752   3.703  62.721  1.00  0.00    -0.030 C  
HETATM   34  C   UNL     1      -6.650   2.681  63.836  1.00  0.00    -0.031 C  
HETATM   35  C   UNL     1      -7.981   2.357  64.497  1.00  0.00    -0.077 C  
HETATM   36  C   UNL     1      -8.948   3.523  64.668  1.00  0.00    -0.127 C  
HETATM   37  C   UNL     1      -8.309   4.850  65.092  1.00  0.00    -0.133 C  
ENDBRANCH  30  31
ENDBRANCH  29  30
ENDBRANCH  28  29
ENDBRANCH  26  28
ENDBRANCH  21  22
ENDBRANCH   5  21
TORSDOF 7
ENDMDL
MODEL      226
REMARK 921   NORMALIZED FREE ENERGY PREDICTED BY IDOCK:   16.10 KCAL/MOL
REMARK 922        TOTAL FREE ENERGY PREDICTED BY IDOCK:   19.62 KCAL/MOL
REMARK 923 INTER-LIGAND FREE ENERGY PREDICTED BY IDOCK:   12.35 KCAL/MOL
REMARK 924 INTRA-LIGAND FREE ENERGY PREDICTED BY IDOCK:    7.27 KCAL/MOL
REMARK 927      BINDING AFFINITY PREDICTED BY RF-SCORE:    0.00 PKD
ROOT
HETATM    1  C   UNL     1      -9.738  17.196  69.079  1.00  0.00    -0.212 C  
HETATM    2  C   UNL     1      -8.583  16.247  69.153  1.00  0.00    -0.212 A  
HETATM    3  C   UNL     1      -8.228  15.176  68.320  1.00  0.00    -0.144 A  
HETATM    4  C   UNL     1      -5.141  16.565  71.523  1.00  0.00     0.094 A  
HETATM    5  N   UNL     1      -7.001  14.683  68.820  1.00  0.00    -0.096 NA 
HETATM    6  O   UNL     1      -6.041  18.124  73.024  1.00  0.00     1.810 OA 
HETATM    7  C   UNL     1      -6.513  15.560  69.786  1.00  0.00    -0.167 A  
HETATM    8  C   UNL     1      -6.214  17.320  71.937  1.00  0.00     2.952 A  
HETATM    9  C   UNL     1      -7.560  16.408  70.134  1.00  0.00     1.270 A  
HETATM   10  H   UNL     1      -5.221  18.146  73.504  1.00  0.00     0.000 HD 
HETATM   11  C   UNL     1      -5.268  15.714  70.424  1.00  0.00    -0.147 A  
HETATM   12  C   UNL     1      -7.412  17.288  71.236  1.00  0.00     6.353 A  
ENDROOT
BRANCH   3  13
HETATM   13  C   UNL     1      -8.961  14.642  67.135  1.00  0.00    -0.240 A  
HETATM   14  C   UNL     1     -10.350  13.788  64.822  1.00  0.00    -0.398 A  
HETATM   15  H   UNL     1     -11.931  13.730  63.548  1.00  0.00     0.000 HD 
HETATM   16  C   UNL     1     -10.293  15.019  66.891  1.00  0.00    -0.266 A  
HETATM   17  C   UNL     1     -10.972  14.628  65.730  1.00  0.00    -0.330 A  
HETATM   18  O   UNL     1     -11.045  13.425  63.708  1.00  0.00    -0.256 OA 
HETATM   19  C   UNL     1      -8.359  13.796  66.188  1.00  0.00     1.176 A  
HETATM   20  C   UNL     1      -9.056  13.343  65.055  1.00  0.00     1.403 A  
ENDBRANCH   3  13
BRANCH   5  21
HETATM   21  C   UNL     1      -6.365  13.418  68.368  1.00  0.00    -0.088 C  
BRANCH  21  22
HETATM   22  C   UNL     1      -7.262  12.223  68.156  1.00  0.00    -0.101 A  
HETATM   23  C   UNL     1      -7.881   9.962  68.740  1.00  0.00    -0.091 A  
HETATM   24  C   UNL     1      -8.807  10.946  66.762  1.00  0.00    -0.149 A  
HETATM   25  C   UNL     1      -7.187  11.134  69.023  1.00  0.00    -0.118 A  
HETATM   26  C   UNL     1      -8.606   9.823  67.551  1.00  0.00    -0.125 A  
HETATM   27  C   UNL     1      -8.207  12.153  67.120  1.00  0.00    -0.182 A  
BRANCH  26  28
HETATM   28  O   UNL     1      -9.125   8.632  67.082  1.00  0.00    -0.129 OA 
BRANCH  28  29
HETATM   29  C   UNL     1      -8.494   8.208  65.871  1.00  0.00    -0.142 C  
BRANCH  29  30
HETATM   30  C   UNL     1      -9.345   7.303  64.969  1.00  0.00     1.148 C  
BRANCH  30  31
HETATM   31  N   UNL     1      -8.604   6.053  64.621  1.00  0.00    -0.002 NA 
HETATM   32  C   UNL     1      -7.471   5.838  65.537  1.00  0.00    -0.077 C  
HETATM   33  C   UNL     1      -6.592   4.608  65.315  1.00  0.00    -0.047 C  
HETATM   34  C   UNL     1      -7.282   3.315  65.703  1.00  0.00    -0.071 C  
HETATM   35  C   UNL     1      -8.159   2.733  64.607  1.00  0.00    -0.086 C  
HETATM   36  C   UNL     1      -8.929   3.737  63.757  1.00  0.00    -0.110 C  
HETATM   37  C   UNL     1      -9.532   4.920  64.524  1.00  0.00     0.130 C  
ENDBRANCH  30  31
ENDBRANCH  29  30
ENDBRANCH  28  29
ENDBRANCH  26  28
ENDBRANCH  21  22
ENDBRANCH   5  21
TORSDOF 7
ENDMDL
MODEL      227
REMARK 921   NORMALIZED FREE ENERGY PREDICTED BY IDOCK:   17.30 KCAL/MOL
REMARK 922        TOTAL FREE ENERGY PREDICTED BY IDOCK:   21.32 KCAL/MOL
REMARK 923 INTER-LIGAND FREE ENERGY PREDICTED BY IDOCK:   20.04 KCAL/MOL
REMARK 924 INTRA-LIGAND FREE ENERGY PREDICTED BY IDOCK:    1.28 KCAL/MOL
REMARK 927      BINDING AFFINITY PREDICTED BY RF-SCORE:    0.00 PKD
ROOT
HETATM    1  C   UNL     1      -9.142  18.019  69.641  1.00  0.00     0.876 C  
HETATM    2  C   UNL     1      -8.155  16.954  69.280  1.00  0.00     0.037 A  
HETATM    3  C   UNL     1      -7.298  16.843  68.176  1.00  0.00    -0.179 A  
HETATM    4  C   UNL     1      -6.707  13.859  71.707  1.00  0.00     2.118 A  
HETATM    5  N   UNL     1      -6.533  15.673  68.393  1.00  0.00    -0.109 NA 
HETATM    6  O   UNL     1      -8.433  13.983  73.289  1.00  0.00     6.509 OA 
HETATM    7  C   UNL     1      -6.758  15.210  69.687  1.00  0.00    -0.181 A  
HETATM    8  C   UNL     1      -7.887  14.431  72.123  1.00  0.00     5.753 A  
HETATM    9  C   UNL     1      -7.887  15.868  70.166  1.00  0.00     0.864 A  
HETATM   10  H   UNL     1      -8.035  13.280  73.788  1.00  0.00     0.000 HD 
HETATM   11  C   UNL     1      -6.113  14.271  70.514  1.00  0.00    -0.180 A  
HETATM   12  C   UNL     1      -8.469  15.460  71.393  1.00  0.00     4.162 A  
ENDROOT
BRANCH   3  13
HETATM   13  C   UNL     1      -7.179  17.753  67.000  1.00  0.00    -0.209 A  
HETATM   14  C   UNL     1      -6.883  19.596  64.873  1.00  0.00     0.046 A  
HETATM   15  H   UNL     1      -7.253  21.330  63.883  1.00  0.00     0.000 HD 
HETATM   16  C   UNL     1      -7.947  18.928  66.927  1.00  0.00    -0.266 A  
HETATM   17  C   UNL     1      -7.777  19.860  65.896  1.00  0.00    -0.327 A  
HETATM   18  O   UNL     1      -6.751  20.523  63.884  1.00  0.00    -0.122 OA 
HETATM   19  C   UNL     1      -6.276  17.521  65.948  1.00  0.00    -0.126 A  
HETATM   20  C   UNL     1      -6.150  18.417  64.874  1.00  0.00    -0.066 A  
ENDBRANCH   3  13
BRANCH   5  21
HETATM   21  C   UNL     1      -5.644  15.057  67.373  1.00  0.00     0.280 C  
BRANCH  21  22
HETATM   22  C   UNL     1      -5.553  13.551  67.346  1.00  0.00     0.184 A  
HETATM   23  C   UNL     1      -5.256  11.511  66.085  1.00  0.00     0.028 A  
HETATM   24  C   UNL     1      -6.013  11.376  68.354  1.00  0.00    -0.045 A  
HETATM   25  C   UNL     1      -5.178  12.898  66.173  1.00  0.00     2.961 A  
HETATM   26  C   UNL     1      -5.779  10.752  67.137  1.00  0.00    -0.046 A  
HETATM   27  C   UNL     1      -5.812  12.750  68.470  1.00  0.00    -0.061 A  
BRANCH  26  28
HETATM   28  O   UNL     1      -6.110   9.413  67.051  1.00  0.00    -0.061 OA 
BRANCH  28  29
HETATM   29  C   UNL     1      -6.496   9.036  65.727  1.00  0.00    -0.064 C  
BRANCH  29  30
HETATM   30  C   UNL     1      -7.930   9.416  65.329  1.00  0.00    -0.110 C  
BRANCH  30  31
HETATM   31  N   UNL     1      -8.650  10.042  66.480  1.00  0.00    -0.125 NA 
HETATM   32  C   UNL     1      -9.115  11.398  66.139  1.00  0.00    -0.207 C  
HETATM   33  C   UNL     1      -9.861  12.191  67.210  1.00  0.00    -0.202 C  
HETATM   34  C   UNL     1     -11.261  11.667  67.462  1.00  0.00    -0.355 C  
HETATM   35  C   UNL     1     -11.317  10.514  68.452  1.00  0.00    -0.328 C  
HETATM   36  C   UNL     1     -10.169   9.513  68.384  1.00  0.00    -0.221 C  
HETATM   37  C   UNL     1      -9.702   9.144  66.971  1.00  0.00    -0.188 C  
ENDBRANCH  30  31
ENDBRANCH  29  30
ENDBRANCH  28  29
ENDBRANCH  26  28
ENDBRANCH  21  22
ENDBRANCH   5  21
TORSDOF 7
ENDMDL
MODEL      228
REMARK 921   NORMALIZED FREE ENERGY PREDICTED BY IDOCK:   17.54 KCAL/MOL
REMARK 922        TOTAL FREE ENERGY PREDICTED BY IDOCK:   21.65 KCAL/MOL
REMARK 923 INTER-LIGAND FREE ENERGY PREDICTED BY IDOCK:   20.06 KCAL/MOL
REMARK 924 INTRA-LIGAND FREE ENERGY PREDICTED BY IDOCK:    1.59 KCAL/MOL
REMARK 927      BINDING AFFINITY PREDICTED BY RF-SCORE:    0.00 PKD
ROOT
HETATM    1  C   UNL     1      -9.142  18.019  69.641  1.00  0.00     0.876 C  
HETATM    2  C   UNL     1      -8.149  16.956  69.290  1.00  0.00     0.037 A  
HETATM    3  C   UNL     1      -7.291  16.840  68.187  1.00  0.00    -0.173 A  
HETATM    4  C   UNL     1      -6.684  13.892  71.746  1.00  0.00     2.118 A  
HETATM    5  N   UNL     1      -6.520  15.677  68.415  1.00  0.00    -0.109 NA 
HETATM    6  O   UNL     1      -8.411  14.022  73.327  1.00  0.00     6.211 OA 
HETATM    7  C   UNL     1      -6.742  15.224  69.714  1.00  0.00    -0.176 A  
HETATM    8  C   UNL     1      -7.868  14.462  72.157  1.00  0.00     5.753 A  
HETATM    9  C   UNL     1      -7.875  15.880  70.186  1.00  0.00     0.864 A  
HETATM   10  H   UNL     1      -8.009  13.325  73.833  1.00  0.00     0.000 HD 
HETATM   11  C   UNL     1      -6.092  14.296  70.549  1.00  0.00    -0.180 A  
HETATM   12  C   UNL     1      -8.455  15.480  71.417  1.00  0.00     4.374 A  
ENDROOT
BRANCH   3  13
HETATM   13  C   UNL     1      -7.177  17.739  67.003  1.00  0.00    -0.209 A  
HETATM   14  C   UNL     1      -6.891  19.564  64.859  1.00  0.00     0.103 A  
HETATM   15  H   UNL     1      -7.270  21.287  63.853  1.00  0.00     0.000 HD 
HETATM   16  C   UNL     1      -7.951  18.910  66.919  1.00  0.00    -0.266 A  
HETATM   17  C   UNL     1      -7.787  19.833  65.880  1.00  0.00    -0.309 A  
HETATM   18  O   UNL     1      -6.764  20.483  63.861  1.00  0.00    -0.122 OA 
HETATM   19  C   UNL     1      -6.272  17.503  65.954  1.00  0.00    -0.126 A  
HETATM   20  C   UNL     1      -6.151  18.390  64.871  1.00  0.00    -0.066 A  
ENDBRANCH   3  13
BRANCH   5  21
HETATM   21  C   UNL     1      -5.627  15.056  67.401  1.00  0.00     0.280 C  
BRANCH  21  22
HETATM   22  C   UNL     1      -5.527  13.550  67.388  1.00  0.00     0.203 A  
HETATM   23  C   UNL     1      -5.219  11.501  66.146  1.00  0.00     0.028 A  
HETATM   24  C   UNL     1      -5.975  11.382  68.417  1.00  0.00    -0.045 A  
HETATM   25  C   UNL     1      -5.148  12.888  66.221  1.00  0.00     2.355 A  
HETATM   26  C   UNL     1      -5.738  10.748  67.205  1.00  0.00    -0.046 A  
HETATM   27  C   UNL     1      -5.782  12.759  68.519  1.00  0.00    -0.061 A  
BRANCH  26  28
HETATM   28  O   UNL     1      -6.060   9.407  67.132  1.00  0.00    -0.061 OA 
BRANCH  28  29
HETATM   29  C   UNL     1      -6.445   9.015  65.811  1.00  0.00    -0.064 C  
BRANCH  29  30
HETATM   30  C   UNL     1      -7.410   7.823  65.735  1.00  0.00    -0.076 C  
BRANCH  30  31
HETATM   31  N   UNL     1      -8.008   7.541  67.075  1.00  0.00    -0.115 NA 
HETATM   32  C   UNL     1      -9.478   7.629  67.027  1.00  0.00    -0.163 C  
HETATM   33  C   UNL     1     -10.254   7.382  68.320  1.00  0.00    -0.213 C  
HETATM   34  C   UNL     1     -10.255   5.924  68.736  1.00  0.00    -0.243 C  
HETATM   35  C   UNL     1      -9.032   5.512  69.538  1.00  0.00    -0.129 C  
HETATM   36  C   UNL     1      -7.709   6.145  69.119  1.00  0.00    -0.100 C  
HETATM   37  C   UNL     1      -7.492   6.274  67.607  1.00  0.00    -0.089 C  
ENDBRANCH  30  31
ENDBRANCH  29  30
ENDBRANCH  28  29
ENDBRANCH  26  28
ENDBRANCH  21  22
ENDBRANCH   5  21
TORSDOF 7
ENDMDL
MODEL      229
REMARK 921   NORMALIZED FREE ENERGY PREDICTED BY IDOCK:   17.93 KCAL/MOL
REMARK 922        TOTAL FREE ENERGY PREDICTED BY IDOCK:   22.20 KCAL/MOL
REMARK 923 INTER-LIGAND FREE ENERGY PREDICTED BY IDOCK:   16.53 KCAL/MOL
REMARK 924 INTRA-LIGAND FREE ENERGY PREDICTED BY IDOCK:    5.67 KCAL/MOL
REMARK 927      BINDING AFFINITY PREDICTED BY RF-SCORE:    0.00 PKD
ROOT
HETATM    1  C   UNL     1     -11.237  11.424  63.162  1.00  0.00    -0.019 C  
HETATM    2  C   UNL     1      -9.912  11.543  63.848  1.00  0.00    -0.360 A  
HETATM    3  C   UNL     1      -9.424  12.525  64.722  1.00  0.00     0.328 A  
HETATM    4  C   UNL     1      -6.938   8.614  64.225  1.00  0.00    -0.081 A  
HETATM    5  N   UNL     1      -8.142  12.085  65.124  1.00  0.00     1.487 NA 
HETATM    6  O   UNL     1      -7.733   7.257  62.486  1.00  0.00    -0.107 OA 
HETATM    7  C   UNL     1      -7.946  10.777  64.689  1.00  0.00     0.157 A  
HETATM    8  C   UNL     1      -7.850   8.402  63.216  1.00  0.00    -0.151 A  
HETATM    9  C   UNL     1      -8.935  10.508  63.747  1.00  0.00    -0.229 A  
HETATM   10  H   UNL     1      -7.032   6.635  62.642  1.00  0.00     0.000 HD 
HETATM   11  C   UNL     1      -7.004   9.777  64.993  1.00  0.00    -0.119 A  
HETATM   12  C   UNL     1      -8.875   9.312  62.989  1.00  0.00    -0.173 A  
ENDROOT
BRANCH   3  13
HETATM   13  C   UNL     1     -10.090  13.784  65.168  1.00  0.00    -0.314 A  
HETATM   14  C   UNL     1     -11.201  16.224  66.071  1.00  0.00     0.262 A  
HETATM   15  H   UNL     1     -11.738  17.586  67.479  1.00  0.00     0.000 HD 
HETATM   16  C   UNL     1     -10.219  14.076  66.537  1.00  0.00    -0.279 A  
HETATM   17  C   UNL     1     -10.735  15.297  66.987  1.00  0.00    -0.313 A  
HETATM   18  O   UNL     1     -11.702  17.398  66.548  1.00  0.00     1.446 OA 
HETATM   19  C   UNL     1     -10.567  14.751  64.267  1.00  0.00     0.500 A  
HETATM   20  C   UNL     1     -11.149  15.949  64.712  1.00  0.00    -0.397 A  
ENDBRANCH   3  13
BRANCH   5  21
HETATM   21  C   UNL     1      -7.175  12.920  65.886  1.00  0.00     3.610 C  
BRANCH  21  22
HETATM   22  C   UNL     1      -7.671  13.588  67.144  1.00  0.00     0.008 A  
HETATM   23  C   UNL     1      -7.331  15.200  68.912  1.00  0.00    -0.142 A  
HETATM   24  C   UNL     1      -9.099  13.597  69.125  1.00  0.00     0.476 A  
HETATM   25  C   UNL     1      -6.986  14.685  67.666  1.00  0.00    -0.205 A  
HETATM   26  C   UNL     1      -8.315  14.590  69.697  1.00  0.00     0.373 A  
HETATM   27  C   UNL     1      -8.825  13.171  67.826  1.00  0.00    -0.191 A  
BRANCH  26  28
HETATM   28  O   UNL     1      -8.557  14.885  71.024  1.00  0.00     1.913 OA 
BRANCH  28  29
HETATM   29  C   UNL     1      -9.107  16.194  71.195  1.00  0.00     4.302 C  
BRANCH  29  30
HETATM   30  C   UNL     1     -10.234  16.564  70.220  1.00  0.00     0.492 C  
BRANCH  30  31
HETATM   31  N   UNL     1      -9.989  17.908  69.613  1.00  0.00     0.199 NA 
HETATM   32  C   UNL     1      -9.368  17.782  68.284  1.00  0.00    -0.288 C  
HETATM   33  C   UNL     1      -9.033  19.065  67.524  1.00  0.00    -0.322 C  
HETATM   34  C   UNL     1     -10.265  19.770  66.991  1.00  0.00    -0.579 C  
HETATM   35  C   UNL     1     -10.933  20.689  68.001  1.00  0.00     0.892 C  
HETATM   36  C   UNL     1     -10.943  20.205  69.447  1.00  0.00     1.235 C  
HETATM   37  C   UNL     1     -11.219  18.709  69.636  1.00  0.00     3.121 C  
ENDBRANCH  30  31
ENDBRANCH  29  30
ENDBRANCH  28  29
ENDBRANCH  26  28
ENDBRANCH  21  22
ENDBRANCH   5  21
TORSDOF 7
ENDMDL
MODEL      230
REMARK 921   NORMALIZED FREE ENERGY PREDICTED BY IDOCK:   18.29 KCAL/MOL
REMARK 922        TOTAL FREE ENERGY PREDICTED BY IDOCK:   22.70 KCAL/MOL
REMARK 923 INTER-LIGAND FREE ENERGY PREDICTED BY IDOCK:   21.06 KCAL/MOL
REMARK 924 INTRA-LIGAND FREE ENERGY PREDICTED BY IDOCK:    1.64 KCAL/MOL
REMARK 927      BINDING AFFINITY PREDICTED BY RF-SCORE:    0.00 PKD
ROOT
HETATM    1  C   UNL     1      -9.142  18.019  69.641  1.00  0.00     0.876 C  
HETATM    2  C   UNL     1      -8.152  16.951  69.297  1.00  0.00     0.037 A  
HETATM    3  C   UNL     1      -7.275  16.839  68.209  1.00  0.00    -0.173 A  
HETATM    4  C   UNL     1      -6.760  13.847  71.745  1.00  0.00     2.118 A  
HETATM    5  N   UNL     1      -6.518  15.667  68.438  1.00  0.00    -0.109 NA 
HETATM    6  O   UNL     1      -8.515  13.975  73.295  1.00  0.00     6.509 OA 
HETATM    7  C   UNL     1      -6.769  15.202  69.727  1.00  0.00    -0.180 A  
HETATM    8  C   UNL     1      -7.946  14.423  72.140  1.00  0.00     6.155 A  
HETATM    9  C   UNL     1      -7.905  15.863  70.186  1.00  0.00     0.864 A  
HETATM   10  H   UNL     1      -8.128  13.269  73.800  1.00  0.00     0.000 HD 
HETATM   11  C   UNL     1      -6.143  14.259  70.564  1.00  0.00    -0.180 A  
HETATM   12  C   UNL     1      -8.510  15.455  71.401  1.00  0.00     4.162 A  
ENDROOT
BRANCH   3  13
HETATM   13  C   UNL     1      -7.131  17.751  67.036  1.00  0.00    -0.209 A  
HETATM   14  C   UNL     1      -6.805  19.602  64.921  1.00  0.00     0.046 A  
HETATM   15  H   UNL     1      -7.224  21.299  63.888  1.00  0.00     0.000 HD 
HETATM   16  C   UNL     1      -7.976  18.864  66.891  1.00  0.00    -0.266 A  
HETATM   17  C   UNL     1      -7.796  19.802  65.867  1.00  0.00    -0.309 A  
HETATM   18  O   UNL     1      -6.664  20.533  63.937  1.00  0.00    -0.122 OA 
HETATM   19  C   UNL     1      -6.132  17.583  66.063  1.00  0.00    -0.191 A  
HETATM   20  C   UNL     1      -5.988  18.482  64.993  1.00  0.00    -0.247 A  
ENDBRANCH   3  13
BRANCH   5  21
HETATM   21  C   UNL     1      -5.612  15.049  67.433  1.00  0.00     0.280 C  
BRANCH  21  22
HETATM   22  C   UNL     1      -5.526  13.543  67.406  1.00  0.00     0.203 A  
HETATM   23  C   UNL     1      -5.319  11.498  66.135  1.00  0.00     0.046 A  
HETATM   24  C   UNL     1      -5.919  11.372  68.451  1.00  0.00    -0.045 A  
HETATM   25  C   UNL     1      -5.233  12.885  66.212  1.00  0.00     2.480 A  
HETATM   26  C   UNL     1      -5.770  10.743  67.223  1.00  0.00    -0.046 A  
HETATM   27  C   UNL     1      -5.709  12.746  68.548  1.00  0.00    -0.061 A  
BRANCH  26  28
HETATM   28  O   UNL     1      -6.108   9.405  67.165  1.00  0.00    -0.061 OA 
BRANCH  28  29
HETATM   29  C   UNL     1      -6.480   8.999  65.845  1.00  0.00    -0.061 C  
BRANCH  29  30
HETATM   30  C   UNL     1      -7.699   8.069  65.764  1.00  0.00    -0.093 C  
BRANCH  30  31
HETATM   31  N   UNL     1      -7.275   6.664  65.480  1.00  0.00    -0.068 NA 
HETATM   32  C   UNL     1      -8.231   5.994  64.581  1.00  0.00    -0.108 C  
HETATM   33  C   UNL     1      -7.958   4.541  64.197  1.00  0.00    -0.093 C  
HETATM   34  C   UNL     1      -6.797   4.396  63.233  1.00  0.00    -0.039 C  
HETATM   35  C   UNL     1      -5.437   4.343  63.912  1.00  0.00    -0.013 C  
HETATM   36  C   UNL     1      -5.259   5.240  65.131  1.00  0.00    -0.009 C  
HETATM   37  C   UNL     1      -5.883   6.636  65.017  1.00  0.00    -0.031 C  
ENDBRANCH  30  31
ENDBRANCH  29  30
ENDBRANCH  28  29
ENDBRANCH  26  28
ENDBRANCH  21  22
ENDBRANCH   5  21
TORSDOF 7
ENDMDL
MODEL      231
REMARK 921   NORMALIZED FREE ENERGY PREDICTED BY IDOCK:   19.49 KCAL/MOL
REMARK 922        TOTAL FREE ENERGY PREDICTED BY IDOCK:   24.40 KCAL/MOL
REMARK 923 INTER-LIGAND FREE ENERGY PREDICTED BY IDOCK:   19.96 KCAL/MOL
REMARK 924 INTRA-LIGAND FREE ENERGY PREDICTED BY IDOCK:    4.45 KCAL/MOL
REMARK 927      BINDING AFFINITY PREDICTED BY RF-SCORE:    0.00 PKD
ROOT
HETATM    1  C   UNL     1      -9.225   8.529  69.302  1.00  0.00    -0.153 C  
HETATM    2  C   UNL     1      -8.242   9.103  70.274  1.00  0.00    -0.170 A  
HETATM    3  C   UNL     1      -8.078  10.418  70.735  1.00  0.00     1.672 A  
HETATM    4  C   UNL     1      -5.712   7.035  72.898  1.00  0.00    -0.041 A  
HETATM    5  N   UNL     1      -7.049  10.365  71.703  1.00  0.00     1.377 NA 
HETATM    6  O   UNL     1      -5.854   4.979  71.780  1.00  0.00    -0.018 OA 
HETATM    7  C   UNL     1      -6.749   9.034  71.985  1.00  0.00     0.088 A  
HETATM    8  C   UNL     1      -6.194   6.298  71.841  1.00  0.00    -0.042 A  
HETATM    9  C   UNL     1      -7.331   8.264  70.982  1.00  0.00    -0.063 A  
HETATM   10  H   UNL     1      -5.280   4.582  72.424  1.00  0.00     0.000 HD 
HETATM   11  C   UNL     1      -6.018   8.392  73.002  1.00  0.00    -0.077 A  
HETATM   12  C   UNL     1      -7.035   6.880  70.900  1.00  0.00    -0.066 A  
ENDROOT
BRANCH   3  13
HETATM   13  C   UNL     1      -8.821  11.644  70.322  1.00  0.00     3.677 A  
HETATM   14  C   UNL     1     -10.255  13.897  69.385  1.00  0.00     0.260 A  
HETATM   15  H   UNL     1     -10.560  15.509  68.190  1.00  0.00     0.000 HD 
HETATM   16  C   UNL     1      -8.294  12.500  69.340  1.00  0.00     1.077 A  
HETATM   17  C   UNL     1      -9.015  13.594  68.847  1.00  0.00     0.189 A  
HETATM   18  O   UNL     1     -10.923  14.973  68.885  1.00  0.00    -0.232 OA 
HETATM   19  C   UNL     1     -10.084  11.977  70.840  1.00  0.00     6.230 A  
HETATM   20  C   UNL     1     -10.785  13.113  70.401  1.00  0.00     1.893 A  
ENDBRANCH   3  13
BRANCH   5  21
HETATM   21  C   UNL     1      -6.404  11.565  72.300  1.00  0.00     3.717 C  
BRANCH  21  22
HETATM   22  C   UNL     1      -6.292  12.798  71.437  1.00  0.00     1.872 A  
HETATM   23  C   UNL     1      -5.958  13.782  69.256  1.00  0.00    -0.091 A  
HETATM   24  C   UNL     1      -5.866  15.189  71.193  1.00  0.00     0.159 A  
HETATM   25  C   UNL     1      -6.232  12.673  70.050  1.00  0.00    -0.060 A  
HETATM   26  C   UNL     1      -5.663  15.023  69.830  1.00  0.00    -0.121 A  
HETATM   27  C   UNL     1      -6.264  14.099  71.965  1.00  0.00     0.624 A  
BRANCH  26  28
HETATM   28  O   UNL     1      -5.155  16.107  69.141  1.00  0.00    -0.108 OA 
BRANCH  28  29
HETATM   29  C   UNL     1      -6.095  17.183  69.058  1.00  0.00    -0.185 C  
BRANCH  29  30
HETATM   30  C   UNL     1      -7.572  16.766  69.064  1.00  0.00    -0.218 C  
BRANCH  30  31
HETATM   31  N   UNL     1      -8.412  17.783  68.363  1.00  0.00    -0.289 NA 
HETATM   32  C   UNL     1      -8.183  19.130  68.915  1.00  0.00    -0.295 C  
HETATM   33  C   UNL     1      -8.976  20.293  68.321  1.00  0.00    -0.037 C  
HETATM   34  C   UNL     1      -8.507  20.675  66.931  1.00  0.00    -0.202 C  
HETATM   35  C   UNL     1      -9.132  19.845  65.821  1.00  0.00    -0.039 C  
HETATM   36  C   UNL     1      -9.355  18.369  66.130  1.00  0.00    -0.147 C  
HETATM   37  C   UNL     1      -8.228  17.683  66.910  1.00  0.00    -0.225 C  
ENDBRANCH  30  31
ENDBRANCH  29  30
ENDBRANCH  28  29
ENDBRANCH  26  28
ENDBRANCH  21  22
ENDBRANCH   5  21
TORSDOF 7
ENDMDL
MODEL      232
REMARK 921   NORMALIZED FREE ENERGY PREDICTED BY IDOCK:   20.11 KCAL/MOL
REMARK 922        TOTAL FREE ENERGY PREDICTED BY IDOCK:   25.27 KCAL/MOL
REMARK 923 INTER-LIGAND FREE ENERGY PREDICTED BY IDOCK:   25.29 KCAL/MOL
REMARK 924 INTRA-LIGAND FREE ENERGY PREDICTED BY IDOCK:   -0.02 KCAL/MOL
REMARK 927      BINDING AFFINITY PREDICTED BY RF-SCORE:    0.00 PKD
ROOT
HETATM    1  C   UNL     1     -12.647  16.620  63.775  1.00  0.00     4.028 C  
HETATM    2  C   UNL     1     -11.434  16.269  64.577  1.00  0.00    -0.171 A  
HETATM    3  C   UNL     1     -10.737  15.057  64.692  1.00  0.00    -0.217 A  
HETATM    4  C   UNL     1      -8.786  18.878  66.513  1.00  0.00    -0.324 A  
HETATM    5  N   UNL     1      -9.624  15.325  65.522  1.00  0.00    -0.281 NA 
HETATM    6  O   UNL     1     -10.241  20.716  66.518  1.00  0.00    -0.429 OA 
HETATM    7  C   UNL     1      -9.521  16.700  65.724  1.00  0.00    -0.069 A  
HETATM    8  C   UNL     1     -10.021  19.406  66.213  1.00  0.00    -0.430 A  
HETATM    9  C   UNL     1     -10.726  17.264  65.316  1.00  0.00    -0.019 A  
HETATM   10  H   UNL     1      -9.581  21.245  66.951  1.00  0.00     0.000 HD 
HETATM   11  C   UNL     1      -8.513  17.539  66.234  1.00  0.00    -0.247 A  
HETATM   12  C   UNL     1     -10.985  18.632  65.580  1.00  0.00     0.289 A  
ENDROOT
BRANCH   3  13
HETATM   13  C   UNL     1     -11.064  13.738  64.076  1.00  0.00    -0.052 A  
HETATM   14  C   UNL     1     -11.595  11.161  63.035  1.00  0.00     0.825 A  
HETATM   15  H   UNL     1     -11.090   9.378  62.205  1.00  0.00     0.000 HD 
HETATM   16  C   UNL     1     -10.052  12.950  63.500  1.00  0.00     0.519 A  
HETATM   17  C   UNL     1     -10.304  11.660  63.017  1.00  0.00    -0.284 A  
HETATM   18  O   UNL     1     -11.802   9.905  62.550  1.00  0.00     4.771 OA 
HETATM   19  C   UNL     1     -12.360  13.196  64.084  1.00  0.00    -0.418 A  
HETATM   20  C   UNL     1     -12.634  11.931  63.538  1.00  0.00    -0.579 A  
ENDBRANCH   3  13
BRANCH   5  21
HETATM   21  C   UNL     1      -8.729  14.277  66.081  1.00  0.00     0.477 C  
BRANCH  21  22
HETATM   22  C   UNL     1      -8.531  14.256  67.577  1.00  0.00    -0.195 A  
HETATM   23  C   UNL     1      -9.221  14.990  69.773  1.00  0.00     0.089 A  
HETATM   24  C   UNL     1      -7.113  13.877  69.528  1.00  0.00     0.081 A  
HETATM   25  C   UNL     1      -9.475  14.852  68.412  1.00  0.00    -0.209 A  
HETATM   26  C   UNL     1      -7.992  14.603  70.319  1.00  0.00     0.941 A  
HETATM   27  C   UNL     1      -7.432  13.635  68.193  1.00  0.00    -0.125 A  
BRANCH  26  28
HETATM   28  O   UNL     1      -7.567  14.913  71.597  1.00  0.00     2.281 OA 
BRANCH  28  29
HETATM   29  C   UNL     1      -8.652  15.284  72.451  1.00  0.00     7.874 C  
BRANCH  29  30
HETATM   30  C   UNL     1      -9.833  14.303  72.475  1.00  0.00     7.213 C  
BRANCH  30  31
HETATM   31  N   UNL     1     -11.089  14.976  72.023  1.00  0.00    -0.073 NA 
HETATM   32  C   UNL     1     -12.021  14.007  71.420  1.00  0.00    -0.039 C  
HETATM   33  C   UNL     1     -13.354  14.529  70.888  1.00  0.00    -0.319 C  
HETATM   34  C   UNL     1     -14.316  14.917  71.994  1.00  0.00    -0.651 C  
HETATM   35  C   UNL     1     -14.114  16.330  72.518  1.00  0.00     0.410 C  
HETATM   36  C   UNL     1     -12.670  16.811  72.611  1.00  0.00     0.921 C  
HETATM   37  C   UNL     1     -11.662  15.772  73.115  1.00  0.00    -0.301 C  
ENDBRANCH  30  31
ENDBRANCH  29  30
ENDBRANCH  28  29
ENDBRANCH  26  28
ENDBRANCH  21  22
ENDBRANCH   5  21
TORSDOF 7
ENDMDL
MODEL      233
REMARK 921   NORMALIZED FREE ENERGY PREDICTED BY IDOCK:   20.53 KCAL/MOL
REMARK 922        TOTAL FREE ENERGY PREDICTED BY IDOCK:   25.87 KCAL/MOL
REMARK 923 INTER-LIGAND FREE ENERGY PREDICTED BY IDOCK:   18.27 KCAL/MOL
REMARK 924 INTRA-LIGAND FREE ENERGY PREDICTED BY IDOCK:    7.60 KCAL/MOL
REMARK 927      BINDING AFFINITY PREDICTED BY RF-SCORE:    0.00 PKD
ROOT
HETATM    1  C   UNL     1     -12.318   7.588  66.091  1.00  0.00     9.180 C  
HETATM    2  C   UNL     1     -10.862   7.246  66.133  1.00  0.00     1.487 A  
HETATM    3  C   UNL     1      -9.736   8.015  65.804  1.00  0.00     0.364 A  
HETATM    4  C   UNL     1      -9.045   3.950  67.976  1.00  0.00    -0.183 A  
HETATM    5  N   UNL     1      -8.613   7.213  66.113  1.00  0.00    -0.141 NA 
HETATM    6  O   UNL     1     -11.002   2.670  68.135  1.00  0.00     3.980 OA 
HETATM    7  C   UNL     1      -9.033   6.083  66.812  1.00  0.00    -0.122 A  
HETATM    8  C   UNL     1     -10.390   3.816  67.722  1.00  0.00     1.090 A  
HETATM    9  C   UNL     1     -10.413   5.998  66.659  1.00  0.00    -0.291 A  
HETATM   10  H   UNL     1     -10.518   1.970  68.557  1.00  0.00     0.000 HD 
HETATM   11  C   UNL     1      -8.367   5.097  67.563  1.00  0.00    -0.106 A  
HETATM   12  C   UNL     1     -11.098   4.840  67.105  1.00  0.00     1.444 A  
ENDROOT
BRANCH   3  13
HETATM   13  C   UNL     1      -9.689   9.400  65.250  1.00  0.00    -0.184 A  
HETATM   14  C   UNL     1      -9.771  12.032  64.214  1.00  0.00    -0.078 A  
HETATM   15  H   UNL     1     -10.271  13.453  62.853  1.00  0.00     0.000 HD 
HETATM   16  C   UNL     1     -10.235   9.680  63.986  1.00  0.00     1.567 A  
HETATM   17  C   UNL     1     -10.311  10.986  63.486  1.00  0.00    -0.402 A  
HETATM   18  O   UNL     1      -9.857  13.287  63.692  1.00  0.00     0.266 OA 
HETATM   19  C   UNL     1      -9.157  10.486  65.965  1.00  0.00    -0.191 A  
HETATM   20  C   UNL     1      -9.166  11.789  65.440  1.00  0.00    -0.023 A  
ENDBRANCH   3  13
BRANCH   5  21
HETATM   21  C   UNL     1      -7.217   7.549  65.727  1.00  0.00    -0.066 C  
BRANCH  21  22
HETATM   22  C   UNL     1      -6.483   8.558  66.577  1.00  0.00    -0.059 A  
HETATM   23  C   UNL     1      -5.833   9.346  68.767  1.00  0.00    -0.040 A  
HETATM   24  C   UNL     1      -5.486  10.767  66.870  1.00  0.00    -0.052 A  
HETATM   25  C   UNL     1      -6.354   8.347  67.950  1.00  0.00    -0.056 A  
HETATM   26  C   UNL     1      -5.501  10.601  68.247  1.00  0.00    -0.036 A  
HETATM   27  C   UNL     1      -5.892   9.716  66.048  1.00  0.00    -0.061 A  
BRANCH  26  28
HETATM   28  O   UNL     1      -5.204  11.714  69.010  1.00  0.00    -0.047 OA 
BRANCH  28  29
HETATM   29  C   UNL     1      -6.191  11.959  70.015  1.00  0.00    -0.123 C  
BRANCH  29  30
HETATM   30  C   UNL     1      -7.608  11.476  69.674  1.00  0.00     0.437 C  
BRANCH  30  31
HETATM   31  N   UNL     1      -8.385  12.554  68.990  1.00  0.00     0.292 NA 
HETATM   32  C   UNL     1      -8.357  12.381  67.528  1.00  0.00    -0.173 C  
HETATM   33  C   UNL     1      -9.091  13.408  66.669  1.00  0.00    -0.180 C  
HETATM   34  C   UNL     1     -10.599  13.277  66.756  1.00  0.00    -0.276 C  
HETATM   35  C   UNL     1     -11.214  14.009  67.938  1.00  0.00    -0.295 C  
HETATM   36  C   UNL     1     -10.409  13.989  69.233  1.00  0.00     0.018 C  
HETATM   37  C   UNL     1      -9.731  12.655  69.565  1.00  0.00     1.326 C  
ENDBRANCH  30  31
ENDBRANCH  29  30
ENDBRANCH  28  29
ENDBRANCH  26  28
ENDBRANCH  21  22
ENDBRANCH   5  21
TORSDOF 7
ENDMDL
MODEL      234
REMARK 921   NORMALIZED FREE ENERGY PREDICTED BY IDOCK:   20.59 KCAL/MOL
REMARK 922        TOTAL FREE ENERGY PREDICTED BY IDOCK:   25.95 KCAL/MOL
REMARK 923 INTER-LIGAND FREE ENERGY PREDICTED BY IDOCK:   25.07 KCAL/MOL
REMARK 924 INTRA-LIGAND FREE ENERGY PREDICTED BY IDOCK:    0.87 KCAL/MOL
REMARK 927      BINDING AFFINITY PREDICTED BY RF-SCORE:    0.00 PKD
ROOT
HETATM    1  C   UNL     1      -8.600  20.627  68.356  1.00  0.00     0.509 C  
HETATM    2  C   UNL     1      -9.130  19.302  67.904  1.00  0.00    -0.363 A  
HETATM    3  C   UNL     1      -8.860  18.007  68.369  1.00  0.00    -0.292 A  
HETATM    4  C   UNL     1     -12.389  18.561  65.376  1.00  0.00     7.599 A  
HETATM    5  N   UNL     1      -9.702  17.145  67.629  1.00  0.00    -0.258 NA 
HETATM    6  O   UNL     1     -12.466  20.719  64.464  1.00  0.00     3.472 OA 
HETATM    7  C   UNL     1     -10.612  17.905  66.898  1.00  0.00    -0.265 A  
HETATM    8  C   UNL     1     -11.859  19.828  65.298  1.00  0.00     2.985 A  
HETATM    9  C   UNL     1     -10.147  19.217  66.907  1.00  0.00    -0.453 A  
HETATM   10  H   UNL     1     -13.211  20.474  63.928  1.00  0.00     0.000 HD 
HETATM   11  C   UNL     1     -11.799  17.606  66.204  1.00  0.00     3.012 A  
HETATM   12  C   UNL     1     -10.770  20.187  66.082  1.00  0.00    -0.251 A  
ENDROOT
BRANCH   3  13
HETATM   13  C   UNL     1      -7.899  17.584  69.429  1.00  0.00     0.277 A  
HETATM   14  C   UNL     1      -6.115  16.925  71.525  1.00  0.00     1.941 A  
HETATM   15  H   UNL     1      -4.475  17.195  72.691  1.00  0.00     0.000 HD 
HETATM   16  C   UNL     1      -6.716  18.310  69.649  1.00  0.00    -0.022 A  
HETATM   17  C   UNL     1      -5.849  18.010  70.707  1.00  0.00     0.225 A  
HETATM   18  O   UNL     1      -5.246  16.661  72.539  1.00  0.00     0.392 OA 
HETATM   19  C   UNL     1      -8.141  16.494  70.283  1.00  0.00     2.142 A  
HETATM   20  C   UNL     1      -7.241  16.144  71.303  1.00  0.00     3.867 A  
ENDBRANCH   3  13
BRANCH   5  21
HETATM   21  C   UNL     1      -9.598  15.661  67.646  1.00  0.00    -0.220 C  
BRANCH  21  22
HETATM   22  C   UNL     1     -10.504  14.910  68.592  1.00  0.00    -0.242 A  
HETATM   23  C   UNL     1     -10.840  13.072  70.123  1.00  0.00     1.035 A  
HETATM   24  C   UNL     1     -12.739  14.332  69.385  1.00  0.00     0.262 A  
HETATM   25  C   UNL     1      -9.988  13.881  69.378  1.00  0.00     0.375 A  
HETATM   26  C   UNL     1     -12.229  13.222  70.043  1.00  0.00    -0.275 A  
HETATM   27  C   UNL     1     -11.867  15.210  68.743  1.00  0.00    -0.329 A  
BRANCH  26  28
HETATM   28  O   UNL     1     -13.148  12.327  70.555  1.00  0.00     0.208 OA 
BRANCH  28  29
HETATM   29  C   UNL     1     -12.523  11.283  71.307  1.00  0.00    -0.336 C  
BRANCH  29  30
HETATM   30  C   UNL     1     -11.172  10.799  70.760  1.00  0.00     0.164 C  
BRANCH  30  31
HETATM   31  N   UNL     1     -11.310   9.453  70.125  1.00  0.00    -0.222 NA 
HETATM   32  C   UNL     1     -11.267   9.553  68.656  1.00  0.00     0.112 C  
HETATM   33  C   UNL     1     -11.409   8.266  67.844  1.00  0.00     0.918 C  
HETATM   34  C   UNL     1     -10.177   7.385  67.920  1.00  0.00    -0.242 C  
HETATM   35  C   UNL     1     -10.149   6.470  69.134  1.00  0.00    -0.190 C  
HETATM   36  C   UNL     1     -10.703   7.054  70.429  1.00  0.00    -0.259 C  
HETATM   37  C   UNL     1     -10.336   8.517  70.700  1.00  0.00    -0.199 C  
ENDBRANCH  30  31
ENDBRANCH  29  30
ENDBRANCH  28  29
ENDBRANCH  26  28
ENDBRANCH  21  22
ENDBRANCH   5  21
TORSDOF 7
ENDMDL
MODEL      235
REMARK 921   NORMALIZED FREE ENERGY PREDICTED BY IDOCK:   25.79 KCAL/MOL
REMARK 922        TOTAL FREE ENERGY PREDICTED BY IDOCK:   33.28 KCAL/MOL
REMARK 923 INTER-LIGAND FREE ENERGY PREDICTED BY IDOCK:   31.45 KCAL/MOL
REMARK 924 INTRA-LIGAND FREE ENERGY PREDICTED BY IDOCK:    1.84 KCAL/MOL
REMARK 927      BINDING AFFINITY PREDICTED BY RF-SCORE:    0.00 PKD
ROOT
HETATM    1  C   UNL     1      -8.669  20.475  68.484  1.00  0.00     0.475 C  
HETATM    2  C   UNL     1      -9.269  19.133  68.203  1.00  0.00    -0.377 A  
HETATM    3  C   UNL     1      -8.986  17.875  68.753  1.00  0.00    -0.196 A  
HETATM    4  C   UNL     1     -12.772  18.279  66.065  1.00  0.00     9.348 A  
HETATM    5  N   UNL     1      -9.913  16.979  68.174  1.00  0.00    -0.274 NA 
HETATM    6  O   UNL     1     -12.886  20.352  64.977  1.00  0.00     5.589 OA 
HETATM    7  C   UNL     1     -10.872  17.701  67.467  1.00  0.00    -0.199 A  
HETATM    8  C   UNL     1     -12.223  19.518  65.827  1.00  0.00     4.944 A  
HETATM    9  C   UNL     1     -10.378  18.994  67.316  1.00  0.00    -0.505 A  
HETATM   10  H   UNL     1     -13.684  20.084  64.537  1.00  0.00     0.000 HD 
HETATM   11  C   UNL     1     -12.126  17.381  66.916  1.00  0.00     3.227 A  
HETATM   12  C   UNL     1     -11.055  19.909  66.470  1.00  0.00     0.014 A  
ENDROOT
BRANCH   3  13
HETATM   13  C   UNL     1      -7.937  17.515  69.752  1.00  0.00     1.148 A  
HETATM   14  C   UNL     1      -6.038  16.921  71.764  1.00  0.00     2.295 A  
HETATM   15  H   UNL     1      -4.609  17.381  73.131  1.00  0.00     0.000 HD 
HETATM   16  C   UNL     1      -7.099  18.505  70.294  1.00  0.00     1.140 A  
HETATM   17  C   UNL     1      -6.184  18.222  71.315  1.00  0.00     1.451 A  
HETATM   18  O   UNL     1      -5.133  16.684  72.754  1.00  0.00     0.761 OA 
HETATM   19  C   UNL     1      -7.767  16.207  70.237  1.00  0.00     1.414 A  
HETATM   20  C   UNL     1      -6.803  15.902  71.212  1.00  0.00     2.467 A  
ENDBRANCH   3  13
BRANCH   5  21
HETATM   21  C   UNL     1      -9.842  15.500  68.313  1.00  0.00    -0.213 C  
BRANCH  21  22
HETATM   22  C   UNL     1      -8.620  14.807  67.764  1.00  0.00    -0.169 A  
HETATM   23  C   UNL     1      -7.583  12.805  66.894  1.00  0.00     0.158 A  
HETATM   24  C   UNL     1      -6.197  14.662  67.500  1.00  0.00    -0.005 A  
HETATM   25  C   UNL     1      -8.726  13.517  67.244  1.00  0.00    -0.228 A  
HETATM   26  C   UNL     1      -6.308  13.331  67.124  1.00  0.00     0.408 A  
HETATM   27  C   UNL     1      -7.352  15.409  67.729  1.00  0.00    -0.180 A  
BRANCH  26  28
HETATM   28  O   UNL     1      -5.132  12.612  67.029  1.00  0.00    -0.330 OA 
BRANCH  28  29
HETATM   29  C   UNL     1      -5.309  11.237  67.384  1.00  0.00    -0.048 C  
BRANCH  29  30
HETATM   30  C   UNL     1      -5.220  10.243  66.218  1.00  0.00    -0.052 C  
BRANCH  30  31
HETATM   31  N   UNL     1      -6.303   9.217  66.313  1.00  0.00    -0.064 NA 
HETATM   32  C   UNL     1      -7.286   9.385  65.228  1.00  0.00    -0.096 C  
HETATM   33  C   UNL     1      -8.474   8.426  65.182  1.00  0.00    -0.179 C  
HETATM   34  C   UNL     1      -8.083   7.027  64.747  1.00  0.00    -0.096 C  
HETATM   35  C   UNL     1      -7.577   6.149  65.880  1.00  0.00    -0.087 C  
HETATM   36  C   UNL     1      -6.727   6.842  66.939  1.00  0.00    -0.056 C  
HETATM   37  C   UNL     1      -5.724   7.872  66.406  1.00  0.00    -0.040 C  
ENDBRANCH  30  31
ENDBRANCH  29  30
ENDBRANCH  28  29
ENDBRANCH  26  28
ENDBRANCH  21  22
ENDBRANCH   5  21
TORSDOF 7
ENDMDL
MODEL      236
REMARK 921   NORMALIZED FREE ENERGY PREDICTED BY IDOCK:   26.97 KCAL/MOL
REMARK 922        TOTAL FREE ENERGY PREDICTED BY IDOCK:   34.94 KCAL/MOL
REMARK 923 INTER-LIGAND FREE ENERGY PREDICTED BY IDOCK:   23.81 KCAL/MOL
REMARK 924 INTRA-LIGAND FREE ENERGY PREDICTED BY IDOCK:   11.13 KCAL/MOL
REMARK 927      BINDING AFFINITY PREDICTED BY RF-SCORE:    0.00 PKD
ROOT
HETATM    1  C   UNL     1     -10.675   6.716  68.706  1.00  0.00    -0.302 C  
HETATM    2  C   UNL     1     -10.417   7.790  69.716  1.00  0.00    -0.233 A  
HETATM    3  C   UNL     1      -9.479   8.832  69.717  1.00  0.00    -0.167 A  
HETATM    4  C   UNL     1     -12.823   8.901  72.962  1.00  0.00     0.387 A  
HETATM    5  N   UNL     1      -9.740   9.589  70.882  1.00  0.00    -0.235 NA 
HETATM    6  O   UNL     1     -14.076   6.920  73.006  1.00  0.00     0.501 OA 
HETATM    7  C   UNL     1     -10.935   9.157  71.454  1.00  0.00    -0.344 A  
HETATM    8  C   UNL     1     -13.064   7.646  72.453  1.00  0.00     0.157 A  
HETATM    9  C   UNL     1     -11.252   7.938  70.863  1.00  0.00    -0.284 A  
HETATM   10  H   UNL     1     -14.584   7.250  73.738  1.00  0.00     0.000 HD 
HETATM   11  C   UNL     1     -11.790   9.681  72.442  1.00  0.00     0.522 A  
HETATM   12  C   UNL     1     -12.321   7.164  71.382  1.00  0.00    -0.415 A  
ENDROOT
BRANCH   3  13
HETATM   13  C   UNL     1      -8.414   9.123  68.713  1.00  0.00    -0.130 A  
HETATM   14  C   UNL     1      -6.436   9.840  66.821  1.00  0.00    -0.066 A  
HETATM   15  H   UNL     1      -5.774  10.585  65.052  1.00  0.00     0.000 HD 
HETATM   16  C   UNL     1      -8.752   9.600  67.435  1.00  0.00    -0.130 A  
HETATM   17  C   UNL     1      -7.776   9.991  66.509  1.00  0.00    -0.105 A  
HETATM   18  O   UNL     1      -5.516  10.225  65.893  1.00  0.00    -0.054 OA 
HETATM   19  C   UNL     1      -7.045   8.990  68.997  1.00  0.00    -0.064 A  
HETATM   20  C   UNL     1      -6.060   9.314  68.049  1.00  0.00    -0.049 A  
ENDBRANCH   3  13
BRANCH   5  21
HETATM   21  C   UNL     1      -8.851  10.667  71.393  1.00  0.00     5.545 C  
BRANCH  21  22
HETATM   22  C   UNL     1      -8.745  11.929  70.573  1.00  0.00     5.731 A  
HETATM   23  C   UNL     1      -9.802  13.882  69.621  1.00  0.00     0.799 A  
HETATM   24  C   UNL     1      -7.598  13.284  68.897  1.00  0.00     0.032 A  
HETATM   25  C   UNL     1      -9.825  12.808  70.506  1.00  0.00     5.272 A  
HETATM   26  C   UNL     1      -8.736  14.061  68.733  1.00  0.00    -0.028 A  
HETATM   27  C   UNL     1      -7.582  12.288  69.872  1.00  0.00     1.448 A  
BRANCH  26  28
HETATM   28  O   UNL     1      -8.736  14.949  67.674  1.00  0.00    -0.163 OA 
BRANCH  28  29
HETATM   29  C   UNL     1      -9.198  14.344  66.463  1.00  0.00    -0.244 C  
BRANCH  29  30
HETATM   30  C   UNL     1      -9.569  12.858  66.572  1.00  0.00    -0.259 C  
BRANCH  30  31
HETATM   31  N   UNL     1     -10.504  12.629  67.716  1.00  0.00    -0.218 NA 
HETATM   32  C   UNL     1     -11.007  13.905  68.252  1.00  0.00    -0.255 C  
HETATM   33  C   UNL     1     -11.967  13.856  69.440  1.00  0.00    -0.402 C  
HETATM   34  C   UNL     1     -13.347  13.357  69.059  1.00  0.00     3.194 C  
HETATM   35  C   UNL     1     -13.474  11.842  69.053  1.00  0.00     4.501 C  
HETATM   36  C   UNL     1     -12.260  11.068  68.551  1.00  0.00     0.122 C  
HETATM   37  C   UNL     1     -11.552  11.675  67.334  1.00  0.00    -0.254 C  
ENDBRANCH  30  31
ENDBRANCH  29  30
ENDBRANCH  28  29
ENDBRANCH  26  28
ENDBRANCH  21  22
ENDBRANCH   5  21
TORSDOF 7
ENDMDL
MODEL      237
REMARK 921   NORMALIZED FREE ENERGY PREDICTED BY IDOCK:   28.76 KCAL/MOL
REMARK 922        TOTAL FREE ENERGY PREDICTED BY IDOCK:   37.46 KCAL/MOL
REMARK 923 INTER-LIGAND FREE ENERGY PREDICTED BY IDOCK:   10.07 KCAL/MOL
REMARK 924 INTRA-LIGAND FREE ENERGY PREDICTED BY IDOCK:   27.39 KCAL/MOL
REMARK 927      BINDING AFFINITY PREDICTED BY RF-SCORE:    0.00 PKD
ROOT
HETATM    1  C   UNL     1      -6.171   9.668  67.798  1.00  0.00    -0.053 C  
HETATM    2  C   UNL     1      -6.268  10.246  69.175  1.00  0.00    -0.040 A  
HETATM    3  C   UNL     1      -6.310  11.582  69.601  1.00  0.00    -0.133 A  
HETATM    4  C   UNL     1      -7.226   8.260  72.739  1.00  0.00    -0.136 A  
HETATM    5  N   UNL     1      -6.484  11.538  71.003  1.00  0.00     0.429 NA 
HETATM    6  O   UNL     1      -6.779   6.107  71.927  1.00  0.00    -0.060 OA 
HETATM    7  C   UNL     1      -6.763  10.229  71.392  1.00  0.00     0.923 A  
HETATM    8  C   UNL     1      -6.798   7.452  71.710  1.00  0.00    -0.058 A  
HETATM    9  C   UNL     1      -6.441   9.407  70.316  1.00  0.00    -0.064 A  
HETATM   10  H   UNL     1      -7.022   5.733  72.766  1.00  0.00     0.000 HD 
HETATM   11  C   UNL     1      -7.252   9.645  72.575  1.00  0.00     1.606 A  
HETATM   12  C   UNL     1      -6.443   7.999  70.484  1.00  0.00    -0.037 A  
ENDROOT
BRANCH   3  13
HETATM   13  C   UNL     1      -6.204  12.821  68.777  1.00  0.00    -0.075 A  
HETATM   14  C   UNL     1      -6.091  15.090  67.090  1.00  0.00     0.578 A  
HETATM   15  H   UNL     1      -5.529  16.116  65.430  1.00  0.00     0.000 HD 
HETATM   16  C   UNL     1      -5.422  12.836  67.609  1.00  0.00    -0.121 A  
HETATM   17  C   UNL     1      -5.393  13.944  66.752  1.00  0.00     2.048 A  
HETATM   18  O   UNL     1      -6.033  16.149  66.235  1.00  0.00     0.310 OA 
HETATM   19  C   UNL     1      -6.906  13.999  69.084  1.00  0.00    -0.112 A  
HETATM   20  C   UNL     1      -6.827  15.139  68.266  1.00  0.00    -0.119 A  
ENDBRANCH   3  13
BRANCH   5  21
HETATM   21  C   UNL     1      -6.373  12.723  71.895  1.00  0.00     2.847 C  
BRANCH  21  22
HETATM   22  C   UNL     1      -6.245  14.077  71.242  1.00  0.00     0.116 A  
HETATM   23  C   UNL     1      -5.448  15.428  69.404  1.00  0.00    -0.098 A  
HETATM   24  C   UNL     1      -6.250  16.514  71.383  1.00  0.00     1.905 A  
HETATM   25  C   UNL     1      -5.730  14.180  69.950  1.00  0.00    -0.112 A  
HETATM   26  C   UNL     1      -5.602  16.596  70.159  1.00  0.00    -0.207 A  
HETATM   27  C   UNL     1      -6.643  15.268  71.869  1.00  0.00     1.842 A  
BRANCH  26  28
HETATM   28  O   UNL     1      -5.131  17.840  69.787  1.00  0.00    -0.173 OA 
BRANCH  28  29
HETATM   29  C   UNL     1      -6.037  18.523  68.916  1.00  0.00    -0.223 C  
BRANCH  29  30
HETATM   30  C   UNL     1      -7.299  17.736  68.536  1.00  0.00    -0.266 C  
BRANCH  30  31
HETATM   31  N   UNL     1      -8.305  18.630  67.887  1.00  0.00    -0.267 NA 
HETATM   32  C   UNL     1      -8.749  18.078  66.595  1.00  0.00    -0.259 C  
HETATM   33  C   UNL     1      -9.770  18.876  65.786  1.00  0.00     0.184 C  
HETATM   34  C   UNL     1     -11.159  18.838  66.393  1.00  0.00     0.262 C  
HETATM   35  C   UNL     1     -11.386  19.880  67.476  1.00  0.00     0.414 C  
HETATM   36  C   UNL     1     -10.203  20.165  68.394  1.00  0.00    -0.438 C  
HETATM   37  C   UNL     1      -9.393  18.937  68.823  1.00  0.00    -0.336 C  
ENDBRANCH  30  31
ENDBRANCH  29  30
ENDBRANCH  28  29
ENDBRANCH  26  28
ENDBRANCH  21  22
ENDBRANCH   5  21
TORSDOF 7
ENDMDL
MODEL      238
REMARK 921   NORMALIZED FREE ENERGY PREDICTED BY IDOCK:   30.16 KCAL/MOL
REMARK 922        TOTAL FREE ENERGY PREDICTED BY IDOCK:   39.43 KCAL/MOL
REMARK 923 INTER-LIGAND FREE ENERGY PREDICTED BY IDOCK:   41.01 KCAL/MOL
REMARK 924 INTRA-LIGAND FREE ENERGY PREDICTED BY IDOCK:   -1.58 KCAL/MOL
REMARK 927      BINDING AFFINITY PREDICTED BY RF-SCORE:    0.00 PKD
ROOT
HETATM    1  C   UNL     1      -9.448  12.783  72.955  1.00  0.00    21.781 C  
HETATM    2  C   UNL     1      -9.925  12.407  71.588  1.00  0.00    12.962 A  
HETATM    3  C   UNL     1      -9.923  11.168  70.930  1.00  0.00     3.988 A  
HETATM    4  C   UNL     1     -12.306  14.669  68.983  1.00  0.00    -0.102 A  
HETATM    5  N   UNL     1     -10.568  11.384  69.691  1.00  0.00     0.009 NA 
HETATM    6  O   UNL     1     -11.914  16.723  70.041  1.00  0.00     0.022 OA 
HETATM    7  C   UNL     1     -11.142  12.654  69.685  1.00  0.00     0.097 A  
HETATM    8  C   UNL     1     -11.671  15.384  69.972  1.00  0.00    -0.326 A  
HETATM    9  C   UNL     1     -10.591  13.355  70.754  1.00  0.00     3.152 A  
HETATM   10  H   UNL     1     -12.478  17.161  69.414  1.00  0.00     0.000 HD 
HETATM   11  C   UNL     1     -12.081  13.297  68.858  1.00  0.00    -0.260 A  
HETATM   12  C   UNL     1     -10.847  14.743  70.888  1.00  0.00     0.151 A  
ENDROOT
BRANCH   3  13
HETATM   13  C   UNL     1      -9.372   9.867  71.408  1.00  0.00     1.447 A  
HETATM   14  C   UNL     1      -8.254   7.483  72.445  1.00  0.00    -0.104 A  
HETATM   15  H   UNL     1      -6.730   6.247  72.966  1.00  0.00     0.000 HD 
HETATM   16  C   UNL     1      -7.987   9.625  71.380  1.00  0.00     0.780 A  
HETATM   17  C   UNL     1      -7.427   8.464  71.925  1.00  0.00    -0.129 A  
HETATM   18  O   UNL     1      -7.673   6.364  72.961  1.00  0.00    -0.098 OA 
HETATM   19  C   UNL     1     -10.180   8.853  71.951  1.00  0.00    -0.403 A  
HETATM   20  C   UNL     1      -9.632   7.655  72.436  1.00  0.00    -0.220 A  
ENDBRANCH   3  13
BRANCH   5  21
HETATM   21  C   UNL     1     -10.603  10.391  68.585  1.00  0.00    -0.209 C  
BRANCH  21  22
HETATM   22  C   UNL     1      -9.351   9.587  68.331  1.00  0.00    -0.137 A  
HETATM   23  C   UNL     1      -7.146   9.430  67.355  1.00  0.00    -0.086 A  
HETATM   24  C   UNL     1      -8.200   7.440  68.171  1.00  0.00    -0.124 A  
HETATM   25  C   UNL     1      -8.239  10.196  67.750  1.00  0.00    -0.110 A  
HETATM   26  C   UNL     1      -7.167   8.036  67.462  1.00  0.00    -0.088 A  
HETATM   27  C   UNL     1      -9.233   8.230  68.673  1.00  0.00    -0.143 A  
BRANCH  26  28
HETATM   28  O   UNL     1      -6.239   7.189  66.887  1.00  0.00    -0.042 OA 
BRANCH  28  29
HETATM   29  C   UNL     1      -6.661   6.714  65.606  1.00  0.00    -0.051 C  
BRANCH  29  30
HETATM   30  C   UNL     1      -5.763   7.118  64.428  1.00  0.00    -0.033 C  
BRANCH  30  31
HETATM   31  N   UNL     1      -6.488   8.041  63.502  1.00  0.00    -0.071 NA 
HETATM   32  C   UNL     1      -7.932   7.750  63.488  1.00  0.00    -0.104 C  
HETATM   33  C   UNL     1      -8.825   8.594  62.580  1.00  0.00     0.015 C  
HETATM   34  C   UNL     1      -9.014  10.009  63.092  1.00  0.00    -0.273 C  
HETATM   35  C   UNL     1      -7.905  10.964  62.682  1.00  0.00    -0.052 C  
HETATM   36  C   UNL     1      -6.495  10.386  62.655  1.00  0.00    -0.138 C  
HETATM   37  C   UNL     1      -6.152   9.437  63.809  1.00  0.00    -0.092 C  
ENDBRANCH  30  31
ENDBRANCH  29  30
ENDBRANCH  28  29
ENDBRANCH  26  28
ENDBRANCH  21  22
ENDBRANCH   5  21
TORSDOF 7
ENDMDL
MODEL      239
REMARK 921   NORMALIZED FREE ENERGY PREDICTED BY IDOCK:   30.71 KCAL/MOL
REMARK 922        TOTAL FREE ENERGY PREDICTED BY IDOCK:   40.22 KCAL/MOL
REMARK 923 INTER-LIGAND FREE ENERGY PREDICTED BY IDOCK:   41.48 KCAL/MOL
REMARK 924 INTRA-LIGAND FREE ENERGY PREDICTED BY IDOCK:   -1.27 KCAL/MOL
REMARK 927      BINDING AFFINITY PREDICTED BY RF-SCORE:    0.00 PKD
ROOT
HETATM    1  C   UNL     1     -10.679   6.723  68.748  1.00  0.00    -0.280 C  
HETATM    2  C   UNL     1     -10.500   7.640  69.917  1.00  0.00    -0.231 A  
HETATM    3  C   UNL     1      -9.605   8.702  70.114  1.00  0.00    -0.172 A  
HETATM    4  C   UNL     1     -13.065   8.165  73.190  1.00  0.00     0.981 A  
HETATM    5  N   UNL     1      -9.939   9.264  71.367  1.00  0.00    -0.293 NA 
HETATM    6  O   UNL     1     -14.238   6.158  72.884  1.00  0.00    -0.207 OA 
HETATM    7  C   UNL     1     -11.135   8.710  71.817  1.00  0.00    -0.326 A  
HETATM    8  C   UNL     1     -13.236   6.993  72.489  1.00  0.00     0.569 A  
HETATM    9  C   UNL     1     -11.381   7.584  71.038  1.00  0.00    -0.292 A  
HETATM   10  H   UNL     1     -14.785   6.356  73.636  1.00  0.00     0.000 HD 
HETATM   11  C   UNL     1     -12.045   9.048  72.836  1.00  0.00     0.526 A  
HETATM   12  C   UNL     1     -12.437   6.705  71.390  1.00  0.00    -0.306 A  
ENDROOT
BRANCH   3  13
HETATM   13  C   UNL     1      -8.518   9.177  69.209  1.00  0.00    -0.132 A  
HETATM   14  C   UNL     1      -6.503  10.240  67.531  1.00  0.00    -0.066 A  
HETATM   15  H   UNL     1      -5.808  11.266  65.922  1.00  0.00     0.000 HD 
HETATM   16  C   UNL     1      -8.828   9.831  68.004  1.00  0.00    -0.119 A  
HETATM   17  C   UNL     1      -7.836  10.390  67.190  1.00  0.00    -0.110 A  
HETATM   18  O   UNL     1      -5.567  10.792  66.710  1.00  0.00    -0.049 OA 
HETATM   19  C   UNL     1      -7.155   9.050  69.528  1.00  0.00    -0.059 A  
HETATM   20  C   UNL     1      -6.151   9.547  68.681  1.00  0.00    -0.043 A  
ENDBRANCH   3  13
BRANCH   5  21
HETATM   21  C   UNL     1      -9.113  10.282  72.071  1.00  0.00     5.942 C  
BRANCH  21  22
HETATM   22  C   UNL     1      -9.057  11.667  71.475  1.00  0.00    12.802 A  
HETATM   23  C   UNL     1     -10.198  13.698  70.831  1.00  0.00     4.211 A  
HETATM   24  C   UNL     1      -7.952  13.338  70.079  1.00  0.00     2.220 A  
HETATM   25  C   UNL     1     -10.181  12.491  71.524  1.00  0.00    10.265 A  
HETATM   26  C   UNL     1      -9.126  14.075  70.015  1.00  0.00     1.900 A  
HETATM   27  C   UNL     1      -7.902  12.195  70.875  1.00  0.00     6.578 A  
BRANCH  26  28
HETATM   28  O   UNL     1      -9.153  15.125  69.118  1.00  0.00    -0.206 OA 
BRANCH  28  29
HETATM   29  C   UNL     1      -9.562  14.710  67.812  1.00  0.00    -0.213 C  
BRANCH  29  30
HETATM   30  C   UNL     1      -9.867  13.213  67.666  1.00  0.00    -0.219 C  
BRANCH  30  31
HETATM   31  N   UNL     1     -10.750  12.966  66.485  1.00  0.00    -0.267 NA 
HETATM   32  C   UNL     1     -10.889  14.182  65.665  1.00  0.00    -0.305 C  
HETATM   33  C   UNL     1     -11.774  14.111  64.421  1.00  0.00    -0.409 C  
HETATM   34  C   UNL     1     -11.148  13.305  63.300  1.00  0.00     0.525 C  
HETATM   35  C   UNL     1     -11.392  11.808  63.407  1.00  0.00    -0.437 C  
HETATM   36  C   UNL     1     -11.376  11.224  64.815  1.00  0.00    -0.043 C  
HETATM   37  C   UNL     1     -10.294  11.783  65.746  1.00  0.00    -0.253 C  
ENDBRANCH  30  31
ENDBRANCH  29  30
ENDBRANCH  28  29
ENDBRANCH  26  28
ENDBRANCH  21  22
ENDBRANCH   5  21
TORSDOF 7
ENDMDL
MODEL      240
REMARK 921   NORMALIZED FREE ENERGY PREDICTED BY IDOCK:   31.50 KCAL/MOL
REMARK 922        TOTAL FREE ENERGY PREDICTED BY IDOCK:   41.33 KCAL/MOL
REMARK 923 INTER-LIGAND FREE ENERGY PREDICTED BY IDOCK:   41.92 KCAL/MOL
REMARK 924 INTRA-LIGAND FREE ENERGY PREDICTED BY IDOCK:   -0.59 KCAL/MOL
REMARK 927      BINDING AFFINITY PREDICTED BY RF-SCORE:    0.00 PKD
ROOT
HETATM    1  C   UNL     1     -10.656  12.052  63.693  1.00  0.00    -0.503 C  
HETATM    2  C   UNL     1      -9.614  12.301  64.738  1.00  0.00     0.072 A  
HETATM    3  C   UNL     1      -9.389  13.421  65.551  1.00  0.00     0.355 A  
HETATM    4  C   UNL     1      -7.033   9.517  66.514  1.00  0.00    -0.085 A  
HETATM    5  N   UNL     1      -8.319  13.072  66.407  1.00  0.00     0.338 NA 
HETATM    6  O   UNL     1      -7.290   7.879  64.856  1.00  0.00    -0.066 OA 
HETATM    7  C   UNL     1      -8.049  11.712  66.275  1.00  0.00     0.047 A  
HETATM    8  C   UNL     1      -7.586   9.128  65.315  1.00  0.00    -0.098 A  
HETATM    9  C   UNL     1      -8.698  11.277  65.123  1.00  0.00     0.090 A  
HETATM   10  H   UNL     1      -6.699   7.301  65.326  1.00  0.00     0.000 HD 
HETATM   11  C   UNL     1      -7.293  10.790  67.022  1.00  0.00    -0.110 A  
HETATM   12  C   UNL     1      -8.449   9.972  64.628  1.00  0.00    -0.182 A  
ENDROOT
BRANCH   3  13
HETATM   13  C   UNL     1     -10.111  14.727  65.550  1.00  0.00    -0.409 A  
HETATM   14  C   UNL     1     -11.355  17.267  65.648  1.00  0.00     0.867 A  
HETATM   15  H   UNL     1     -12.278  18.823  66.569  1.00  0.00     0.000 HD 
HETATM   16  C   UNL     1     -10.686  15.224  66.733  1.00  0.00    -0.313 A  
HETATM   17  C   UNL     1     -11.270  16.495  66.794  1.00  0.00     0.335 A  
HETATM   18  O   UNL     1     -11.936  18.495  65.746  1.00  0.00     2.710 OA 
HETATM   19  C   UNL     1     -10.209  15.540  64.409  1.00  0.00     1.174 A  
HETATM   20  C   UNL     1     -10.855  16.787  64.445  1.00  0.00     0.767 A  
ENDBRANCH   3  13
BRANCH   5  21
HETATM   21  C   UNL     1      -7.611  14.035  67.292  1.00  0.00    -0.070 C  
BRANCH  21  22
HETATM   22  C   UNL     1      -8.128  14.196  68.701  1.00  0.00    -0.126 A  
HETATM   23  C   UNL     1      -8.065  15.367  70.814  1.00  0.00     2.039 A  
HETATM   24  C   UNL     1      -9.248  13.289  70.671  1.00  0.00     6.499 A  
HETATM   25  C   UNL     1      -7.736  15.296  69.463  1.00  0.00    -0.212 A  
HETATM   26  C   UNL     1      -8.727  14.311  71.450  1.00  0.00     5.883 A  
HETATM   27  C   UNL     1      -9.019  13.289  69.296  1.00  0.00     0.855 A  
BRANCH  26  28
HETATM   28  O   UNL     1      -8.884  14.193  72.817  1.00  0.00     7.016 OA 
BRANCH  28  29
HETATM   29  C   UNL     1      -9.202  15.443  73.435  1.00  0.00    10.557 C  
BRANCH  29  30
HETATM   30  C   UNL     1     -10.488  16.115  72.931  1.00  0.00     4.408 C  
BRANCH  30  31
HETATM   31  N   UNL     1     -11.273  15.177  72.072  1.00  0.00    -0.300 NA 
HETATM   32  C   UNL     1     -12.410  14.606  72.815  1.00  0.00    -0.227 C  
HETATM   33  C   UNL     1     -13.314  13.611  72.089  1.00  0.00    -0.587 C  
HETATM   34  C   UNL     1     -14.197  14.271  71.048  1.00  0.00     0.149 C  
HETATM   35  C   UNL     1     -13.524  14.455  69.698  1.00  0.00     1.806 C  
HETATM   36  C   UNL     1     -12.044  14.820  69.728  1.00  0.00    -0.364 C  
HETATM   37  C   UNL     1     -11.638  15.829  70.809  1.00  0.00    -0.398 C  
ENDBRANCH  30  31
ENDBRANCH  29  30
ENDBRANCH  28  29
ENDBRANCH  26  28
ENDBRANCH  21  22
ENDBRANCH   5  21
TORSDOF 7
ENDMDL
MODEL      241
REMARK 921   NORMALIZED FREE ENERGY PREDICTED BY IDOCK:   33.60 KCAL/MOL
REMARK 922        TOTAL FREE ENERGY PREDICTED BY IDOCK:   44.28 KCAL/MOL
REMARK 923 INTER-LIGAND FREE ENERGY PREDICTED BY IDOCK:   35.54 KCAL/MOL
REMARK 924 INTRA-LIGAND FREE ENERGY PREDICTED BY IDOCK:    8.74 KCAL/MOL
REMARK 927      BINDING AFFINITY PREDICTED BY RF-SCORE:    0.00 PKD
ROOT
HETATM    1  C   UNL     1     -12.825  13.462  65.456  1.00  0.00    -0.361 C  
HETATM    2  C   UNL     1     -11.386  13.572  65.062  1.00  0.00    -0.334 A  
HETATM    3  C   UNL     1     -10.447  14.583  65.312  1.00  0.00    -0.390 A  
HETATM    4  C   UNL     1      -8.901  10.564  63.530  1.00  0.00    -0.208 A  
HETATM    5  N   UNL     1      -9.224  14.121  64.774  1.00  0.00     1.295 NA 
HETATM    6  O   UNL     1     -10.644   9.141  62.873  1.00  0.00     3.033 OA 
HETATM    7  C   UNL     1      -9.358  12.784  64.408  1.00  0.00     0.768 A  
HETATM    8  C   UNL     1     -10.252  10.329  63.414  1.00  0.00     0.437 A  
HETATM    9  C   UNL     1     -10.720  12.498  64.398  1.00  0.00    -0.379 A  
HETATM   10  H   UNL     1     -10.014   8.504  62.557  1.00  0.00     0.000 HD 
HETATM   11  C   UNL     1      -8.445  11.770  64.064  1.00  0.00     1.230 A  
HETATM   12  C   UNL     1     -11.173  11.259  63.878  1.00  0.00    -0.237 A  
ENDROOT
BRANCH   3  13
HETATM   13  C   UNL     1     -10.654  15.888  66.007  1.00  0.00    -0.331 A  
HETATM   14  C   UNL     1     -11.215  18.329  67.323  1.00  0.00     0.384 A  
HETATM   15  H   UNL     1     -12.005  20.194  67.471  1.00  0.00     0.000 HD 
HETATM   16  C   UNL     1     -11.299  16.950  65.351  1.00  0.00     0.489 A  
HETATM   17  C   UNL     1     -11.611  18.146  66.009  1.00  0.00     2.175 A  
HETATM   18  O   UNL     1     -11.530  19.508  67.927  1.00  0.00     0.291 OA 
HETATM   19  C   UNL     1     -10.273  16.106  67.342  1.00  0.00    -0.272 A  
HETATM   20  C   UNL     1     -10.520  17.328  67.988  1.00  0.00    -0.375 A  
ENDBRANCH   3  13
BRANCH   5  21
HETATM   21  C   UNL     1      -8.006  14.962  64.630  1.00  0.00    10.592 C  
BRANCH  21  22
HETATM   22  C   UNL     1      -7.330  15.431  65.895  1.00  0.00     3.446 A  
HETATM   23  C   UNL     1      -7.452  15.911  68.260  1.00  0.00    -0.128 A  
HETATM   24  C   UNL     1      -5.541  16.654  67.020  1.00  0.00    -0.149 A  
HETATM   25  C   UNL     1      -7.992  15.328  67.117  1.00  0.00    -0.251 A  
HETATM   26  C   UNL     1      -6.280  16.672  68.195  1.00  0.00    -0.131 A  
HETATM   27  C   UNL     1      -6.030  15.962  65.913  1.00  0.00     3.927 A  
BRANCH  26  28
HETATM   28  O   UNL     1      -5.805  17.472  69.216  1.00  0.00    -0.193 OA 
BRANCH  28  29
HETATM   29  C   UNL     1      -6.415  17.164  70.472  1.00  0.00     1.037 C  
BRANCH  29  30
HETATM   30  C   UNL     1      -7.946  17.050  70.447  1.00  0.00     3.107 C  
BRANCH  30  31
HETATM   31  N   UNL     1      -8.547  18.171  69.661  1.00  0.00     0.763 NA 
HETATM   32  C   UNL     1      -9.233  19.129  70.545  1.00  0.00     2.146 C  
HETATM   33  C   UNL     1      -9.919  20.334  69.903  1.00  0.00     0.411 C  
HETATM   34  C   UNL     1      -8.934  21.363  69.384  1.00  0.00     3.967 C  
HETATM   35  C   UNL     1      -8.416  21.070  67.986  1.00  0.00     0.426 C  
HETATM   36  C   UNL     1      -8.170  19.602  67.654  1.00  0.00    -0.335 C  
HETATM   37  C   UNL     1      -7.540  18.771  68.778  1.00  0.00    -0.311 C  
ENDBRANCH  30  31
ENDBRANCH  29  30
ENDBRANCH  28  29
ENDBRANCH  26  28
ENDBRANCH  21  22
ENDBRANCH   5  21
TORSDOF 7
ENDMDL
MODEL      242
REMARK 921   NORMALIZED FREE ENERGY PREDICTED BY IDOCK:   44.24 KCAL/MOL
REMARK 922        TOTAL FREE ENERGY PREDICTED BY IDOCK:   59.28 KCAL/MOL
REMARK 923 INTER-LIGAND FREE ENERGY PREDICTED BY IDOCK:   61.07 KCAL/MOL
REMARK 924 INTRA-LIGAND FREE ENERGY PREDICTED BY IDOCK:   -1.79 KCAL/MOL
REMARK 927      BINDING AFFINITY PREDICTED BY RF-SCORE:    0.00 PKD
ROOT
HETATM    1  C   UNL     1      -9.144  12.722  73.241  1.00  0.00    21.781 C  
HETATM    2  C   UNL     1     -10.045  12.738  72.047  1.00  0.00    14.008 A  
HETATM    3  C   UNL     1     -10.461  11.696  71.205  1.00  0.00     5.849 A  
HETATM    4  C   UNL     1     -12.582  15.824  70.778  1.00  0.00    -0.405 A  
HETATM    5  N   UNL     1     -11.372  12.273  70.291  1.00  0.00     0.181 NA 
HETATM    6  O   UNL     1     -11.529  17.510  72.021  1.00  0.00     0.281 OA 
HETATM    7  C   UNL     1     -11.673  13.571  70.699  1.00  0.00     0.027 A  
HETATM    8  C   UNL     1     -11.573  16.204  71.634  1.00  0.00    -0.425 A  
HETATM    9  C   UNL     1     -10.724  13.929  71.653  1.00  0.00     3.857 A  
HETATM   10  H   UNL     1     -12.151  18.149  71.693  1.00  0.00     0.000 HD 
HETATM   11  C   UNL     1     -12.665  14.502  70.340  1.00  0.00    -0.378 A  
HETATM   12  C   UNL     1     -10.664  15.269  72.113  1.00  0.00     0.765 A  
ENDROOT
BRANCH   3  13
HETATM   13  C   UNL     1     -10.056  10.260  71.239  1.00  0.00     1.684 A  
HETATM   14  C   UNL     1      -9.163   7.580  71.412  1.00  0.00    -0.141 A  
HETATM   15  H   UNL     1      -7.828   6.072  71.159  1.00  0.00     0.000 HD 
HETATM   16  C   UNL     1      -8.827   9.853  70.692  1.00  0.00     0.304 A  
HETATM   17  C   UNL     1      -8.365   8.536  70.808  1.00  0.00    -0.154 A  
HETATM   18  O   UNL     1      -8.682   6.309  71.501  1.00  0.00    -0.134 OA 
HETATM   19  C   UNL     1     -10.836   9.265  71.852  1.00  0.00    -0.248 A  
HETATM   20  C   UNL     1     -10.411   7.928  71.911  1.00  0.00    -0.271 A  
ENDBRANCH   3  13
BRANCH   5  21
HETATM   21  C   UNL     1     -11.900  11.577  69.088  1.00  0.00    -0.340 C  
BRANCH  21  22
HETATM   22  C   UNL     1     -10.940  10.718  68.303  1.00  0.00    -0.307 A  
HETATM   23  C   UNL     1      -9.102  10.551  66.743  1.00  0.00    -0.167 A  
HETATM   24  C   UNL     1     -10.340   8.576  67.297  1.00  0.00    -0.372 A  
HETATM   25  C   UNL     1      -9.887  11.310  67.606  1.00  0.00    -0.190 A  
HETATM   26  C   UNL     1      -9.394   9.205  66.499  1.00  0.00    -0.190 A  
HETATM   27  C   UNL     1     -11.038   9.318  68.248  1.00  0.00     0.058 A  
BRANCH  26  28
HETATM   28  O   UNL     1      -8.823   8.446  65.496  1.00  0.00    -0.172 OA 
BRANCH  28  29
HETATM   29  C   UNL     1      -9.552   8.536  64.269  1.00  0.00     1.891 C  
BRANCH  29  30
HETATM   30  C   UNL     1      -8.751   9.053  63.066  1.00  0.00    -0.116 C  
BRANCH  30  31
HETATM   31  N   UNL     1      -9.218  10.415  62.664  1.00  0.00    -0.275 NA 
HETATM   32  C   UNL     1     -10.646  10.598  62.977  1.00  0.00     0.567 C  
HETATM   33  C   UNL     1     -11.294  11.934  62.618  1.00  0.00     0.888 C  
HETATM   34  C   UNL     1     -10.847  13.066  63.522  1.00  0.00    -0.029 C  
HETATM   35  C   UNL     1      -9.546  13.722  63.091  1.00  0.00     6.845 C  
HETATM   36  C   UNL     1      -8.483  12.792  62.516  1.00  0.00     5.898 C  
HETATM   37  C   UNL     1      -8.335  11.443  63.228  1.00  0.00     0.496 C  
ENDBRANCH  30  31
ENDBRANCH  29  30
ENDBRANCH  28  29
ENDBRANCH  26  28
ENDBRANCH  21  22
ENDBRANCH   5  21
TORSDOF 7
ENDMDL
MODEL      243
REMARK 921   NORMALIZED FREE ENERGY PREDICTED BY IDOCK:   46.96 KCAL/MOL
REMARK 922        TOTAL FREE ENERGY PREDICTED BY IDOCK:   63.11 KCAL/MOL
REMARK 923 INTER-LIGAND FREE ENERGY PREDICTED BY IDOCK:   62.97 KCAL/MOL
REMARK 924 INTRA-LIGAND FREE ENERGY PREDICTED BY IDOCK:    0.14 KCAL/MOL
REMARK 927      BINDING AFFINITY PREDICTED BY RF-SCORE:    0.00 PKD
ROOT
HETATM    1  C   UNL     1     -10.802  12.535  63.859  1.00  0.00    -0.472 C  
HETATM    2  C   UNL     1     -10.233  13.361  64.969  1.00  0.00    -0.325 A  
HETATM    3  C   UNL     1     -10.587  14.638  65.428  1.00  0.00    -0.374 A  
HETATM    4  C   UNL     1      -7.614  12.139  68.005  1.00  0.00    -0.123 A  
HETATM    5  N   UNL     1      -9.766  14.889  66.552  1.00  0.00    -0.261 NA 
HETATM    6  O   UNL     1      -6.891  10.195  66.913  1.00  0.00    -0.081 OA 
HETATM    7  C   UNL     1      -9.094  13.720  66.901  1.00  0.00    -0.242 A  
HETATM    8  C   UNL     1      -7.652  11.325  66.896  1.00  0.00    -0.148 A  
HETATM    9  C   UNL     1      -9.220  12.841  65.830  1.00  0.00     0.179 A  
HETATM   10  H   UNL     1      -6.328   9.983  67.649  1.00  0.00     0.000 HD 
HETATM   11  C   UNL     1      -8.364  13.315  68.034  1.00  0.00    -0.162 A  
HETATM   12  C   UNL     1      -8.475  11.635  65.821  1.00  0.00     0.203 A  
ENDROOT
BRANCH   3  13
HETATM   13  C   UNL     1     -11.617  15.568  64.879  1.00  0.00    -0.201 A  
HETATM   14  C   UNL     1     -13.442  17.436  63.791  1.00  0.00    12.174 A  
HETATM   15  H   UNL     1     -14.387  19.230  63.687  1.00  0.00     0.000 HD 
HETATM   16  C   UNL     1     -11.840  16.819  65.479  1.00  0.00     1.774 A  
HETATM   17  C   UNL     1     -12.715  17.760  64.923  1.00  0.00     9.342 A  
HETATM   18  O   UNL     1     -14.288  18.376  63.284  1.00  0.00    17.244 OA 
HETATM   19  C   UNL     1     -12.366  15.276  63.727  1.00  0.00     0.397 A  
HETATM   20  C   UNL     1     -13.297  16.187  63.202  1.00  0.00     5.961 A  
ENDBRANCH   3  13
BRANCH   5  21
HETATM   21  C   UNL     1      -9.657  16.210  67.226  1.00  0.00    -0.229 C  
BRANCH  21  22
HETATM   22  C   UNL     1     -10.135  16.305  68.655  1.00  0.00    -0.233 A  
HETATM   23  C   UNL     1     -10.918  17.659  70.496  1.00  0.00     1.648 A  
HETATM   24  C   UNL     1     -10.282  15.387  70.912  1.00  0.00     0.493 A  
HETATM   25  C   UNL     1     -10.636  17.512  69.142  1.00  0.00    -0.091 A  
HETATM   26  C   UNL     1     -10.637  16.634  71.406  1.00  0.00     1.719 A  
HETATM   27  C   UNL     1     -10.122  15.214  69.538  1.00  0.00    -0.222 A  
BRANCH  26  28
HETATM   28  O   UNL     1     -10.663  16.774  72.780  1.00  0.00     2.449 OA 
BRANCH  28  29
HETATM   29  C   UNL     1     -11.740  17.608  73.218  1.00  0.00     1.287 C  
BRANCH  29  30
HETATM   30  C   UNL     1     -13.096  16.904  73.365  1.00  0.00     1.026 C  
BRANCH  30  31
HETATM   31  N   UNL     1     -13.000  15.475  72.938  1.00  0.00    -0.427 NA 
HETATM   32  C   UNL     1     -13.200  14.567  74.081  1.00  0.00     2.252 C  
HETATM   33  C   UNL     1     -13.118  13.063  73.825  1.00  0.00     5.430 C  
HETATM   34  C   UNL     1     -14.318  12.531  73.065  1.00  0.00     2.074 C  
HETATM   35  C   UNL     1     -14.200  12.669  71.555  1.00  0.00     1.566 C  
HETATM   36  C   UNL     1     -13.525  13.938  71.047  1.00  0.00    -0.132 C  
HETATM   37  C   UNL     1     -13.890  15.223  71.799  1.00  0.00    -0.521 C  
ENDBRANCH  30  31
ENDBRANCH  29  30
ENDBRANCH  28  29
ENDBRANCH  26  28
ENDBRANCH  21  22
ENDBRANCH   5  21
TORSDOF 7
ENDMDL
MODEL      244
REMARK 921   NORMALIZED FREE ENERGY PREDICTED BY IDOCK:   51.33 KCAL/MOL
REMARK 922        TOTAL FREE ENERGY PREDICTED BY IDOCK:   69.27 KCAL/MOL
REMARK 923 INTER-LIGAND FREE ENERGY PREDICTED BY IDOCK:   64.11 KCAL/MOL
REMARK 924 INTRA-LIGAND FREE ENERGY PREDICTED BY IDOCK:    5.16 KCAL/MOL
REMARK 927      BINDING AFFINITY PREDICTED BY RF-SCORE:    0.00 PKD
ROOT
HETATM    1  C   UNL     1      -6.160   9.604  71.296  1.00  0.00    -0.035 C  
HETATM    2  C   UNL     1      -7.567   9.540  70.792  1.00  0.00    -0.099 A  
HETATM    3  C   UNL     1      -8.115   8.843  69.706  1.00  0.00    -0.109 A  
HETATM    4  C   UNL     1     -11.053  10.839  72.724  1.00  0.00     7.829 A  
HETATM    5  N   UNL     1      -9.508   9.085  69.750  1.00  0.00    -0.168 NA 
HETATM    6  O   UNL     1      -9.957  12.227  74.263  1.00  0.00    15.678 OA 
HETATM    7  C   UNL     1      -9.826   9.722  70.947  1.00  0.00     0.052 A  
HETATM    8  C   UNL     1      -9.880  11.380  73.198  1.00  0.00    20.387 A  
HETATM    9  C   UNL     1      -8.632  10.177  71.498  1.00  0.00     3.127 A  
HETATM   10  H   UNL     1     -10.790  12.465  74.652  1.00  0.00     0.000 HD 
HETATM   11  C   UNL     1     -11.032   9.977  71.627  1.00  0.00     0.479 A  
HETATM   12  C   UNL     1      -8.661  11.031  72.629  1.00  0.00    15.419 A  
ENDROOT
BRANCH   3  13
HETATM   13  C   UNL     1      -7.411   8.001  68.694  1.00  0.00    -0.098 A  
HETATM   14  C   UNL     1      -5.964   6.361  66.899  1.00  0.00    -0.025 A  
HETATM   15  H   UNL     1      -4.335   5.822  65.814  1.00  0.00     0.000 HD 
HETATM   16  C   UNL     1      -6.121   8.345  68.255  1.00  0.00    -0.046 A  
HETATM   17  C   UNL     1      -5.387   7.518  67.396  1.00  0.00    -0.026 A  
HETATM   18  O   UNL     1      -5.222   5.586  66.060  1.00  0.00    -0.008 OA 
HETATM   19  C   UNL     1      -7.962   6.817  68.176  1.00  0.00    -0.114 A  
HETATM   20  C   UNL     1      -7.260   6.018  67.259  1.00  0.00    -0.076 A  
ENDBRANCH   3  13
BRANCH   5  21
HETATM   21  C   UNL     1     -10.454   8.711  68.666  1.00  0.00    -0.177 C  
BRANCH  21  22
HETATM   22  C   UNL     1     -10.472   9.575  67.428  1.00  0.00    -0.336 A  
HETATM   23  C   UNL     1      -9.778   9.943  65.143  1.00  0.00    -0.376 A  
HETATM   24  C   UNL     1     -10.793  11.744  66.354  1.00  0.00    -0.325 A  
HETATM   25  C   UNL     1      -9.922   9.098  66.239  1.00  0.00    -0.352 A  
HETATM   26  C   UNL     1     -10.110  11.299  65.231  1.00  0.00    -0.267 A  
HETATM   27  C   UNL     1     -11.044  10.857  67.400  1.00  0.00    -0.373 A  
BRANCH  26  28
HETATM   28  O   UNL     1      -9.786  12.251  64.284  1.00  0.00    -0.150 OA 
BRANCH  28  29
HETATM   29  C   UNL     1      -8.372  12.416  64.146  1.00  0.00     3.197 C  
BRANCH  29  30
HETATM   30  C   UNL     1      -7.684  11.421  63.201  1.00  0.00     0.961 C  
BRANCH  30  31
HETATM   31  N   UNL     1      -7.801  10.026  63.725  1.00  0.00    -0.149 NA 
HETATM   32  C   UNL     1      -8.611   9.188  62.824  1.00  0.00    -0.209 C  
HETATM   33  C   UNL     1      -8.846   7.730  63.216  1.00  0.00     0.803 C  
HETATM   34  C   UNL     1      -7.605   6.873  63.061  1.00  0.00    -0.096 C  
HETATM   35  C   UNL     1      -6.674   6.917  64.262  1.00  0.00    -0.045 C  
HETATM   36  C   UNL     1      -6.539   8.266  64.960  1.00  0.00    -0.059 C  
HETATM   37  C   UNL     1      -6.473   9.482  64.030  1.00  0.00    -0.100 C  
ENDBRANCH  30  31
ENDBRANCH  29  30
ENDBRANCH  28  29
ENDBRANCH  26  28
ENDBRANCH  21  22
ENDBRANCH   5  21
TORSDOF 7
ENDMDL
MODEL      245
REMARK 921   NORMALIZED FREE ENERGY PREDICTED BY IDOCK:   51.39 KCAL/MOL
REMARK 922        TOTAL FREE ENERGY PREDICTED BY IDOCK:   69.35 KCAL/MOL
REMARK 923 INTER-LIGAND FREE ENERGY PREDICTED BY IDOCK:   68.79 KCAL/MOL
REMARK 924 INTRA-LIGAND FREE ENERGY PREDICTED BY IDOCK:    0.55 KCAL/MOL
REMARK 927      BINDING AFFINITY PREDICTED BY RF-SCORE:    0.00 PKD
ROOT
HETATM    1  C   UNL     1     -12.229  15.920  63.386  1.00  0.00     2.204 C  
HETATM    2  C   UNL     1     -11.122  15.339  64.208  1.00  0.00     0.053 A  
HETATM    3  C   UNL     1     -10.754  14.004  64.427  1.00  0.00    -0.216 A  
HETATM    4  C   UNL     1      -7.839  17.337  65.881  1.00  0.00    -0.054 A  
HETATM    5  N   UNL     1      -9.585  14.047  65.221  1.00  0.00     0.003 NA 
HETATM    6  O   UNL     1      -8.775  19.480  65.730  1.00  0.00    -0.400 OA 
HETATM    7  C   UNL     1      -9.128  15.361  65.297  1.00  0.00     0.997 A  
HETATM    8  C   UNL     1      -8.906  18.137  65.543  1.00  0.00     1.079 A  
HETATM    9  C   UNL     1     -10.162  16.178  64.848  1.00  0.00     0.256 A  
HETATM   10  H   UNL     1      -7.990  19.857  66.109  1.00  0.00     0.000 HD 
HETATM   11  C   UNL     1      -7.925  15.953  65.722  1.00  0.00     1.432 A  
HETATM   12  C   UNL     1     -10.055  17.585  64.989  1.00  0.00     1.290 A  
ENDROOT
BRANCH   3  13
HETATM   13  C   UNL     1     -11.425  12.765  63.935  1.00  0.00    -0.505 A  
HETATM   14  C   UNL     1     -12.572  10.325  63.077  1.00  0.00     6.442 A  
HETATM   15  H   UNL     1     -12.621   8.593  62.018  1.00  0.00     0.000 HD 
HETATM   16  C   UNL     1     -10.819  11.970  62.948  1.00  0.00     0.195 A  
HETATM   17  C   UNL     1     -11.364  10.744  62.546  1.00  0.00     2.055 A  
HETATM   18  O   UNL     1     -13.074   9.130  62.657  1.00  0.00    11.783 OA 
HETATM   19  C   UNL     1     -12.646  12.305  64.457  1.00  0.00    -0.416 A  
HETATM   20  C   UNL     1     -13.235  11.110  64.010  1.00  0.00     2.288 A  
ENDBRANCH   3  13
BRANCH   5  21
HETATM   21  C   UNL     1      -8.971  12.856  65.866  1.00  0.00     0.400 C  
BRANCH  21  22
HETATM   22  C   UNL     1      -9.310  12.595  67.313  1.00  0.00    -0.195 A  
HETATM   23  C   UNL     1     -10.536  13.210  69.302  1.00  0.00     0.099 A  
HETATM   24  C   UNL     1      -8.771  11.601  69.477  1.00  0.00     0.988 A  
HETATM   25  C   UNL     1     -10.329  13.319  67.930  1.00  0.00    -0.239 A  
HETATM   26  C   UNL     1      -9.687  12.436  70.100  1.00  0.00     3.518 A  
HETATM   27  C   UNL     1      -8.654  11.624  68.088  1.00  0.00    -0.158 A  
BRANCH  26  28
HETATM   28  O   UNL     1      -9.672  12.456  71.481  1.00  0.00    10.615 OA 
BRANCH  28  29
HETATM   29  C   UNL     1     -10.791  13.162  72.023  1.00  0.00     7.167 C  
BRANCH  29  30
HETATM   30  C   UNL     1     -12.064  12.325  72.215  1.00  0.00     2.282 C  
BRANCH  30  31
HETATM   31  N   UNL     1     -12.239  11.362  71.085  1.00  0.00    -0.284 NA 
HETATM   32  C   UNL     1     -12.913  10.133  71.538  1.00  0.00    -0.444 C  
HETATM   33  C   UNL     1     -13.161   9.030  70.510  1.00  0.00     0.589 C  
HETATM   34  C   UNL     1     -14.253   9.384  69.520  1.00  0.00     4.411 C  
HETATM   35  C   UNL     1     -13.769  10.207  68.338  1.00  0.00     9.635 C  
HETATM   36  C   UNL     1     -12.698  11.250  68.638  1.00  0.00     1.350 C  
HETATM   37  C   UNL     1     -12.885  12.025  69.946  1.00  0.00     0.572 C  
ENDBRANCH  30  31
ENDBRANCH  29  30
ENDBRANCH  28  29
ENDBRANCH  26  28
ENDBRANCH  21  22
ENDBRANCH   5  21
TORSDOF 7
ENDMDL
MODEL      246
REMARK 921   NORMALIZED FREE ENERGY PREDICTED BY IDOCK:   51.57 KCAL/MOL
REMARK 922        TOTAL FREE ENERGY PREDICTED BY IDOCK:   69.61 KCAL/MOL
REMARK 923 INTER-LIGAND FREE ENERGY PREDICTED BY IDOCK:   68.16 KCAL/MOL
REMARK 924 INTRA-LIGAND FREE ENERGY PREDICTED BY IDOCK:    1.45 KCAL/MOL
REMARK 927      BINDING AFFINITY PREDICTED BY RF-SCORE:    0.00 PKD
ROOT
HETATM    1  C   UNL     1      -6.160   9.604  71.296  1.00  0.00    -0.035 C  
HETATM    2  C   UNL     1      -7.562   9.529  70.779  1.00  0.00    -0.099 A  
HETATM    3  C   UNL     1      -8.096   8.821  69.692  1.00  0.00    -0.101 A  
HETATM    4  C   UNL     1     -11.073  10.822  72.667  1.00  0.00     7.030 A  
HETATM    5  N   UNL     1      -9.489   9.056  69.721  1.00  0.00    -0.168 NA 
HETATM    6  O   UNL     1     -10.000  12.226  74.208  1.00  0.00    15.678 OA 
HETATM    7  C   UNL     1      -9.823   9.700  70.911  1.00  0.00    -0.098 A  
HETATM    8  C   UNL     1      -9.908  11.373  73.149  1.00  0.00    20.387 A  
HETATM    9  C   UNL     1      -8.636  10.165  71.470  1.00  0.00     3.127 A  
HETATM   10  H   UNL     1     -10.838  12.462  74.587  1.00  0.00     0.000 HD 
HETATM   11  C   UNL     1     -11.037   9.953  71.577  1.00  0.00    -0.068 A  
HETATM   12  C   UNL     1      -8.682  11.027  72.594  1.00  0.00    15.419 A  
ENDROOT
BRANCH   3  13
HETATM   13  C   UNL     1      -7.377   7.977  68.693  1.00  0.00    -0.089 A  
HETATM   14  C   UNL     1      -5.904   6.332  66.924  1.00  0.00    -0.020 A  
HETATM   15  H   UNL     1      -4.261   5.794  65.858  1.00  0.00     0.000 HD 
HETATM   16  C   UNL     1      -6.085   8.324  68.265  1.00  0.00    -0.046 A  
HETATM   17  C   UNL     1      -5.338   7.495  67.418  1.00  0.00    -0.026 A  
HETATM   18  O   UNL     1      -5.149   5.556  66.098  1.00  0.00    -0.005 OA 
HETATM   19  C   UNL     1      -7.917   6.786  68.178  1.00  0.00    -0.114 A  
HETATM   20  C   UNL     1      -7.201   5.984  67.273  1.00  0.00    -0.076 A  
ENDBRANCH   3  13
BRANCH   5  21
HETATM   21  C   UNL     1     -10.423   8.670  68.630  1.00  0.00    -0.177 C  
BRANCH  21  22
HETATM   22  C   UNL     1     -10.434   9.525  67.387  1.00  0.00    -0.336 A  
HETATM   23  C   UNL     1      -9.508  11.366  66.125  1.00  0.00    -0.237 A  
HETATM   24  C   UNL     1     -11.584  10.401  65.419  1.00  0.00     2.105 A  
HETATM   25  C   UNL     1      -9.419  10.457  67.175  1.00  0.00    -0.183 A  
HETATM   26  C   UNL     1     -10.644  11.415  65.309  1.00  0.00    -0.277 A  
HETATM   27  C   UNL     1     -11.423   9.419  66.396  1.00  0.00     2.426 A  
BRANCH  26  28
HETATM   28  O   UNL     1     -10.919  12.423  64.406  1.00  0.00    -0.297 OA 
BRANCH  28  29
HETATM   29  C   UNL     1     -11.098  13.689  65.047  1.00  0.00    -0.332 C  
BRANCH  29  30
HETATM   30  C   UNL     1      -9.805  14.468  65.332  1.00  0.00    -0.239 C  
BRANCH  30  31
HETATM   31  N   UNL     1      -8.945  13.727  66.304  1.00  0.00     0.021 NA 
HETATM   32  C   UNL     1      -7.679  13.307  65.676  1.00  0.00     4.268 C  
HETATM   33  C   UNL     1      -6.683  12.521  66.527  1.00  0.00     1.030 C  
HETATM   34  C   UNL     1      -5.996  13.380  67.571  1.00  0.00    -0.050 C  
HETATM   35  C   UNL     1      -6.788  13.531  68.860  1.00  0.00    -0.111 C  
HETATM   36  C   UNL     1      -8.301  13.644  68.711  1.00  0.00     0.041 C  
HETATM   37  C   UNL     1      -8.783  14.505  67.537  1.00  0.00    -0.188 C  
ENDBRANCH  30  31
ENDBRANCH  29  30
ENDBRANCH  28  29
ENDBRANCH  26  28
ENDBRANCH  21  22
ENDBRANCH   5  21
TORSDOF 7
ENDMDL
MODEL      247
REMARK 921   NORMALIZED FREE ENERGY PREDICTED BY IDOCK:   57.60 KCAL/MOL
REMARK 922        TOTAL FREE ENERGY PREDICTED BY IDOCK:   78.10 KCAL/MOL
REMARK 923 INTER-LIGAND FREE ENERGY PREDICTED BY IDOCK:   74.90 KCAL/MOL
REMARK 924 INTRA-LIGAND FREE ENERGY PREDICTED BY IDOCK:    3.20 KCAL/MOL
REMARK 927      BINDING AFFINITY PREDICTED BY RF-SCORE:    0.00 PKD
ROOT
HETATM    1  C   UNL     1     -12.207  15.890  63.357  1.00  0.00     2.204 C  
HETATM    2  C   UNL     1     -10.978  15.306  63.978  1.00  0.00     0.764 A  
HETATM    3  C   UNL     1     -10.590  13.968  64.147  1.00  0.00     0.288 A  
HETATM    4  C   UNL     1      -7.432  17.283  65.019  1.00  0.00     3.257 A  
HETATM    5  N   UNL     1      -9.299  14.007  64.722  1.00  0.00     0.879 NA 
HETATM    6  O   UNL     1      -8.359  19.435  65.007  1.00  0.00     0.659 OA 
HETATM    7  C   UNL     1      -8.823  15.316  64.698  1.00  0.00     4.988 A  
HETATM    8  C   UNL     1      -8.534  18.091  64.864  1.00  0.00     4.039 A  
HETATM    9  C   UNL     1      -9.912  16.140  64.428  1.00  0.00     2.395 A  
HETATM   10  H   UNL     1      -7.515  19.807  65.236  1.00  0.00     0.000 HD 
HETATM   11  C   UNL     1      -7.558  15.898  64.897  1.00  0.00     8.112 A  
HETATM   12  C   UNL     1      -9.767  17.547  64.529  1.00  0.00     4.871 A  
ENDROOT
BRANCH   3  13
HETATM   13  C   UNL     1     -11.350  12.732  63.798  1.00  0.00    -0.520 A  
HETATM   14  C   UNL     1     -12.654  10.296  63.187  1.00  0.00     6.491 A  
HETATM   15  H   UNL     1     -12.907   8.555  62.173  1.00  0.00     0.000 HD 
HETATM   16  C   UNL     1     -10.939  11.922  62.725  1.00  0.00     0.466 A  
HETATM   17  C   UNL     1     -11.558  10.699  62.443  1.00  0.00     2.830 A  
HETATM   18  O   UNL     1     -13.233   9.103  62.878  1.00  0.00    12.128 OA 
HETATM   19  C   UNL     1     -12.460  12.289  64.537  1.00  0.00    -0.464 A  
HETATM   20  C   UNL     1     -13.130  11.097  64.216  1.00  0.00     2.547 A  
ENDBRANCH   3  13
BRANCH   5  21
HETATM   21  C   UNL     1      -8.592  12.816  65.265  1.00  0.00     1.895 C  
BRANCH  21  22
HETATM   22  C   UNL     1      -8.667  12.580  66.753  1.00  0.00    -0.147 A  
HETATM   23  C   UNL     1      -9.503  13.243  68.921  1.00  0.00     0.211 A  
HETATM   24  C   UNL     1      -7.758  11.606  68.799  1.00  0.00    -0.111 A  
HETATM   25  C   UNL     1      -9.547  13.329  67.533  1.00  0.00    -0.218 A  
HETATM   26  C   UNL     1      -8.534  12.465  69.564  1.00  0.00     1.464 A  
HETATM   27  C   UNL     1      -7.895  11.609  67.412  1.00  0.00    -0.147 A  
BRANCH  26  28
HETATM   28  O   UNL     1      -8.268  12.503  70.919  1.00  0.00     6.085 OA 
BRANCH  28  29
HETATM   29  C   UNL     1      -7.154  13.345  71.228  1.00  0.00     3.599 C  
BRANCH  29  30
HETATM   30  C   UNL     1      -7.488  14.832  71.414  1.00  0.00     2.578 C  
BRANCH  30  31
HETATM   31  N   UNL     1      -8.529  15.267  70.433  1.00  0.00     0.797 NA 
HETATM   32  C   UNL     1      -9.368  16.340  70.994  1.00  0.00     3.610 C  
HETATM   33  C   UNL     1     -10.497  16.895  70.127  1.00  0.00     0.259 C  
HETATM   34  C   UNL     1      -9.992  17.752  68.983  1.00  0.00    -0.264 C  
HETATM   35  C   UNL     1      -9.600  16.959  67.747  1.00  0.00    -0.249 C  
HETATM   36  C   UNL     1      -8.927  15.614  67.997  1.00  0.00    -0.178 C  
HETATM   37  C   UNL     1      -7.909  15.592  69.143  1.00  0.00    -0.215 C  
ENDBRANCH  30  31
ENDBRANCH  29  30
ENDBRANCH  28  29
ENDBRANCH  26  28
ENDBRANCH  21  22
ENDBRANCH   5  21
TORSDOF 7
ENDMDL
