MODEL        1
REMARK 921   NORMALIZED FREE ENERGY PREDICTED BY IDOCK:   -6.62 KCAL/MOL
REMARK 922        TOTAL FREE ENERGY PREDICTED BY IDOCK:   -9.44 KCAL/MOL
REMARK 923 INTER-LIGAND FREE ENERGY PREDICTED BY IDOCK:   -9.71 KCAL/MOL
REMARK 924 INTRA-LIGAND FREE ENERGY PREDICTED BY IDOCK:    0.27 KCAL/MOL
REMARK 927      BINDING AFFINITY PREDICTED BY RF-SCORE:    0.00 PKD
ROOT
HETATM    1  C   UNL     1      -8.353   8.454  67.165  1.00  0.00    -0.122 C  
HETATM    2  C   UNL     1      -7.049   8.992  67.295  1.00  0.00    -0.079 C  
HETATM    3  C   UNL     1      -8.014   9.188  68.433  1.00  0.00    -0.103 C  
HETATM    4  C   UNL     1      -6.967   9.893  69.647  1.00  0.00    -0.086 C  
HETATM    5  C   UNL     1      -9.600   7.848  68.485  1.00  0.00    -0.150 C  
HETATM    6  C   UNL     1     -10.191  12.121  65.042  1.00  0.00    -0.312 C  
HETATM    7 CL   UNL     1      -8.015  11.971  67.223  1.00  0.00    -0.166 Cl 
HETATM    8  C   UNL     1      -8.451   8.171  69.125  1.00  0.00    -0.135 C  
HETATM    9  C   UNL     1      -9.582   9.514  69.916  1.00  0.00    -0.250 C  
HETATM   10  C   UNL     1      -7.461   7.092  69.706  1.00  0.00    -0.098 C  
HETATM   11  C   UNL     1     -10.335  10.740  64.416  1.00  0.00    -0.405 C  
HETATM   12  O   UNL     1     -12.422  13.808  63.140  1.00  0.00    -0.786 OA 
HETATM   13  C   UNL     1      -9.330   9.766  65.013  1.00  0.00    -0.325 C  
HETATM   14  C   UNL     1     -12.726  12.912  65.344  1.00  0.00    -0.313 C  
HETATM   15  C   UNL     1      -9.558   9.605  66.517  1.00  0.00    -0.252 C  
HETATM   16  C   UNL     1     -10.290  10.697  68.863  1.00  0.00    -0.207 C  
HETATM   17  C   UNL     1     -11.909  13.336  64.145  1.00  0.00    -0.443 C  
HETATM   18  C   UNL     1      -9.787  11.042  67.286  1.00  0.00    -0.204 C  
HETATM   19  C   UNL     1     -10.296  13.589  67.229  1.00  0.00    -0.241 C  
HETATM   20  C   UNL     1     -10.411  13.196  64.261  1.00  0.00    -0.410 C  
HETATM   21  O   UNL     1     -11.696  10.381  68.827  1.00  0.00    -0.495 OA 
HETATM   22  H   UNL     1     -12.083  11.029  68.251  1.00  0.00     0.000 HD 
HETATM   23  C   UNL     1     -10.633  12.199  66.529  1.00  0.00    -0.269 C  
HETATM   24  C   UNL     1     -12.160  12.321  66.428  1.00  0.00    -0.123 C  
ENDROOT
BRANCH   5  25
HETATM   25  O   UNL     1      -9.371   6.515  67.763  1.00  0.00    -0.120 OA 
BRANCH  25  26
HETATM   26  C   UNL     1     -10.368   5.988  66.981  1.00  0.00    -0.240 C  
HETATM   27  O   UNL     1     -11.341   6.626  66.605  1.00  0.00    -0.150 OA 
BRANCH  26  28
HETATM   28  C   UNL     1     -10.104   4.524  66.697  1.00  0.00    -0.238 C  
HETATM   29  C   UNL     1      -9.180   3.857  67.706  1.00  0.00    -0.206 C  
ENDBRANCH  26  28
ENDBRANCH  25  26
ENDBRANCH   5  25
BRANCH   5  30
HETATM   30  C   UNL     1     -10.203   6.973  69.853  1.00  0.00    -0.201 C  
HETATM   31  O   UNL     1      -9.524   6.570  70.819  1.00  0.00    -0.170 OA 
BRANCH  30  32
HETATM   32  C   UNL     1     -11.716   6.705  69.975  1.00  0.00    -0.317 C  
BRANCH  32  33
HETATM   33  O   UNL     1     -12.124   6.724  71.371  1.00  0.00    -0.333 OA 
BRANCH  33  34
HETATM   34  C   UNL     1     -13.156   7.567  71.669  1.00  0.00    -0.358 C  
HETATM   35  O   UNL     1     -14.321   7.340  71.375  1.00  0.00    -0.431 OA 
BRANCH  34  36
HETATM   36  C   UNL     1     -12.673   8.799  72.412  1.00  0.00    -0.433 C  
HETATM   37  C   UNL     1     -13.238  10.082  71.809  1.00  0.00    -0.540 C  
ENDBRANCH  34  36
ENDBRANCH  33  34
ENDBRANCH  32  33
ENDBRANCH  30  32
ENDBRANCH   5  30
TORSDOF 8
ENDMDL
MODEL        2
REMARK 921   NORMALIZED FREE ENERGY PREDICTED BY IDOCK:   -6.48 KCAL/MOL
REMARK 922        TOTAL FREE ENERGY PREDICTED BY IDOCK:   -9.25 KCAL/MOL
REMARK 923 INTER-LIGAND FREE ENERGY PREDICTED BY IDOCK:   -9.16 KCAL/MOL
REMARK 924 INTRA-LIGAND FREE ENERGY PREDICTED BY IDOCK:   -0.08 KCAL/MOL
REMARK 927      BINDING AFFINITY PREDICTED BY RF-SCORE:    0.00 PKD
ROOT
HETATM    1  C   UNL     1      -8.344   8.441  67.071  1.00  0.00    -0.114 C  
HETATM    2  C   UNL     1      -7.033   8.965  67.186  1.00  0.00    -0.075 C  
HETATM    3  C   UNL     1      -7.968   9.128  68.354  1.00  0.00    -0.103 C  
HETATM    4  C   UNL     1      -6.885   9.784  69.563  1.00  0.00    -0.060 C  
HETATM    5  C   UNL     1      -9.562   7.799  68.401  1.00  0.00    -0.152 C  
HETATM    6  C   UNL     1     -10.206  12.190  65.121  1.00  0.00    -0.308 C  
HETATM    7 CL   UNL     1      -7.977  11.952  67.239  1.00  0.00    -0.163 Cl 
HETATM    8  C   UNL     1      -8.395   8.092  69.022  1.00  0.00    -0.129 C  
HETATM    9  C   UNL     1      -9.495   9.415  69.887  1.00  0.00    -0.235 C  
HETATM   10  C   UNL     1      -7.399   6.987  69.540  1.00  0.00    -0.094 C  
HETATM   11  C   UNL     1     -10.377  10.833  64.452  1.00  0.00    -0.405 C  
HETATM   12  O   UNL     1     -12.471  13.957  63.335  1.00  0.00    -0.833 OA 
HETATM   13  C   UNL     1      -9.365   9.832  64.990  1.00  0.00    -0.325 C  
HETATM   14  C   UNL     1     -12.727  12.988  65.514  1.00  0.00    -0.291 C  
HETATM   15  C   UNL     1      -9.556   9.621  66.494  1.00  0.00    -0.252 C  
HETATM   16  C   UNL     1     -10.219  10.638  68.893  1.00  0.00    -0.201 C  
HETATM   17  C   UNL     1     -11.936  13.448  64.310  1.00  0.00    -0.430 C  
HETATM   18  C   UNL     1      -9.754  11.033  67.316  1.00  0.00    -0.188 C  
HETATM   19  C   UNL     1     -10.244  13.584  67.359  1.00  0.00    -0.237 C  
HETATM   20  C   UNL     1     -10.438  13.292  64.383  1.00  0.00    -0.424 C  
HETATM   21  O   UNL     1     -11.628  10.334  68.882  1.00  0.00    -0.463 OA 
HETATM   22  H   UNL     1     -12.025  11.004  68.338  1.00  0.00     0.000 HD 
HETATM   23  C   UNL     1     -10.610  12.221  66.621  1.00  0.00    -0.257 C  
HETATM   24  C   UNL     1     -12.138  12.357  66.563  1.00  0.00    -0.179 C  
ENDROOT
BRANCH   5  25
HETATM   25  O   UNL     1      -9.362   6.490  67.629  1.00  0.00    -0.120 OA 
BRANCH  25  26
HETATM   26  C   UNL     1     -10.422   5.928  66.961  1.00  0.00    -0.278 C  
HETATM   27  O   UNL     1     -11.455   6.529  66.707  1.00  0.00    -0.155 OA 
BRANCH  26  28
HETATM   28  C   UNL     1     -10.135   4.478  66.633  1.00  0.00    -0.238 C  
HETATM   29  C   UNL     1      -9.669   3.655  67.826  1.00  0.00    -0.109 C  
ENDBRANCH  26  28
ENDBRANCH  25  26
ENDBRANCH   5  25
BRANCH   5  30
HETATM   30  C   UNL     1     -10.137   6.882  69.754  1.00  0.00    -0.184 C  
HETATM   31  O   UNL     1      -9.462   6.084  70.435  1.00  0.00    -0.160 OA 
BRANCH  30  32
HETATM   32  C   UNL     1     -11.583   7.086  70.249  1.00  0.00    -0.262 C  
BRANCH  32  33
HETATM   33  O   UNL     1     -11.713   6.649  71.630  1.00  0.00    -0.284 OA 
BRANCH  33  34
HETATM   34  C   UNL     1     -11.575   7.629  72.571  1.00  0.00    -0.330 C  
HETATM   35  O   UNL     1     -12.263   8.639  72.601  1.00  0.00    -0.361 OA 
BRANCH  34  36
HETATM   36  C   UNL     1     -10.479   7.296  73.567  1.00  0.00    -0.421 C  
HETATM   37  C   UNL     1      -9.205   8.089  73.292  1.00  0.00    -0.347 C  
ENDBRANCH  34  36
ENDBRANCH  33  34
ENDBRANCH  32  33
ENDBRANCH  30  32
ENDBRANCH   5  30
TORSDOF 8
ENDMDL
MODEL        3
REMARK 921   NORMALIZED FREE ENERGY PREDICTED BY IDOCK:   -6.47 KCAL/MOL
REMARK 922        TOTAL FREE ENERGY PREDICTED BY IDOCK:   -9.23 KCAL/MOL
REMARK 923 INTER-LIGAND FREE ENERGY PREDICTED BY IDOCK:   -9.12 KCAL/MOL
REMARK 924 INTRA-LIGAND FREE ENERGY PREDICTED BY IDOCK:   -0.11 KCAL/MOL
REMARK 927      BINDING AFFINITY PREDICTED BY RF-SCORE:    0.00 PKD
ROOT
HETATM    1  C   UNL     1      -9.066  13.194  66.979  1.00  0.00    -0.231 C  
HETATM    2  C   UNL     1      -9.358  12.689  65.688  1.00  0.00     0.116 C  
HETATM    3  C   UNL     1     -10.506  12.943  66.627  1.00  0.00    -0.272 C  
HETATM    4  C   UNL     1     -11.875  12.674  65.569  1.00  0.00    -0.479 C  
HETATM    5  C   UNL     1     -10.104  14.271  68.172  1.00  0.00    -0.232 C  
HETATM    6  C   UNL     1      -8.403   9.083  68.976  1.00  0.00    -0.124 C  
HETATM    7 CL   UNL     1     -10.358   9.913  66.740  1.00  0.00    -0.294 Cl 
HETATM    8  C   UNL     1     -10.800  14.154  67.016  1.00  0.00    -0.295 C  
HETATM    9  C   UNL     1     -12.031  13.218  68.164  1.00  0.00    -0.340 C  
HETATM   10  C   UNL     1     -10.947  15.332  65.980  1.00  0.00    -0.317 C  
HETATM   11  C   UNL     1      -7.332  10.158  69.097  1.00  0.00    -0.089 C  
HETATM   12  O   UNL     1      -7.254   6.915  71.305  1.00  0.00    -0.074 OA 
HETATM   13  C   UNL     1      -7.531  11.243  68.049  1.00  0.00    -0.095 C  
HETATM   14  C   UNL     1      -9.003   8.542  71.524  1.00  0.00    -0.276 C  
HETATM   15  C   UNL     1      -8.884  11.933  68.232  1.00  0.00    -0.174 C  
HETATM   16  C   UNL     1     -11.475  11.766  68.933  1.00  0.00    -0.297 C  
HETATM   17  C   UNL     1      -8.019   7.692  70.751  1.00  0.00    -0.102 C  
HETATM   18  C   UNL     1     -10.115  10.869  68.482  1.00  0.00    -0.193 C  
HETATM   19  C   UNL     1     -10.970   8.485  69.065  1.00  0.00     0.082 C  
HETATM   20  C   UNL     1      -8.056   7.810  69.248  1.00  0.00    -0.127 C  
HETATM   21  O   UNL     1     -11.351  12.099  70.329  1.00  0.00    -0.483 OA 
HETATM   22  H   UNL     1     -11.046  11.304  70.750  1.00  0.00     0.000 HD 
HETATM   23  C   UNL     1      -9.829   9.550  69.381  1.00  0.00    -0.194 C  
HETATM   24  C   UNL     1      -9.799   9.457  70.913  1.00  0.00    -0.338 C  
ENDROOT
BRANCH   5  25
HETATM   25  O   UNL     1      -8.954  15.254  67.924  1.00  0.00    -0.168 OA 
BRANCH  25  26
HETATM   26  C   UNL     1      -8.114  15.588  68.957  1.00  0.00    -0.220 C  
HETATM   27  O   UNL     1      -7.948  14.890  69.946  1.00  0.00    -0.044 OA 
BRANCH  26  28
HETATM   28  C   UNL     1      -7.471  16.936  68.705  1.00  0.00    -0.237 C  
HETATM   29  C   UNL     1      -8.468  18.051  68.418  1.00  0.00    -0.306 C  
ENDBRANCH  26  28
ENDBRANCH  25  26
ENDBRANCH   5  25
BRANCH   5  30
HETATM   30  C   UNL     1     -11.083  15.594  68.713  1.00  0.00    -0.307 C  
HETATM   31  O   UNL     1     -11.626  16.446  67.982  1.00  0.00    -0.168 OA 
BRANCH  30  32
HETATM   32  C   UNL     1     -11.405  15.736  70.214  1.00  0.00    -0.361 C  
BRANCH  32  33
HETATM   33  O   UNL     1     -12.842  15.795  70.422  1.00  0.00    -0.401 OA 
BRANCH  33  34
HETATM   34  C   UNL     1     -13.326  14.984  71.409  1.00  0.00    -0.436 C  
HETATM   35  O   UNL     1     -13.492  13.780  71.274  1.00  0.00    -0.272 OA 
BRANCH  34  36
HETATM   36  C   UNL     1     -13.615  15.763  72.680  1.00  0.00    -0.630 C  
HETATM   37  C   UNL     1     -12.637  15.408  73.795  1.00  0.00    -0.747 C  
ENDBRANCH  34  36
ENDBRANCH  33  34
ENDBRANCH  32  33
ENDBRANCH  30  32
ENDBRANCH   5  30
TORSDOF 8
ENDMDL
MODEL        4
REMARK 921   NORMALIZED FREE ENERGY PREDICTED BY IDOCK:   -6.37 KCAL/MOL
REMARK 922        TOTAL FREE ENERGY PREDICTED BY IDOCK:   -9.08 KCAL/MOL
REMARK 923 INTER-LIGAND FREE ENERGY PREDICTED BY IDOCK:   -9.82 KCAL/MOL
REMARK 924 INTRA-LIGAND FREE ENERGY PREDICTED BY IDOCK:    0.74 KCAL/MOL
REMARK 927      BINDING AFFINITY PREDICTED BY RF-SCORE:    0.00 PKD
ROOT
HETATM    1  C   UNL     1     -11.580  12.176  67.151  1.00  0.00    -0.405 C  
HETATM    2  C   UNL     1     -11.780  12.092  65.752  1.00  0.00    -0.391 C  
HETATM    3  C   UNL     1     -10.413  11.771  66.294  1.00  0.00    -0.281 C  
HETATM    4  C   UNL     1      -9.610  11.176  64.857  1.00  0.00    -0.279 C  
HETATM    5  C   UNL     1     -10.363  11.255  68.306  1.00  0.00    -0.183 C  
HETATM    6  C   UNL     1     -10.500  16.666  67.228  1.00  0.00    -0.313 C  
HETATM    7 CL   UNL     1      -9.903  14.515  65.101  1.00  0.00    -0.257 Cl 
HETATM    8  C   UNL     1     -10.223  10.733  67.063  1.00  0.00    -0.261 C  
HETATM    9  C   UNL     1      -8.462  11.492  67.231  1.00  0.00    -0.152 C  
HETATM   10  C   UNL     1     -10.770   9.310  66.664  1.00  0.00    -0.066 C  
HETATM   11  C   UNL     1     -11.602  16.143  68.139  1.00  0.00    -0.133 C  
HETATM   12  O   UNL     1     -10.087  19.734  68.592  1.00  0.00    -0.438 OA 
HETATM   13  C   UNL     1     -12.090  14.779  67.673  1.00  0.00    -0.138 C  
HETATM   14  C   UNL     1      -8.769  17.761  68.946  1.00  0.00    -0.118 C  
HETATM   15  C   UNL     1     -10.954  13.755  67.707  1.00  0.00    -0.272 C  
HETATM   16  C   UNL     1      -8.337  13.213  67.412  1.00  0.00    -0.188 C  
HETATM   17  C   UNL     1      -9.802  18.601  68.229  1.00  0.00    -0.371 C  
HETATM   18  C   UNL     1      -9.554  14.333  67.063  1.00  0.00    -0.260 C  
HETATM   19  C   UNL     1      -8.083  16.309  66.236  1.00  0.00    -0.267 C  
HETATM   20  C   UNL     1     -10.440  17.993  67.005  1.00  0.00    -0.361 C  
HETATM   21  O   UNL     1      -7.911  13.422  68.773  1.00  0.00    -0.262 OA 
HETATM   22  H   UNL     1      -7.842  14.364  68.872  1.00  0.00     0.000 HD 
HETATM   23  C   UNL     1      -9.161  15.884  67.328  1.00  0.00    -0.216 C  
HETATM   24  C   UNL     1      -8.509  16.477  68.585  1.00  0.00    -0.243 C  
ENDROOT
BRANCH   5  25
HETATM   25  O   UNL     1     -11.674  10.720  68.890  1.00  0.00    -0.294 OA 
BRANCH  25  26
HETATM   26  C   UNL     1     -12.125  11.200  70.094  1.00  0.00    -0.362 C  
HETATM   27  O   UNL     1     -11.922  12.340  70.485  1.00  0.00    -0.335 OA 
BRANCH  26  28
HETATM   28  C   UNL     1     -12.860  10.118  70.857  1.00  0.00    -0.442 C  
HETATM   29  C   UNL     1     -13.404  10.574  72.204  1.00  0.00    -0.347 C  
ENDBRANCH  26  28
ENDBRANCH  25  26
ENDBRANCH   5  25
BRANCH   5  30
HETATM   30  C   UNL     1      -9.525   9.926  69.036  1.00  0.00    -0.183 C  
HETATM   31  O   UNL     1      -8.455   9.998  69.672  1.00  0.00    -0.164 OA 
BRANCH  30  32
HETATM   32  C   UNL     1     -10.151   8.517  68.988  1.00  0.00    -0.199 C  
BRANCH  32  33
HETATM   33  O   UNL     1     -10.143   7.913  70.311  1.00  0.00    -0.192 OA 
BRANCH  33  34
HETATM   34  C   UNL     1     -10.992   6.857  70.478  1.00  0.00    -0.273 C  
HETATM   35  O   UNL     1     -11.553   6.287  69.553  1.00  0.00    -0.423 OA 
BRANCH  34  36
HETATM   36  C   UNL     1     -11.136   6.483  71.942  1.00  0.00    -0.300 C  
HETATM   37  C   UNL     1     -10.874   7.673  72.859  1.00  0.00    -0.446 C  
ENDBRANCH  34  36
ENDBRANCH  33  34
ENDBRANCH  32  33
ENDBRANCH  30  32
ENDBRANCH   5  30
TORSDOF 8
ENDMDL
MODEL        5
REMARK 921   NORMALIZED FREE ENERGY PREDICTED BY IDOCK:   -5.94 KCAL/MOL
REMARK 922        TOTAL FREE ENERGY PREDICTED BY IDOCK:   -8.45 KCAL/MOL
REMARK 923 INTER-LIGAND FREE ENERGY PREDICTED BY IDOCK:   -8.31 KCAL/MOL
REMARK 924 INTRA-LIGAND FREE ENERGY PREDICTED BY IDOCK:   -0.13 KCAL/MOL
REMARK 927      BINDING AFFINITY PREDICTED BY RF-SCORE:    0.00 PKD
ROOT
HETATM    1  C   UNL     1      -8.568  12.052  66.928  1.00  0.00    -0.189 C  
HETATM    2  C   UNL     1      -8.351  11.213  65.808  1.00  0.00    -0.041 C  
HETATM    3  C   UNL     1      -9.770  11.540  66.185  1.00  0.00    -0.249 C  
HETATM    4  C   UNL     1     -10.647  10.845  64.837  1.00  0.00    -0.304 C  
HETATM    5  C   UNL     1     -10.004  13.247  67.344  1.00  0.00    -0.233 C  
HETATM    6  C   UNL     1      -8.558   8.678  70.082  1.00  0.00    -0.138 C  
HETATM    7 CL   UNL     1      -9.581   8.675  67.173  1.00  0.00    -0.208 Cl 
HETATM    8  C   UNL     1     -10.224  12.761  66.099  1.00  0.00    -0.286 C  
HETATM    9  C   UNL     1     -11.761  11.985  66.962  1.00  0.00    -0.341 C  
HETATM   10  C   UNL     1     -10.017  13.619  64.794  1.00  0.00    -0.147 C  
HETATM   11  C   UNL     1      -7.639   9.879  70.263  1.00  0.00    -0.172 C  
HETATM   12  O   UNL     1      -8.276   7.315  73.165  1.00  0.00    -0.102 OA 
HETATM   13  C   UNL     1      -7.473  10.639  68.955  1.00  0.00    -0.117 C  
HETATM   14  C   UNL     1     -10.033   8.707  72.310  1.00  0.00    -0.361 C  
HETATM   15  C   UNL     1      -8.820  11.172  68.463  1.00  0.00    -0.161 C  
HETATM   16  C   UNL     1     -11.481  10.850  68.244  1.00  0.00    -0.305 C  
HETATM   17  C   UNL     1      -8.809   7.828  72.190  1.00  0.00    -0.133 C  
HETATM   18  C   UNL     1     -10.023  10.053  68.555  1.00  0.00    -0.177 C  
HETATM   19  C   UNL     1     -10.959   7.796  69.441  1.00  0.00    -0.046 C  
HETATM   20  C   UNL     1      -8.296   7.567  70.796  1.00  0.00    -0.118 C  
HETATM   21  O   UNL     1     -11.888  11.529  69.448  1.00  0.00    -0.300 OA 
HETATM   22  H   UNL     1     -11.734  10.908  70.150  1.00  0.00     0.000 HD 
HETATM   23  C   UNL     1     -10.046   9.043  69.824  1.00  0.00    -0.209 C  
HETATM   24  C   UNL     1     -10.578   9.333  71.235  1.00  0.00    -0.417 C  
ENDROOT
BRANCH   5  25
HETATM   25  O   UNL     1      -8.875  14.279  67.247  1.00  0.00    -0.192 OA 
BRANCH  25  26
HETATM   26  C   UNL     1      -8.564  15.047  68.341  1.00  0.00    -0.162 C  
HETATM   27  O   UNL     1      -8.460  14.600  69.474  1.00  0.00     0.014 OA 
BRANCH  26  28
HETATM   28  C   UNL     1      -8.411  16.501  67.943  1.00  0.00    -0.175 C  
HETATM   29  C   UNL     1      -9.494  17.411  68.505  1.00  0.00    -0.297 C  
ENDBRANCH  26  28
ENDBRANCH  25  26
ENDBRANCH   5  25
BRANCH   5  30
HETATM   30  C   UNL     1     -11.154  14.525  67.127  1.00  0.00    -0.321 C  
HETATM   31  O   UNL     1     -11.255  15.252  66.119  1.00  0.00    -0.318 OA 
BRANCH  30  32
HETATM   32  C   UNL     1     -12.218  14.780  68.213  1.00  0.00    -0.030 C  
BRANCH  32  33
HETATM   33  O   UNL     1     -11.799  14.202  69.480  1.00  0.00    -0.280 OA 
BRANCH  33  34
HETATM   34  C   UNL     1     -12.403  14.720  70.589  1.00  0.00    -0.337 C  
HETATM   35  O   UNL     1     -13.504  14.367  70.987  1.00  0.00    -0.350 OA 
BRANCH  34  36
HETATM   36  C   UNL     1     -11.534  15.769  71.260  1.00  0.00    -0.481 C  
HETATM   37  C   UNL     1     -12.130  16.235  72.584  1.00  0.00    -0.628 C  
ENDBRANCH  34  36
ENDBRANCH  33  34
ENDBRANCH  32  33
ENDBRANCH  30  32
ENDBRANCH   5  30
TORSDOF 8
ENDMDL
MODEL        6
REMARK 921   NORMALIZED FREE ENERGY PREDICTED BY IDOCK:   -5.91 KCAL/MOL
REMARK 922        TOTAL FREE ENERGY PREDICTED BY IDOCK:   -8.40 KCAL/MOL
REMARK 923 INTER-LIGAND FREE ENERGY PREDICTED BY IDOCK:   -8.81 KCAL/MOL
REMARK 924 INTRA-LIGAND FREE ENERGY PREDICTED BY IDOCK:    0.41 KCAL/MOL
REMARK 927      BINDING AFFINITY PREDICTED BY RF-SCORE:    0.00 PKD
ROOT
HETATM    1  C   UNL     1      -8.514   8.595  67.538  1.00  0.00    -0.124 C  
HETATM    2  C   UNL     1      -7.224   9.148  67.731  1.00  0.00    -0.080 C  
HETATM    3  C   UNL     1      -8.268   9.397  68.786  1.00  0.00    -0.108 C  
HETATM    4  C   UNL     1      -7.312  10.173  70.031  1.00  0.00    -0.172 C  
HETATM    5  C   UNL     1      -9.849   8.051  68.797  1.00  0.00    -0.172 C  
HETATM    6  C   UNL     1     -10.208  12.131  65.098  1.00  0.00    -0.308 C  
HETATM    7 CL   UNL     1      -8.192  12.113  67.432  1.00  0.00    -0.166 Cl 
HETATM    8  C   UNL     1      -8.749   8.415  69.499  1.00  0.00    -0.137 C  
HETATM    9  C   UNL     1      -9.938   9.790  70.135  1.00  0.00    -0.315 C  
HETATM   10  C   UNL     1      -7.799   7.375  70.205  1.00  0.00    -0.099 C  
HETATM   11  C   UNL     1     -10.302  10.718  64.538  1.00  0.00    -0.401 C  
HETATM   12  O   UNL     1     -12.304  13.699  62.956  1.00  0.00    -0.672 OA 
HETATM   13  C   UNL     1      -9.339   9.784  65.255  1.00  0.00    -0.315 C  
HETATM   14  C   UNL     1     -12.761  12.919  65.178  1.00  0.00    -0.443 C  
HETATM   15  C   UNL     1      -9.673   9.701  66.746  1.00  0.00    -0.252 C  
HETATM   16  C   UNL     1     -10.573  10.911  68.973  1.00  0.00    -0.216 C  
HETATM   17  C   UNL     1     -11.862  13.285  64.018  1.00  0.00    -0.455 C  
HETATM   18  C   UNL     1      -9.961  11.175  67.420  1.00  0.00    -0.204 C  
HETATM   19  C   UNL     1     -10.473  13.713  67.191  1.00  0.00    -0.264 C  
HETATM   20  C   UNL     1     -10.376  13.161  64.247  1.00  0.00    -0.361 C  
HETATM   21  O   UNL     1     -11.972  10.584  68.855  1.00  0.00    -0.614 OA 
HETATM   22  H   UNL     1     -12.320  11.198  68.218  1.00  0.00     0.000 HD 
HETATM   23  C   UNL     1     -10.755  12.285  66.544  1.00  0.00    -0.279 C  
HETATM   24  C   UNL     1     -12.271  12.390  66.329  1.00  0.00    -0.062 C  
ENDROOT
BRANCH   5  25
HETATM   25  O   UNL     1      -9.565   6.683  68.165  1.00  0.00    -0.123 OA 
BRANCH  25  26
HETATM   26  C   UNL     1     -10.366   6.227  67.149  1.00  0.00    -0.229 C  
HETATM   27  O   UNL     1     -11.455   6.711  66.877  1.00  0.00    -0.209 OA 
BRANCH  26  28
HETATM   28  C   UNL     1      -9.727   5.039  66.459  1.00  0.00    -0.193 C  
HETATM   29  C   UNL     1      -8.682   5.419  65.419  1.00  0.00    -0.154 C  
ENDBRANCH  26  28
ENDBRANCH  25  26
ENDBRANCH   5  25
BRANCH   5  30
HETATM   30  C   UNL     1     -10.545   7.245  70.164  1.00  0.00    -0.232 C  
HETATM   31  O   UNL     1     -10.959   7.797  71.203  1.00  0.00    -0.234 OA 
BRANCH  30  32
HETATM   32  C   UNL     1     -10.760   5.719  70.117  1.00  0.00    -0.320 C  
BRANCH  32  33
HETATM   33  O   UNL     1     -10.044   5.071  71.204  1.00  0.00    -0.204 OA 
BRANCH  33  34
HETATM   34  C   UNL     1      -9.744   3.754  71.005  1.00  0.00    -0.178 C  
HETATM   35  O   UNL     1     -10.120   2.856  71.745  1.00  0.00    -0.151 OA 
BRANCH  34  36
HETATM   36  C   UNL     1      -8.904   3.555  69.756  1.00  0.00    -0.151 C  
HETATM   37  C   UNL     1      -9.404   2.382  68.919  1.00  0.00    -0.217 C  
ENDBRANCH  34  36
ENDBRANCH  33  34
ENDBRANCH  32  33
ENDBRANCH  30  32
ENDBRANCH   5  30
TORSDOF 8
ENDMDL
MODEL        7
REMARK 921   NORMALIZED FREE ENERGY PREDICTED BY IDOCK:   -5.88 KCAL/MOL
REMARK 922        TOTAL FREE ENERGY PREDICTED BY IDOCK:   -8.37 KCAL/MOL
REMARK 923 INTER-LIGAND FREE ENERGY PREDICTED BY IDOCK:   -8.98 KCAL/MOL
REMARK 924 INTRA-LIGAND FREE ENERGY PREDICTED BY IDOCK:    0.62 KCAL/MOL
REMARK 927      BINDING AFFINITY PREDICTED BY RF-SCORE:    0.00 PKD
ROOT
HETATM    1  C   UNL     1     -11.589  12.225  67.362  1.00  0.00    -0.425 C  
HETATM    2  C   UNL     1     -11.800  12.109  65.966  1.00  0.00    -0.328 C  
HETATM    3  C   UNL     1     -10.427  11.808  66.504  1.00  0.00    -0.265 C  
HETATM    4  C   UNL     1      -9.633  11.186  65.073  1.00  0.00    -0.278 C  
HETATM    5  C   UNL     1     -10.355  11.337  68.526  1.00  0.00    -0.203 C  
HETATM    6  C   UNL     1     -10.537  16.722  67.331  1.00  0.00    -0.291 C  
HETATM    7 CL   UNL     1      -9.944  14.528  65.246  1.00  0.00    -0.374 Cl 
HETATM    8  C   UNL     1     -10.224  10.789  67.293  1.00  0.00    -0.245 C  
HETATM    9  C   UNL     1      -8.466  11.562  67.429  1.00  0.00    -0.147 C  
HETATM   10  C   UNL     1     -10.765   9.354  66.931  1.00  0.00    -0.174 C  
HETATM   11  C   UNL     1     -11.628  16.212  68.263  1.00  0.00    -0.181 C  
HETATM   12  O   UNL     1     -10.131  19.822  68.623  1.00  0.00    -0.438 OA 
HETATM   13  C   UNL     1     -12.111  14.836  67.831  1.00  0.00    -0.161 C  
HETATM   14  C   UNL     1      -8.798  17.865  69.009  1.00  0.00    -0.008 C  
HETATM   15  C   UNL     1     -10.968  13.820  67.878  1.00  0.00    -0.270 C  
HETATM   16  C   UNL     1      -8.350  13.287  67.571  1.00  0.00    -0.186 C  
HETATM   17  C   UNL     1      -9.843  18.683  68.283  1.00  0.00    -0.371 C  
HETATM   18  C   UNL     1      -9.577  14.392  67.209  1.00  0.00    -0.227 C  
HETATM   19  C   UNL     1      -8.126  16.359  66.326  1.00  0.00    -0.311 C  
HETATM   20  C   UNL     1     -10.487  18.044  67.078  1.00  0.00    -0.361 C  
HETATM   21  O   UNL     1      -7.913  13.528  68.923  1.00  0.00    -0.317 OA 
HETATM   22  H   UNL     1      -7.850  14.473  69.001  1.00  0.00     0.000 HD 
HETATM   23  C   UNL     1      -9.193  15.951  67.436  1.00  0.00    -0.207 C  
HETATM   24  C   UNL     1      -8.534  16.575  68.674  1.00  0.00    -0.243 C  
ENDROOT
BRANCH   5  25
HETATM   25  O   UNL     1     -11.658  10.807  69.133  1.00  0.00    -0.277 OA 
BRANCH  25  26
HETATM   26  C   UNL     1     -11.930  11.035  70.459  1.00  0.00    -0.379 C  
HETATM   27  O   UNL     1     -11.953  10.154  71.306  1.00  0.00    -0.355 OA 
BRANCH  26  28
HETATM   28  C   UNL     1     -12.229  12.501  70.696  1.00  0.00    -0.365 C  
HETATM   29  C   UNL     1     -13.154  12.759  71.877  1.00  0.00    -0.474 C  
ENDBRANCH  26  28
ENDBRANCH  25  26
ENDBRANCH   5  25
BRANCH   5  30
HETATM   30  C   UNL     1      -9.503  10.029  69.278  1.00  0.00    -0.217 C  
HETATM   31  O   UNL     1      -8.520  10.140  70.037  1.00  0.00    -0.160 OA 
BRANCH  30  32
HETATM   32  C   UNL     1     -10.007   8.585  69.084  1.00  0.00    -0.192 C  
BRANCH  32  33
HETATM   33  O   UNL     1      -8.975   7.633  69.459  1.00  0.00    -0.139 OA 
BRANCH  33  34
HETATM   34  C   UNL     1      -8.478   6.874  68.438  1.00  0.00    -0.123 C  
HETATM   35  O   UNL     1      -9.031   5.872  68.009  1.00  0.00    -0.119 OA 
BRANCH  34  36
HETATM   36  C   UNL     1      -7.172   7.439  67.907  1.00  0.00    -0.091 C  
HETATM   37  C   UNL     1      -7.327   7.984  66.491  1.00  0.00    -0.084 C  
ENDBRANCH  34  36
ENDBRANCH  33  34
ENDBRANCH  32  33
ENDBRANCH  30  32
ENDBRANCH   5  30
TORSDOF 8
ENDMDL
MODEL        8
REMARK 921   NORMALIZED FREE ENERGY PREDICTED BY IDOCK:   -5.86 KCAL/MOL
REMARK 922        TOTAL FREE ENERGY PREDICTED BY IDOCK:   -8.34 KCAL/MOL
REMARK 923 INTER-LIGAND FREE ENERGY PREDICTED BY IDOCK:   -9.05 KCAL/MOL
REMARK 924 INTRA-LIGAND FREE ENERGY PREDICTED BY IDOCK:    0.71 KCAL/MOL
REMARK 927      BINDING AFFINITY PREDICTED BY RF-SCORE:    0.00 PKD
ROOT
HETATM    1  C   UNL     1      -8.824  12.074  66.660  1.00  0.00    -0.191 C  
HETATM    2  C   UNL     1      -9.054  11.309  65.491  1.00  0.00    -0.184 C  
HETATM    3  C   UNL     1     -10.248  11.809  66.257  1.00  0.00    -0.255 C  
HETATM    4  C   UNL     1     -11.553  11.367  65.176  1.00  0.00     0.092 C  
HETATM    5  C   UNL     1      -9.880  13.429  67.504  1.00  0.00    -0.227 C  
HETATM    6  C   UNL     1      -8.535   8.483  69.551  1.00  0.00    -0.127 C  
HETATM    7 CL   UNL     1     -10.279   8.876  67.038  1.00  0.00    -0.325 Cl 
HETATM    8  C   UNL     1     -10.500  13.087  66.349  1.00  0.00    -0.285 C  
HETATM    9  C   UNL     1     -11.858  12.478  67.570  1.00  0.00    -0.389 C  
HETATM   10  C   UNL     1     -10.507  14.011  65.073  1.00  0.00    -0.440 C  
HETATM   11  C   UNL     1      -7.415   9.515  69.520  1.00  0.00    -0.092 C  
HETATM   12  O   UNL     1      -7.674   6.840  72.379  1.00  0.00    -0.093 OA 
HETATM   13  C   UNL     1      -7.480  10.349  68.249  1.00  0.00    -0.090 C  
HETATM   14  C   UNL     1      -9.340   8.543  72.099  1.00  0.00    -0.353 C  
HETATM   15  C   UNL     1      -8.801  11.115  68.169  1.00  0.00    -0.148 C  
HETATM   16  C   UNL     1     -11.440  11.210  68.678  1.00  0.00    -0.298 C  
HETATM   17  C   UNL     1      -8.354   7.505  71.611  1.00  0.00    -0.107 C  
HETATM   18  C   UNL     1     -10.104  10.183  68.544  1.00  0.00    -0.186 C  
HETATM   19  C   UNL     1     -11.131   8.023  69.561  1.00  0.00     0.026 C  
HETATM   20  C   UNL     1      -8.280   7.290  70.120  1.00  0.00    -0.134 C  
HETATM   21  O   UNL     1     -11.394  11.839  69.974  1.00  0.00    -0.477 OA 
HETATM   22  H   UNL     1     -11.165  11.145  70.581  1.00  0.00     0.000 HD 
HETATM   23  C   UNL     1      -9.956   9.085  69.728  1.00  0.00    -0.204 C  
HETATM   24  C   UNL     1     -10.039   9.331  71.241  1.00  0.00    -0.361 C  
ENDROOT
BRANCH   5  25
HETATM   25  O   UNL     1      -8.663  14.286  67.141  1.00  0.00    -0.208 OA 
BRANCH  25  26
HETATM   26  C   UNL     1      -7.759  14.627  68.116  1.00  0.00    -0.125 C  
HETATM   27  O   UNL     1      -7.899  14.342  69.297  1.00  0.00    -0.084 OA 
BRANCH  26  28
HETATM   28  C   UNL     1      -6.612  15.421  67.526  1.00  0.00    -0.191 C  
HETATM   29  C   UNL     1      -7.052  16.648  66.739  1.00  0.00    -0.271 C  
ENDBRANCH  26  28
ENDBRANCH  25  26
ENDBRANCH   5  25
BRANCH   5  30
HETATM   30  C   UNL     1     -10.819  14.876  67.663  1.00  0.00    -0.286 C  
HETATM   31  O   UNL     1     -11.698  15.085  68.522  1.00  0.00    -0.320 OA 
BRANCH  30  32
HETATM   32  C   UNL     1     -10.533  16.072  66.733  1.00  0.00    -0.308 C  
BRANCH  32  33
HETATM   33  O   UNL     1     -10.538  17.315  67.487  1.00  0.00    -0.354 OA 
BRANCH  33  34
HETATM   34  C   UNL     1     -10.511  18.456  66.737  1.00  0.00    -0.385 C  
HETATM   35  O   UNL     1     -10.658  18.471  65.523  1.00  0.00    -0.621 OA 
BRANCH  34  36
HETATM   36  C   UNL     1     -10.290  19.686  67.599  1.00  0.00    -0.583 C  
HETATM   37  C   UNL     1      -8.956  20.359  67.294  1.00  0.00    -0.460 C  
ENDBRANCH  34  36
ENDBRANCH  33  34
ENDBRANCH  32  33
ENDBRANCH  30  32
ENDBRANCH   5  30
TORSDOF 8
ENDMDL
MODEL        9
REMARK 921   NORMALIZED FREE ENERGY PREDICTED BY IDOCK:   -5.80 KCAL/MOL
REMARK 922        TOTAL FREE ENERGY PREDICTED BY IDOCK:   -8.25 KCAL/MOL
REMARK 923 INTER-LIGAND FREE ENERGY PREDICTED BY IDOCK:   -8.73 KCAL/MOL
REMARK 924 INTRA-LIGAND FREE ENERGY PREDICTED BY IDOCK:    0.48 KCAL/MOL
REMARK 927      BINDING AFFINITY PREDICTED BY RF-SCORE:    0.00 PKD
ROOT
HETATM    1  C   UNL     1      -8.786  11.417  68.829  1.00  0.00    -0.080 C  
HETATM    2  C   UNL     1      -7.400  11.651  69.004  1.00  0.00    -0.074 C  
HETATM    3  C   UNL     1      -7.893  11.310  67.624  1.00  0.00    -0.116 C  
HETATM    4  C   UNL     1      -6.444  11.564  66.674  1.00  0.00    -0.090 C  
HETATM    5  C   UNL     1      -9.917  11.648  67.302  1.00  0.00    -0.191 C  
HETATM    6  C   UNL     1      -8.656   6.913  69.841  1.00  0.00    -0.141 C  
HETATM    7 CL   UNL     1      -6.582   8.687  68.405  1.00  0.00    -0.059 Cl 
HETATM    8  C   UNL     1      -8.689  12.118  66.976  1.00  0.00    -0.190 C  
HETATM    9  C   UNL     1      -8.753  10.654  65.728  1.00  0.00    -0.192 C  
HETATM   10  C   UNL     1      -8.365  13.655  66.848  1.00  0.00    -0.017 C  
HETATM   11  C   UNL     1      -9.632   7.820  70.577  1.00  0.00    -0.167 C  
HETATM   12  O   UNL     1      -9.891   3.911  70.793  1.00  0.00    -0.194 OA 
HETATM   13  C   UNL     1      -9.237   9.281  70.423  1.00  0.00    -0.291 C  
HETATM   14  C   UNL     1     -10.257   5.082  68.731  1.00  0.00    -0.164 C  
HETATM   15  C   UNL     1      -9.258   9.697  68.951  1.00  0.00    -0.147 C  
HETATM   16  C   UNL     1      -8.867   9.047  66.371  1.00  0.00    -0.146 C  
HETATM   17  C   UNL     1      -9.557   4.820  70.046  1.00  0.00    -0.190 C  
HETATM   18  C   UNL     1      -8.533   8.596  67.966  1.00  0.00    -0.127 C  
HETATM   19  C   UNL     1      -7.573   6.219  67.539  1.00  0.00    -0.097 C  
HETATM   20  C   UNL     1      -8.384   5.708  70.378  1.00  0.00    -0.119 C  
HETATM   21  O   UNL     1     -10.200   8.603  66.049  1.00  0.00    -0.422 OA 
HETATM   22  H   UNL     1     -10.263   7.723  66.401  1.00  0.00     0.000 HD 
HETATM   23  C   UNL     1      -8.725   7.020  68.293  1.00  0.00    -0.127 C  
HETATM   24  C   UNL     1      -9.930   6.137  67.940  1.00  0.00    -0.149 C  
ENDROOT
BRANCH   5  25
HETATM   25  O   UNL     1     -10.577  12.675  68.229  1.00  0.00    -0.222 OA 
BRANCH  25  26
HETATM   26  C   UNL     1     -11.737  12.349  68.885  1.00  0.00    -0.324 C  
HETATM   27  O   UNL     1     -12.376  11.331  68.663  1.00  0.00    -0.534 OA 
BRANCH  26  28
HETATM   28  C   UNL     1     -12.114  13.435  69.872  1.00  0.00    -0.389 C  
HETATM   29  C   UNL     1     -11.289  14.707  69.734  1.00  0.00    -0.315 C  
ENDBRANCH  26  28
ENDBRANCH  25  26
ENDBRANCH   5  25
BRANCH   5  30
HETATM   30  C   UNL     1     -10.657  12.434  65.947  1.00  0.00    -0.258 C  
HETATM   31  O   UNL     1     -10.915  11.905  64.848  1.00  0.00    -0.298 OA 
BRANCH  30  32
HETATM   32  C   UNL     1     -11.125  13.897  66.082  1.00  0.00    -0.299 C  
BRANCH  32  33
HETATM   33  O   UNL     1     -11.235  14.517  64.772  1.00  0.00    -0.374 OA 
BRANCH  33  34
HETATM   34  C   UNL     1     -11.152  15.880  64.759  1.00  0.00    -0.384 C  
HETATM   35  O   UNL     1     -11.668  16.582  63.901  1.00  0.00    -1.148 OA 
BRANCH  34  36
HETATM   36  C   UNL     1     -10.355  16.402  65.942  1.00  0.00    -0.378 C  
HETATM   37  C   UNL     1     -10.368  17.926  66.004  1.00  0.00    -0.318 C  
ENDBRANCH  34  36
ENDBRANCH  33  34
ENDBRANCH  32  33
ENDBRANCH  30  32
ENDBRANCH   5  30
TORSDOF 8
ENDMDL
MODEL       10
REMARK 921   NORMALIZED FREE ENERGY PREDICTED BY IDOCK:   -5.74 KCAL/MOL
REMARK 922        TOTAL FREE ENERGY PREDICTED BY IDOCK:   -8.16 KCAL/MOL
REMARK 923 INTER-LIGAND FREE ENERGY PREDICTED BY IDOCK:   -8.61 KCAL/MOL
REMARK 924 INTRA-LIGAND FREE ENERGY PREDICTED BY IDOCK:    0.45 KCAL/MOL
REMARK 927      BINDING AFFINITY PREDICTED BY RF-SCORE:    0.00 PKD
ROOT
HETATM    1  C   UNL     1     -11.488  12.069  67.343  1.00  0.00    -0.406 C  
HETATM    2  C   UNL     1     -11.775  12.001  65.957  1.00  0.00    -0.311 C  
HETATM    3  C   UNL     1     -10.367  11.717  66.405  1.00  0.00    -0.257 C  
HETATM    4  C   UNL     1      -9.639  11.172  64.909  1.00  0.00    -0.279 C  
HETATM    5  C   UNL     1     -10.169  11.171  68.400  1.00  0.00    -0.188 C  
HETATM    6  C   UNL     1     -10.551  16.591  67.431  1.00  0.00    -0.300 C  
HETATM    7 CL   UNL     1     -10.023  14.495  65.231  1.00  0.00    -0.374 Cl 
HETATM    8  C   UNL     1     -10.094  10.674  67.141  1.00  0.00    -0.248 C  
HETATM    9  C   UNL     1      -8.350  11.489  67.209  1.00  0.00    -0.154 C  
HETATM   10  C   UNL     1     -10.619   9.240  66.753  1.00  0.00    -0.207 C  
HETATM   11  C   UNL     1     -11.575  16.017  68.401  1.00  0.00    -0.279 C  
HETATM   12  O   UNL     1     -10.151  19.649  68.820  1.00  0.00    -0.445 OA 
HETATM   13  C   UNL     1     -12.047  14.645  67.943  1.00  0.00    -0.214 C  
HETATM   14  C   UNL     1      -8.749  17.716  69.053  1.00  0.00    -0.008 C  
HETATM   15  C   UNL     1     -10.878  13.660  67.886  1.00  0.00    -0.264 C  
HETATM   16  C   UNL     1      -8.270  13.210  67.413  1.00  0.00    -0.187 C  
HETATM   17  C   UNL     1      -9.854  18.532  68.420  1.00  0.00    -0.372 C  
HETATM   18  C   UNL     1      -9.543  14.294  67.164  1.00  0.00    -0.245 C  
HETATM   19  C   UNL     1      -8.193  16.331  66.280  1.00  0.00    -0.312 C  
HETATM   20  C   UNL     1     -10.549  17.922  67.228  1.00  0.00    -0.341 C  
HETATM   21  O   UNL     1      -7.764  13.411  68.748  1.00  0.00    -0.234 OA 
HETATM   22  H   UNL     1      -7.719  14.354  68.859  1.00  0.00     0.000 HD 
HETATM   23  C   UNL     1      -9.185  15.853  67.431  1.00  0.00    -0.207 C  
HETATM   24  C   UNL     1      -8.472  16.447  68.653  1.00  0.00    -0.229 C  
ENDROOT
BRANCH   5  25
HETATM   25  O   UNL     1     -11.422  10.583  69.057  1.00  0.00    -0.257 OA 
BRANCH  25  26
HETATM   26  C   UNL     1     -11.739  10.934  70.345  1.00  0.00    -0.350 C  
HETATM   27  O   UNL     1     -11.970  12.082  70.695  1.00  0.00    -0.331 OA 
BRANCH  26  28
HETATM   28  C   UNL     1     -11.722   9.718  71.248  1.00  0.00    -0.472 C  
HETATM   29  C   UNL     1     -13.105   9.161  71.559  1.00  0.00    -0.409 C  
ENDBRANCH  26  28
ENDBRANCH  25  26
ENDBRANCH   5  25
BRANCH   5  30
HETATM   30  C   UNL     1      -9.243   9.859  69.051  1.00  0.00    -0.168 C  
HETATM   31  O   UNL     1      -9.365   8.657  68.743  1.00  0.00    -0.142 OA 
BRANCH  30  32
HETATM   32  C   UNL     1      -8.106  10.156  70.049  1.00  0.00    -0.061 C  
BRANCH  32  33
HETATM   33  O   UNL     1      -6.866   9.543  69.603  1.00  0.00    -0.055 OA 
BRANCH  33  34
HETATM   34  C   UNL     1      -5.775  10.364  69.594  1.00  0.00    -0.040 C  
HETATM   35  O   UNL     1      -5.143  10.638  68.584  1.00  0.00    -0.042 OA 
BRANCH  34  36
HETATM   36  C   UNL     1      -5.464  10.894  70.982  1.00  0.00    -0.081 C  
HETATM   37  C   UNL     1      -5.383  12.417  71.001  1.00  0.00    -0.143 C  
ENDBRANCH  34  36
ENDBRANCH  33  34
ENDBRANCH  32  33
ENDBRANCH  30  32
ENDBRANCH   5  30
TORSDOF 8
ENDMDL
MODEL       11
REMARK 921   NORMALIZED FREE ENERGY PREDICTED BY IDOCK:   -5.71 KCAL/MOL
REMARK 922        TOTAL FREE ENERGY PREDICTED BY IDOCK:   -8.12 KCAL/MOL
REMARK 923 INTER-LIGAND FREE ENERGY PREDICTED BY IDOCK:   -9.14 KCAL/MOL
REMARK 924 INTRA-LIGAND FREE ENERGY PREDICTED BY IDOCK:    1.02 KCAL/MOL
REMARK 927      BINDING AFFINITY PREDICTED BY RF-SCORE:    0.00 PKD
ROOT
HETATM    1  C   UNL     1     -11.478  11.503  67.107  1.00  0.00    -0.313 C  
HETATM    2  C   UNL     1     -12.035  11.421  68.406  1.00  0.00    -0.270 C  
HETATM    3  C   UNL     1     -10.939  12.423  68.166  1.00  0.00    -0.263 C  
HETATM    4  C   UNL     1     -10.942  13.296  69.684  1.00  0.00     0.103 C  
HETATM    5  C   UNL     1     -10.657  12.963  66.181  1.00  0.00    -0.271 C  
HETATM    6  C   UNL     1      -8.280   8.230  67.732  1.00  0.00    -0.127 C  
HETATM    7 CL   UNL     1      -9.418  10.301  69.714  1.00  0.00    -0.186 Cl 
HETATM    8  C   UNL     1     -11.120  13.436  67.363  1.00  0.00    -0.297 C  
HETATM    9  C   UNL     1      -9.241  13.708  67.686  1.00  0.00    -0.213 C  
HETATM   10  C   UNL     1     -12.395  14.354  67.479  1.00  0.00    -0.044 C  
HETATM   11  C   UNL     1      -9.226   8.138  66.543  1.00  0.00    -0.237 C  
HETATM   12  O   UNL     1      -6.034   5.873  66.816  1.00  0.00    -0.017 OA 
HETATM   13  C   UNL     1     -10.439   9.034  66.743  1.00  0.00    -0.270 C  
HETATM   14  C   UNL     1      -5.867   8.255  66.582  1.00  0.00    -0.044 C  
HETATM   15  C   UNL     1     -10.018  10.499  66.872  1.00  0.00    -0.246 C  
HETATM   16  C   UNL     1      -8.215  12.308  67.712  1.00  0.00    -0.161 C  
HETATM   17  C   UNL     1      -6.468   6.975  67.119  1.00  0.00    -0.053 C  
HETATM   18  C   UNL     1      -8.733  10.708  67.878  1.00  0.00    -0.127 C  
HETATM   19  C   UNL     1      -6.721   9.752  69.218  1.00  0.00    -0.053 C  
HETATM   20  C   UNL     1      -7.610   7.120  68.095  1.00  0.00    -0.115 C  
HETATM   21  O   UNL     1      -7.417  12.401  66.515  1.00  0.00    -0.353 OA 
HETATM   22  H   UNL     1      -6.855  11.635  66.529  1.00  0.00     0.000 HD 
HETATM   23  C   UNL     1      -7.552   9.596  67.868  1.00  0.00    -0.083 C  
HETATM   24  C   UNL     1      -6.399   9.473  66.863  1.00  0.00    -0.066 C  
ENDROOT
BRANCH   5  25
HETATM   25  O   UNL     1     -11.863  12.762  65.257  1.00  0.00    -0.356 OA 
BRANCH  25  26
HETATM   26  C   UNL     1     -11.671  12.275  63.988  1.00  0.00    -0.425 C  
HETATM   27  O   UNL     1     -12.582  12.061  63.201  1.00  0.00    -0.538 OA 
BRANCH  26  28
HETATM   28  C   UNL     1     -10.200  12.014  63.735  1.00  0.00    -0.447 C  
HETATM   29  C   UNL     1      -9.904  10.620  63.199  1.00  0.00    -0.351 C  
ENDBRANCH  26  28
ENDBRANCH  25  26
ENDBRANCH   5  25
BRANCH   5  30
HETATM   30  C   UNL     1     -10.463  14.560  65.535  1.00  0.00    -0.356 C  
HETATM   31  O   UNL     1     -11.243  15.127  64.746  1.00  0.00    -0.394 OA 
BRANCH  30  32
HETATM   32  C   UNL     1      -9.276  15.426  66.001  1.00  0.00    -0.298 C  
BRANCH  32  33
HETATM   33  O   UNL     1      -9.492  16.819  65.642  1.00  0.00    -0.523 OA 
BRANCH  33  34
HETATM   34  C   UNL     1     -10.041  17.598  66.620  1.00  0.00    -0.335 C  
HETATM   35  O   UNL     1     -10.189  17.229  67.776  1.00  0.00    -0.303 OA 
BRANCH  34  36
HETATM   36  C   UNL     1     -10.424  18.969  66.092  1.00  0.00    -0.541 C  
HETATM   37  C   UNL     1      -9.683  20.084  66.821  1.00  0.00    -0.563 C  
ENDBRANCH  34  36
ENDBRANCH  33  34
ENDBRANCH  32  33
ENDBRANCH  30  32
ENDBRANCH   5  30
TORSDOF 8
ENDMDL
MODEL       12
REMARK 921   NORMALIZED FREE ENERGY PREDICTED BY IDOCK:   -5.69 KCAL/MOL
REMARK 922        TOTAL FREE ENERGY PREDICTED BY IDOCK:   -8.09 KCAL/MOL
REMARK 923 INTER-LIGAND FREE ENERGY PREDICTED BY IDOCK:   -8.81 KCAL/MOL
REMARK 924 INTRA-LIGAND FREE ENERGY PREDICTED BY IDOCK:    0.73 KCAL/MOL
REMARK 927      BINDING AFFINITY PREDICTED BY RF-SCORE:    0.00 PKD
ROOT
HETATM    1  C   UNL     1      -8.690  11.451  68.983  1.00  0.00     0.079 C  
HETATM    2  C   UNL     1      -7.294  11.515  68.753  1.00  0.00    -0.115 C  
HETATM    3  C   UNL     1      -8.194  11.220  67.583  1.00  0.00    -0.120 C  
HETATM    4  C   UNL     1      -7.053  11.282  66.256  1.00  0.00     0.007 C  
HETATM    5  C   UNL     1     -10.173  11.801  67.824  1.00  0.00    -0.191 C  
HETATM    6  C   UNL     1      -8.798   6.978  70.127  1.00  0.00    -0.145 C  
HETATM    7 CL   UNL     1      -7.025   8.465  68.089  1.00  0.00    -0.079 Cl 
HETATM    8  C   UNL     1      -9.042  12.112  67.147  1.00  0.00    -0.189 C  
HETATM    9  C   UNL     1      -9.624  10.652  66.035  1.00  0.00    -0.244 C  
HETATM   10  C   UNL     1      -8.593  13.595  66.862  1.00  0.00    -0.121 C  
HETATM   11  C   UNL     1      -9.415   8.008  71.064  1.00  0.00    -0.179 C  
HETATM   12  O   UNL     1     -10.050   4.163  71.525  1.00  0.00    -0.179 OA 
HETATM   13  C   UNL     1      -8.914   9.407  70.738  1.00  0.00    -0.254 C  
HETATM   14  C   UNL     1     -10.846   5.345  69.595  1.00  0.00    -0.158 C  
HETATM   15  C   UNL     1      -9.303   9.804  69.312  1.00  0.00    -0.198 C  
HETATM   16  C   UNL     1      -9.735   9.079  66.759  1.00  0.00    -0.216 C  
HETATM   17  C   UNL     1      -9.838   5.015  70.673  1.00  0.00    -0.212 C  
HETATM   18  C   UNL     1      -9.017   8.610  68.216  1.00  0.00    -0.142 C  
HETATM   19  C   UNL     1      -8.497   6.128  67.650  1.00  0.00    -0.108 C  
HETATM   20  C   UNL     1      -8.525   5.756  70.623  1.00  0.00    -0.128 C  
HETATM   21  O   UNL     1     -11.146   8.799  66.843  1.00  0.00    -0.169 OA 
HETATM   22  H   UNL     1     -11.208   7.937  67.239  1.00  0.00     0.000 HD 
HETATM   23  C   UNL     1      -9.289   7.073  68.657  1.00  0.00    -0.136 C  
HETATM   24  C   UNL     1     -10.638   6.342  68.696  1.00  0.00    -0.314 C  
ENDROOT
BRANCH   5  25
HETATM   25  O   UNL     1     -10.421  12.913  68.849  1.00  0.00    -0.191 OA 
BRANCH  25  26
HETATM   26  C   UNL     1     -11.559  12.887  69.615  1.00  0.00    -0.248 C  
HETATM   27  O   UNL     1     -12.006  13.865  70.196  1.00  0.00    -0.298 OA 
BRANCH  26  28
HETATM   28  C   UNL     1     -12.138  11.488  69.661  1.00  0.00    -0.363 C  
HETATM   29  C   UNL     1     -12.355  10.955  71.071  1.00  0.00    -0.498 C  
ENDBRANCH  26  28
ENDBRANCH  25  26
ENDBRANCH   5  25
BRANCH   5  30
HETATM   30  C   UNL     1     -11.171  12.656  66.694  1.00  0.00    -0.300 C  
HETATM   31  O   UNL     1     -12.058  12.152  65.978  1.00  0.00    -0.612 OA 
BRANCH  30  32
HETATM   32  C   UNL     1     -11.042  14.187  66.576  1.00  0.00    -0.318 C  
BRANCH  32  33
HETATM   33  O   UNL     1     -11.596  14.648  65.314  1.00  0.00    -0.345 OA 
BRANCH  33  34
HETATM   34  C   UNL     1     -11.200  15.893  64.918  1.00  0.00    -0.337 C  
HETATM   35  O   UNL     1     -11.649  16.465  63.935  1.00  0.00    -1.100 OA 
BRANCH  34  36
HETATM   36  C   UNL     1     -10.154  16.470  65.855  1.00  0.00    -0.359 C  
HETATM   37  C   UNL     1     -10.287  17.983  65.989  1.00  0.00    -0.333 C  
ENDBRANCH  34  36
ENDBRANCH  33  34
ENDBRANCH  32  33
ENDBRANCH  30  32
ENDBRANCH   5  30
TORSDOF 8
ENDMDL
MODEL       13
REMARK 921   NORMALIZED FREE ENERGY PREDICTED BY IDOCK:   -5.52 KCAL/MOL
REMARK 922        TOTAL FREE ENERGY PREDICTED BY IDOCK:   -7.84 KCAL/MOL
REMARK 923 INTER-LIGAND FREE ENERGY PREDICTED BY IDOCK:   -8.12 KCAL/MOL
REMARK 924 INTRA-LIGAND FREE ENERGY PREDICTED BY IDOCK:    0.29 KCAL/MOL
REMARK 927      BINDING AFFINITY PREDICTED BY RF-SCORE:    0.00 PKD
ROOT
HETATM    1  C   UNL     1      -7.226   9.866  67.583  1.00  0.00    -0.089 C  
HETATM    2  C   UNL     1      -5.953   9.247  67.626  1.00  0.00    -0.053 C  
HETATM    3  C   UNL     1      -6.936   8.776  66.589  1.00  0.00    -0.080 C  
HETATM    4  C   UNL     1      -5.936   7.693  65.644  1.00  0.00    -0.038 C  
HETATM    5  C   UNL     1      -8.451  10.121  66.134  1.00  0.00    -0.130 C  
HETATM    6  C   UNL     1      -9.232   7.084  70.676  1.00  0.00    -0.158 C  
HETATM    7 CL   UNL     1      -7.070   6.474  68.564  1.00  0.00    -0.080 Cl 
HETATM    8  C   UNL     1      -7.325   9.566  65.625  1.00  0.00    -0.094 C  
HETATM    9  C   UNL     1      -8.530   8.110  65.255  1.00  0.00    -0.157 C  
HETATM   10  C   UNL     1      -6.286  10.374  64.761  1.00  0.00    -0.090 C  
HETATM   11  C   UNL     1      -9.300   8.593  70.868  1.00  0.00    -0.235 C  
HETATM   12  O   UNL     1     -11.531   6.146  72.973  1.00  0.00    -0.178 OA 
HETATM   13  C   UNL     1      -8.252   9.296  70.018  1.00  0.00    -0.160 C  
HETATM   14  C   UNL     1     -11.807   6.370  70.600  1.00  0.00    -0.318 C  
HETATM   15  C   UNL     1      -8.483   9.019  68.531  1.00  0.00    -0.128 C  
HETATM   16  C   UNL     1      -9.289   7.326  66.605  1.00  0.00    -0.171 C  
HETATM   17  C   UNL     1     -11.003   6.275  71.878  1.00  0.00    -0.256 C  
HETATM   18  C   UNL     1      -8.791   7.434  68.216  1.00  0.00    -0.128 C  
HETATM   19  C   UNL     1      -9.430   5.045  69.015  1.00  0.00    -0.194 C  
HETATM   20  C   UNL     1      -9.501   6.299  71.736  1.00  0.00    -0.158 C  
HETATM   21  O   UNL     1     -10.676   7.710  66.536  1.00  0.00    -0.428 OA 
HETATM   22  H   UNL     1     -11.092   7.280  67.274  1.00  0.00     0.000 HD 
HETATM   23  C   UNL     1      -9.689   6.595  69.274  1.00  0.00    -0.151 C  
HETATM   24  C   UNL     1     -11.220   6.587  69.395  1.00  0.00    -0.418 C  
ENDROOT
BRANCH   5  25
HETATM   25  O   UNL     1      -8.148  11.593  66.434  1.00  0.00    -0.130 OA 
BRANCH  25  26
HETATM   26  C   UNL     1      -9.172  12.438  66.782  1.00  0.00    -0.212 C  
HETATM   27  O   UNL     1      -9.230  13.609  66.434  1.00  0.00    -0.222 OA 
BRANCH  26  28
HETATM   28  C   UNL     1     -10.171  11.727  67.671  1.00  0.00    -0.216 C  
HETATM   29  C   UNL     1     -10.907  12.650  68.634  1.00  0.00    -0.281 C  
ENDBRANCH  26  28
ENDBRANCH  25  26
ENDBRANCH   5  25
BRANCH   5  30
HETATM   30  C   UNL     1      -9.019  10.585  64.564  1.00  0.00    -0.209 C  
HETATM   31  O   UNL     1      -8.308  10.771  63.557  1.00  0.00    -0.103 OA 
BRANCH  30  32
HETATM   32  C   UNL     1     -10.534  10.723  64.317  1.00  0.00    -0.259 C  
BRANCH  32  33
HETATM   33  O   UNL     1     -10.802  11.831  63.415  1.00  0.00    -0.391 OA 
BRANCH  33  34
HETATM   34  C   UNL     1     -12.013  12.441  63.578  1.00  0.00    -0.538 C  
HETATM   35  O   UNL     1     -13.079  11.920  63.282  1.00  0.00    -0.674 OA 
BRANCH  34  36
HETATM   36  C   UNL     1     -11.864  13.828  64.179  1.00  0.00    -0.439 C  
HETATM   37  C   UNL     1     -12.639  13.965  65.485  1.00  0.00    -0.560 C  
ENDBRANCH  34  36
ENDBRANCH  33  34
ENDBRANCH  32  33
ENDBRANCH  30  32
ENDBRANCH   5  30
TORSDOF 8
ENDMDL
MODEL       14
REMARK 921   NORMALIZED FREE ENERGY PREDICTED BY IDOCK:   -5.51 KCAL/MOL
REMARK 922        TOTAL FREE ENERGY PREDICTED BY IDOCK:   -7.82 KCAL/MOL
REMARK 923 INTER-LIGAND FREE ENERGY PREDICTED BY IDOCK:   -8.13 KCAL/MOL
REMARK 924 INTRA-LIGAND FREE ENERGY PREDICTED BY IDOCK:    0.31 KCAL/MOL
REMARK 927      BINDING AFFINITY PREDICTED BY RF-SCORE:    0.00 PKD
ROOT
HETATM    1  C   UNL     1      -9.163  14.837  69.292  1.00  0.00    -0.035 C  
HETATM    2  C   UNL     1     -10.088  15.337  70.240  1.00  0.00    -0.020 C  
HETATM    3  C   UNL     1     -10.562  15.131  68.827  1.00  0.00    -0.236 C  
HETATM    4  C   UNL     1     -12.278  15.434  68.998  1.00  0.00    -0.167 C  
HETATM    5  C   UNL     1      -9.426  13.806  67.701  1.00  0.00    -0.217 C  
HETATM    6  C   UNL     1      -7.443  18.943  68.064  1.00  0.00    -0.277 C  
HETATM    7 CL   UNL     1     -10.308  18.155  68.889  1.00  0.00    -0.311 Cl 
HETATM    8  C   UNL     1     -10.630  13.935  68.310  1.00  0.00    -0.263 C  
HETATM    9  C   UNL     1     -11.036  14.921  66.707  1.00  0.00    -0.335 C  
HETATM   10  C   UNL     1     -11.334  12.752  69.076  1.00  0.00    -0.346 C  
HETATM   11  C   UNL     1      -6.497  17.835  68.505  1.00  0.00    -0.209 C  
HETATM   12  O   UNL     1      -5.179  21.095  66.765  1.00  0.00    -0.185 OA 
HETATM   13  C   UNL     1      -7.250  16.746  69.256  1.00  0.00    -0.181 C  
HETATM   14  C   UNL     1      -6.577  19.529  65.604  1.00  0.00    -0.279 C  
HETATM   15  C   UNL     1      -8.311  16.103  68.362  1.00  0.00    -0.179 C  
HETATM   16  C   UNL     1     -10.123  16.362  66.392  1.00  0.00    -0.316 C  
HETATM   17  C   UNL     1      -6.139  20.338  66.804  1.00  0.00    -0.178 C  
HETATM   18  C   UNL     1      -9.194  17.209  67.522  1.00  0.00    -0.233 C  
HETATM   19  C   UNL     1      -9.551  19.626  66.634  1.00  0.00    -0.479 C  
HETATM   20  C   UNL     1      -6.976  20.206  68.052  1.00  0.00    -0.325 C  
HETATM   21  O   UNL     1      -9.279  16.039  65.269  1.00  0.00    -0.179 OA 
HETATM   22  H   UNL     1      -8.779  16.828  65.096  1.00  0.00     0.000 HD 
HETATM   23  C   UNL     1      -8.442  18.527  66.949  1.00  0.00    -0.277 C  
HETATM   24  C   UNL     1      -7.597  18.635  65.672  1.00  0.00     0.058 C  
ENDROOT
BRANCH   5  25
HETATM   25  O   UNL     1      -8.610  12.783  68.498  1.00  0.00    -0.144 OA 
BRANCH  25  26
HETATM   26  C   UNL     1      -7.385  12.380  68.029  1.00  0.00    -0.108 C  
HETATM   27  O   UNL     1      -6.506  13.156  67.682  1.00  0.00    -0.142 OA 
BRANCH  26  28
HETATM   28  C   UNL     1      -7.306  10.869  67.973  1.00  0.00    -0.088 C  
HETATM   29  C   UNL     1      -7.970  10.173  69.154  1.00  0.00    -0.124 C  
ENDBRANCH  26  28
ENDBRANCH  25  26
ENDBRANCH   5  25
BRANCH   5  30
HETATM   30  C   UNL     1      -9.996  12.521  66.687  1.00  0.00    -0.236 C  
HETATM   31  O   UNL     1     -10.986  11.798  66.912  1.00  0.00    -0.256 OA 
BRANCH  30  32
HETATM   32  C   UNL     1      -9.297  12.253  65.339  1.00  0.00     0.127 C  
BRANCH  32  33
HETATM   33  O   UNL     1     -10.097  12.768  64.240  1.00  0.00    -0.335 OA 
BRANCH  33  34
HETATM   34  C   UNL     1     -10.719  11.824  63.475  1.00  0.00    -0.436 C  
HETATM   35  O   UNL     1     -10.141  10.869  62.976  1.00  0.00    -0.310 OA 
BRANCH  34  36
HETATM   36  C   UNL     1     -12.205  12.107  63.338  1.00  0.00    -0.635 C  
HETATM   37  C   UNL     1     -12.529  13.573  63.604  1.00  0.00    -0.278 C  
ENDBRANCH  34  36
ENDBRANCH  33  34
ENDBRANCH  32  33
ENDBRANCH  30  32
ENDBRANCH   5  30
TORSDOF 8
ENDMDL
MODEL       15
REMARK 921   NORMALIZED FREE ENERGY PREDICTED BY IDOCK:   -5.44 KCAL/MOL
REMARK 922        TOTAL FREE ENERGY PREDICTED BY IDOCK:   -7.71 KCAL/MOL
REMARK 923 INTER-LIGAND FREE ENERGY PREDICTED BY IDOCK:   -8.06 KCAL/MOL
REMARK 924 INTRA-LIGAND FREE ENERGY PREDICTED BY IDOCK:    0.34 KCAL/MOL
REMARK 927      BINDING AFFINITY PREDICTED BY RF-SCORE:    0.00 PKD
ROOT
HETATM    1  C   UNL     1      -8.298  10.706  69.135  1.00  0.00    -0.140 C  
HETATM    2  C   UNL     1      -6.893  10.872  69.209  1.00  0.00    -0.105 C  
HETATM    3  C   UNL     1      -7.560  11.056  67.873  1.00  0.00    -0.095 C  
HETATM    4  C   UNL     1      -6.226  11.652  66.908  1.00  0.00    -0.149 C  
HETATM    5  C   UNL     1      -9.594  11.471  67.952  1.00  0.00    -0.177 C  
HETATM    6  C   UNL     1      -8.221   6.146  68.411  1.00  0.00    -0.115 C  
HETATM    7 CL   UNL     1      -6.266   8.339  67.474  1.00  0.00    -0.051 Cl 
HETATM    8  C   UNL     1      -8.396  12.038  67.669  1.00  0.00    -0.160 C  
HETATM    9  C   UNL     1      -8.664  11.133  65.991  1.00  0.00    -0.185 C  
HETATM   10  C   UNL     1      -8.031  13.517  68.071  1.00  0.00    -0.151 C  
HETATM   11  C   UNL     1      -9.067   6.712  69.543  1.00  0.00    -0.144 C  
HETATM   12  O   UNL     1      -9.447   2.993  68.349  1.00  0.00    -0.193 OA 
HETATM   13  C   UNL     1      -8.637   8.131  69.884  1.00  0.00    -0.130 C  
HETATM   14  C   UNL     1     -10.010   4.835  66.919  1.00  0.00    -0.245 C  
HETATM   15  C   UNL     1      -8.817   9.057  68.680  1.00  0.00    -0.137 C  
HETATM   16  C   UNL     1      -8.762   9.401  66.014  1.00  0.00    -0.150 C  
HETATM   17  C   UNL     1      -9.169   4.116  67.950  1.00  0.00    -0.151 C  
HETATM   18  C   UNL     1      -8.257   8.400  67.279  1.00  0.00    -0.112 C  
HETATM   19  C   UNL     1      -7.446   6.353  65.899  1.00  0.00    -0.082 C  
HETATM   20  C   UNL     1      -7.932   4.830  68.433  1.00  0.00    -0.084 C  
HETATM   21  O   UNL     1     -10.139   9.095  65.720  1.00  0.00    -0.416 OA 
HETATM   22  H   UNL     1     -10.193   8.146  65.733  1.00  0.00     0.000 HD 
HETATM   23  C   UNL     1      -8.469   6.812  67.030  1.00  0.00    -0.114 C  
HETATM   24  C   UNL     1      -9.741   6.110  66.533  1.00  0.00    -0.184 C  
ENDROOT
BRANCH   5  25
HETATM   25  O   UNL     1     -10.099  12.082  69.263  1.00  0.00     0.110 OA 
BRANCH  25  26
HETATM   26  C   UNL     1     -11.431  11.995  69.583  1.00  0.00    -0.252 C  
HETATM   27  O   UNL     1     -12.134  12.967  69.820  1.00  0.00    -0.299 OA 
BRANCH  26  28
HETATM   28  C   UNL     1     -11.873  10.547  69.633  1.00  0.00    -0.306 C  
HETATM   29  C   UNL     1     -11.634   9.876  70.979  1.00  0.00    -0.470 C  
ENDBRANCH  26  28
ENDBRANCH  25  26
ENDBRANCH   5  25
BRANCH   5  30
HETATM   30  C   UNL     1     -10.459  12.693  67.080  1.00  0.00    -0.232 C  
HETATM   31  O   UNL     1     -10.136  13.894  66.992  1.00  0.00    -0.249 OA 
BRANCH  30  32
HETATM   32  C   UNL     1     -11.706  12.301  66.263  1.00  0.00    -0.366 C  
BRANCH  32  33
HETATM   33  O   UNL     1     -12.383  13.489  65.768  1.00  0.00    -0.431 OA 
BRANCH  33  34
HETATM   34  C   UNL     1     -12.397  13.634  64.411  1.00  0.00    -0.338 C  
HETATM   35  O   UNL     1     -12.487  14.716  63.847  1.00  0.00    -0.813 OA 
BRANCH  34  36
HETATM   36  C   UNL     1     -12.273  12.296  63.704  1.00  0.00    -0.665 C  
HETATM   37  C   UNL     1     -10.860  12.060  63.182  1.00  0.00    -0.275 C  
ENDBRANCH  34  36
ENDBRANCH  33  34
ENDBRANCH  32  33
ENDBRANCH  30  32
ENDBRANCH   5  30
TORSDOF 8
ENDMDL
MODEL       16
REMARK 921   NORMALIZED FREE ENERGY PREDICTED BY IDOCK:   -5.41 KCAL/MOL
REMARK 922        TOTAL FREE ENERGY PREDICTED BY IDOCK:   -7.67 KCAL/MOL
REMARK 923 INTER-LIGAND FREE ENERGY PREDICTED BY IDOCK:   -8.16 KCAL/MOL
REMARK 924 INTRA-LIGAND FREE ENERGY PREDICTED BY IDOCK:    0.49 KCAL/MOL
REMARK 927      BINDING AFFINITY PREDICTED BY RF-SCORE:    0.00 PKD
ROOT
HETATM    1  C   UNL     1     -10.993  10.914  66.979  1.00  0.00    -0.310 C  
HETATM    2  C   UNL     1     -11.225   9.887  67.926  1.00  0.00    -0.108 C  
HETATM    3  C   UNL     1     -10.334  11.032  68.325  1.00  0.00    -0.197 C  
HETATM    4  C   UNL     1     -10.089  10.693  70.026  1.00  0.00     0.178 C  
HETATM    5  C   UNL     1     -10.576  12.768  67.211  1.00  0.00    -0.233 C  
HETATM    6  C   UNL     1      -7.386   8.886  64.928  1.00  0.00    -0.093 C  
HETATM    7 CL   UNL     1      -8.269   8.852  67.882  1.00  0.00    -0.110 Cl 
HETATM    8  C   UNL     1     -10.807  12.243  68.438  1.00  0.00    -0.257 C  
HETATM    9  C   UNL     1      -8.948  12.680  68.682  1.00  0.00     0.047 C  
HETATM   10  C   UNL     1     -12.118  12.534  69.262  1.00  0.00    -0.214 C  
HETATM   11  C   UNL     1      -8.561   9.358  64.084  1.00  0.00    -0.216 C  
HETATM   12  O   UNL     1      -5.155   8.289  62.456  1.00  0.00    -0.061 OA 
HETATM   13  C   UNL     1      -9.791   9.594  64.949  1.00  0.00    -0.067 C  
HETATM   14  C   UNL     1      -5.318  10.215  63.877  1.00  0.00    -0.119 C  
HETATM   15  C   UNL     1      -9.520  10.679  65.993  1.00  0.00    -0.233 C  
HETATM   16  C   UNL     1      -7.791  11.887  67.660  1.00  0.00    -0.142 C  
HETATM   17  C   UNL     1      -5.631   8.795  63.463  1.00  0.00    -0.068 C  
HETATM   18  C   UNL     1      -8.072  10.490  66.750  1.00  0.00    -0.123 C  
HETATM   19  C   UNL     1      -5.712   9.411  66.897  1.00  0.00    -0.051 C  
HETATM   20  C   UNL     1      -6.529   8.003  64.381  1.00  0.00    -0.061 C  
HETATM   21  O   UNL     1      -7.303  12.912  66.772  1.00  0.00    -0.336 OA 
HETATM   22  H   UNL     1      -6.670  12.478  66.213  1.00  0.00     0.000 HD 
HETATM   23  C   UNL     1      -6.806   9.966  65.882  1.00  0.00    -0.101 C  
HETATM   24  C   UNL     1      -5.906  10.796  64.955  1.00  0.00    -0.002 C  
ENDROOT
BRANCH   5  25
HETATM   25  O   UNL     1     -11.930  12.928  66.511  1.00  0.00    -0.396 OA 
BRANCH  25  26
HETATM   26  C   UNL     1     -12.009  13.641  65.341  1.00  0.00    -0.378 C  
HETATM   27  O   UNL     1     -12.971  14.329  65.033  1.00  0.00    -0.693 OA 
BRANCH  26  28
HETATM   28  C   UNL     1     -10.771  13.418  64.498  1.00  0.00    -0.434 C  
HETATM   29  C   UNL     1     -10.983  12.462  63.331  1.00  0.00    -0.442 C  
ENDBRANCH  26  28
ENDBRANCH  25  26
ENDBRANCH   5  25
BRANCH   5  30
HETATM   30  C   UNL     1     -10.717  14.392  67.798  1.00  0.00    -0.248 C  
HETATM   31  O   UNL     1     -11.469  14.772  68.717  1.00  0.00    -0.272 OA 
BRANCH  30  32
HETATM   32  C   UNL     1      -9.804  15.490  67.218  1.00  0.00    -0.224 C  
BRANCH  32  33
HETATM   33  O   UNL     1     -10.551  16.722  67.025  1.00  0.00    -0.305 OA 
BRANCH  33  34
HETATM   34  C   UNL     1      -9.816  17.794  66.605  1.00  0.00    -0.322 C  
HETATM   35  O   UNL     1      -8.722  17.695  66.068  1.00  0.00    -0.499 OA 
BRANCH  34  36
HETATM   36  C   UNL     1     -10.532  19.104  66.879  1.00  0.00    -0.527 C  
HETATM   37  C   UNL     1      -9.619  20.117  67.561  1.00  0.00    -0.547 C  
ENDBRANCH  34  36
ENDBRANCH  33  34
ENDBRANCH  32  33
ENDBRANCH  30  32
ENDBRANCH   5  30
TORSDOF 8
ENDMDL
MODEL       17
REMARK 921   NORMALIZED FREE ENERGY PREDICTED BY IDOCK:   -5.32 KCAL/MOL
REMARK 922        TOTAL FREE ENERGY PREDICTED BY IDOCK:   -7.55 KCAL/MOL
REMARK 923 INTER-LIGAND FREE ENERGY PREDICTED BY IDOCK:   -8.32 KCAL/MOL
REMARK 924 INTRA-LIGAND FREE ENERGY PREDICTED BY IDOCK:    0.77 KCAL/MOL
REMARK 927      BINDING AFFINITY PREDICTED BY RF-SCORE:    0.00 PKD
ROOT
HETATM    1  C   UNL     1      -8.435  10.719  68.592  1.00  0.00    -0.143 C  
HETATM    2  C   UNL     1      -7.065  10.897  68.905  1.00  0.00    -0.090 C  
HETATM    3  C   UNL     1      -7.474  10.939  67.457  1.00  0.00    -0.097 C  
HETATM    4  C   UNL     1      -5.976  11.436  66.698  1.00  0.00    -0.147 C  
HETATM    5  C   UNL     1      -9.481  11.353  67.119  1.00  0.00    -0.175 C  
HETATM    6  C   UNL     1      -8.297   6.108  68.367  1.00  0.00    -0.114 C  
HETATM    7 CL   UNL     1      -6.171   8.200  67.584  1.00  0.00    -0.051 Cl 
HETATM    8  C   UNL     1      -8.243  11.892  67.005  1.00  0.00    -0.170 C  
HETATM    9  C   UNL     1      -8.214  10.816  65.408  1.00  0.00    -0.077 C  
HETATM   10  C   UNL     1      -7.935  13.406  67.312  1.00  0.00    -0.130 C  
HETATM   11  C   UNL     1      -9.327   6.786  69.260  1.00  0.00    -0.144 C  
HETATM   12  O   UNL     1      -9.540   2.962  68.405  1.00  0.00    -0.179 OA 
HETATM   13  C   UNL     1      -8.945   8.235  69.527  1.00  0.00    -0.150 C  
HETATM   14  C   UNL     1      -9.804   4.644  66.715  1.00  0.00    -0.237 C  
HETATM   15  C   UNL     1      -8.888   9.030  68.221  1.00  0.00    -0.134 C  
HETATM   16  C   UNL     1      -8.341   9.095  65.590  1.00  0.00    -0.125 C  
HETATM   17  C   UNL     1      -9.177   4.038  67.950  1.00  0.00    -0.158 C  
HETATM   18  C   UNL     1      -8.092   8.233  67.022  1.00  0.00    -0.104 C  
HETATM   19  C   UNL     1      -7.074   6.057  66.031  1.00  0.00    -0.074 C  
HETATM   20  C   UNL     1      -8.038   4.804  68.577  1.00  0.00    -0.084 C  
HETATM   21  O   UNL     1      -9.646   8.755  65.082  1.00  0.00    -0.405 OA 
HETATM   22  H   UNL     1      -9.716   7.813  65.181  1.00  0.00     0.000 HD 
HETATM   23  C   UNL     1      -8.279   6.627  66.902  1.00  0.00    -0.113 C  
HETATM   24  C   UNL     1      -9.449   5.872  66.256  1.00  0.00    -0.161 C  
ENDROOT
BRANCH   5  25
HETATM   25  O   UNL     1     -10.208  12.094  68.246  1.00  0.00    -0.198 OA 
BRANCH  25  26
HETATM   26  C   UNL     1     -11.444  11.662  68.655  1.00  0.00    -0.290 C  
HETATM   27  O   UNL     1     -12.045  10.736  68.128  1.00  0.00    -0.493 OA 
BRANCH  26  28
HETATM   28  C   UNL     1     -11.952  12.509  69.803  1.00  0.00    -0.359 C  
HETATM   29  C   UNL     1     -12.436  11.701  71.000  1.00  0.00    -0.436 C  
ENDBRANCH  26  28
ENDBRANCH  25  26
ENDBRANCH   5  25
BRANCH   5  30
HETATM   30  C   UNL     1     -10.154  12.474  65.983  1.00  0.00    -0.253 C  
HETATM   31  O   UNL     1     -10.765  12.176  64.938  1.00  0.00    -0.274 OA 
BRANCH  30  32
HETATM   32  C   UNL     1     -10.081  13.986  66.276  1.00  0.00    -0.300 C  
BRANCH  32  33
HETATM   33  O   UNL     1     -10.378  14.751  65.076  1.00  0.00    -0.400 OA 
BRANCH  33  34
HETATM   34  C   UNL     1     -10.612  16.082  65.272  1.00  0.00    -0.402 C  
HETATM   35  O   UNL     1     -11.098  16.815  64.422  1.00  0.00    -1.072 OA 
BRANCH  34  36
HETATM   36  C   UNL     1     -10.208  16.521  66.667  1.00  0.00    -0.302 C  
HETATM   37  C   UNL     1      -9.155  17.624  66.631  1.00  0.00    -0.280 C  
ENDBRANCH  34  36
ENDBRANCH  33  34
ENDBRANCH  32  33
ENDBRANCH  30  32
ENDBRANCH   5  30
TORSDOF 8
ENDMDL
MODEL       18
REMARK 921   NORMALIZED FREE ENERGY PREDICTED BY IDOCK:   -5.29 KCAL/MOL
REMARK 922        TOTAL FREE ENERGY PREDICTED BY IDOCK:   -7.49 KCAL/MOL
REMARK 923 INTER-LIGAND FREE ENERGY PREDICTED BY IDOCK:   -7.71 KCAL/MOL
REMARK 924 INTRA-LIGAND FREE ENERGY PREDICTED BY IDOCK:    0.22 KCAL/MOL
REMARK 927      BINDING AFFINITY PREDICTED BY RF-SCORE:    0.00 PKD
ROOT
HETATM    1  C   UNL     1     -10.674  10.897  67.879  1.00  0.00    -0.274 C  
HETATM    2  C   UNL     1     -11.504  11.011  66.737  1.00  0.00     0.097 C  
HETATM    3  C   UNL     1     -10.223  11.800  66.765  1.00  0.00    -0.240 C  
HETATM    4  C   UNL     1     -10.185  12.440  65.135  1.00  0.00    -0.305 C  
HETATM    5  C   UNL     1      -8.780  11.095  68.083  1.00  0.00    -0.144 C  
HETATM    6  C   UNL     1     -12.728  14.238  70.318  1.00  0.00    -0.305 C  
HETATM    7 CL   UNL     1     -12.243  14.006  67.281  1.00  0.00    -0.400 Cl 
HETATM    8  C   UNL     1      -9.064  11.200  66.762  1.00  0.00    -0.174 C  
HETATM    9  C   UNL     1      -8.414  12.992  67.037  1.00  0.00    -0.142 C  
HETATM   10  C   UNL     1      -8.736  10.063  65.722  1.00  0.00    -0.160 C  
HETATM   11  C   UNL     1     -12.549  12.859  70.936  1.00  0.00    -0.355 C  
HETATM   12  O   UNL     1     -13.602  15.963  73.094  1.00  0.00    -0.580 OA 
HETATM   13  C   UNL     1     -12.259  11.817  69.866  1.00  0.00    -0.293 C  
HETATM   14  C   UNL     1     -11.452  15.839  72.037  1.00  0.00    -0.459 C  
HETATM   15  C   UNL     1     -10.964  12.149  69.122  1.00  0.00    -0.215 C  
HETATM   16  C   UNL     1      -9.286  14.007  68.142  1.00  0.00    -0.196 C  
HETATM   17  C   UNL     1     -12.950  15.643  72.110  1.00  0.00    -0.449 C  
HETATM   18  C   UNL     1     -10.858  13.736  68.700  1.00  0.00    -0.280 C  
HETATM   19  C   UNL     1     -11.659  16.199  68.915  1.00  0.00    -0.298 C  
HETATM   20  C   UNL     1     -13.619  15.075  70.883  1.00  0.00    -0.363 C  
HETATM   21  O   UNL     1      -8.421  14.153  69.286  1.00  0.00    -0.352 OA 
HETATM   22  H   UNL     1      -8.899  14.709  69.891  1.00  0.00     0.000 HD 
HETATM   23  C   UNL     1     -11.426  14.851  69.731  1.00  0.00    -0.328 C  
HETATM   24  C   UNL     1     -10.722  15.415  70.973  1.00  0.00    -0.081 C  
ENDROOT
BRANCH   5  25
HETATM   25  O   UNL     1      -8.894   9.616  68.466  1.00  0.00    -0.122 OA 
BRANCH  25  26
HETATM   26  C   UNL     1      -9.050   9.267  69.784  1.00  0.00    -0.177 C  
HETATM   27  O   UNL     1      -8.486   9.839  70.706  1.00  0.00    -0.207 OA 
BRANCH  26  28
HETATM   28  C   UNL     1      -9.973   8.074  69.914  1.00  0.00    -0.189 C  
HETATM   29  C   UNL     1     -10.456   7.519  68.580  1.00  0.00    -0.207 C  
ENDBRANCH  26  28
ENDBRANCH  25  26
ENDBRANCH   5  25
BRANCH   5  30
HETATM   30  C   UNL     1      -7.092  10.859  67.776  1.00  0.00    -0.082 C  
HETATM   31  O   UNL     1      -6.289  11.735  67.399  1.00  0.00    -0.085 OA 
BRANCH  30  32
HETATM   32  C   UNL     1      -6.458   9.480  68.046  1.00  0.00    -0.061 C  
BRANCH  32  33
HETATM   33  O   UNL     1      -5.553   9.117  66.967  1.00  0.00    -0.040 OA 
BRANCH  33  34
HETATM   34  C   UNL     1      -5.864   7.965  66.303  1.00  0.00    -0.040 C  
HETATM   35  O   UNL     1      -5.394   7.663  65.215  1.00  0.00    -0.028 OA 
BRANCH  34  36
HETATM   36  C   UNL     1      -6.847   7.115  67.088  1.00  0.00    -0.076 C  
HETATM   37  C   UNL     1      -7.760   6.310  66.169  1.00  0.00    -0.096 C  
ENDBRANCH  34  36
ENDBRANCH  33  34
ENDBRANCH  32  33
ENDBRANCH  30  32
ENDBRANCH   5  30
TORSDOF 8
ENDMDL
MODEL       19
REMARK 921   NORMALIZED FREE ENERGY PREDICTED BY IDOCK:   -5.28 KCAL/MOL
REMARK 922        TOTAL FREE ENERGY PREDICTED BY IDOCK:   -7.49 KCAL/MOL
REMARK 923 INTER-LIGAND FREE ENERGY PREDICTED BY IDOCK:   -8.02 KCAL/MOL
REMARK 924 INTRA-LIGAND FREE ENERGY PREDICTED BY IDOCK:    0.53 KCAL/MOL
REMARK 927      BINDING AFFINITY PREDICTED BY RF-SCORE:    0.00 PKD
ROOT
HETATM    1  C   UNL     1     -10.747  11.232  67.522  1.00  0.00    -0.275 C  
HETATM    2  C   UNL     1     -11.533  11.480  66.370  1.00  0.00    -0.150 C  
HETATM    3  C   UNL     1     -10.234  12.226  66.517  1.00  0.00    -0.235 C  
HETATM    4  C   UNL     1     -10.122  13.019  64.960  1.00  0.00    -0.234 C  
HETATM    5  C   UNL     1      -8.858  11.354  67.806  1.00  0.00    -0.143 C  
HETATM    6  C   UNL     1     -12.799  14.379  70.208  1.00  0.00    -0.230 C  
HETATM    7 CL   UNL     1     -12.213  14.429  67.181  1.00  0.00    -0.366 Cl 
HETATM    8  C   UNL     1      -9.091  11.595  66.493  1.00  0.00    -0.200 C  
HETATM    9  C   UNL     1      -8.406  13.331  66.963  1.00  0.00    -0.092 C  
HETATM   10  C   UNL     1      -8.757  10.555  65.358  1.00  0.00    -0.195 C  
HETATM   11  C   UNL     1     -12.678  12.941  70.694  1.00  0.00    -0.157 C  
HETATM   12  O   UNL     1     -13.725  15.851  73.110  1.00  0.00    -0.576 OA 
HETATM   13  C   UNL     1     -12.378  12.001  69.537  1.00  0.00    -0.056 C  
HETATM   14  C   UNL     1     -11.543  15.767  72.117  1.00  0.00    -0.534 C  
HETATM   15  C   UNL     1     -11.049  12.365  68.872  1.00  0.00    -0.307 C  
HETATM   16  C   UNL     1      -9.289  14.259  68.134  1.00  0.00    -0.206 C  
HETATM   17  C   UNL     1     -13.047  15.609  72.121  1.00  0.00    -0.458 C  
HETATM   18  C   UNL     1     -10.887  13.982  68.611  1.00  0.00    -0.272 C  
HETATM   19  C   UNL     1     -11.630  16.435  69.041  1.00  0.00    -0.143 C  
HETATM   20  C   UNL     1     -13.687  15.183  70.824  1.00  0.00    -0.244 C  
HETATM   21  O   UNL     1      -8.462  14.268  69.314  1.00  0.00    -0.361 OA 
HETATM   22  H   UNL     1      -8.946  14.776  69.955  1.00  0.00     0.000 HD 
HETATM   23  C   UNL     1     -11.462  15.008  69.727  1.00  0.00    -0.324 C  
HETATM   24  C   UNL     1     -10.787  15.427  71.041  1.00  0.00    -0.207 C  
ENDROOT
BRANCH   5  25
HETATM   25  O   UNL     1      -9.023   9.848  68.038  1.00  0.00    -0.122 OA 
BRANCH  25  26
HETATM   26  C   UNL     1      -9.375   9.389  69.283  1.00  0.00    -0.167 C  
HETATM   27  O   UNL     1      -8.918   9.839  70.323  1.00  0.00    -0.232 OA 
BRANCH  26  28
HETATM   28  C   UNL     1     -10.361   8.245  69.169  1.00  0.00    -0.225 C  
HETATM   29  C   UNL     1     -10.590   7.767  67.741  1.00  0.00    -0.254 C  
ENDBRANCH  26  28
ENDBRANCH  25  26
ENDBRANCH   5  25
BRANCH   5  30
HETATM   30  C   UNL     1      -7.166  11.099  67.532  1.00  0.00    -0.101 C  
HETATM   31  O   UNL     1      -6.671  10.258  66.756  1.00  0.00    -0.077 OA 
BRANCH  30  32
HETATM   32  C   UNL     1      -6.139  12.014  68.229  1.00  0.00    -0.051 C  
BRANCH  32  33
HETATM   33  O   UNL     1      -5.455  11.293  69.290  1.00  0.00    -0.041 OA 
BRANCH  33  34
HETATM   34  C   UNL     1      -5.522  11.867  70.527  1.00  0.00    -0.154 C  
HETATM   35  O   UNL     1      -5.724  11.237  71.555  1.00  0.00    -0.351 OA 
BRANCH  34  36
HETATM   36  C   UNL     1      -5.304  13.368  70.459  1.00  0.00    -0.136 C  
HETATM   37  C   UNL     1      -5.841  14.075  71.700  1.00  0.00    -0.140 C  
ENDBRANCH  34  36
ENDBRANCH  33  34
ENDBRANCH  32  33
ENDBRANCH  30  32
ENDBRANCH   5  30
TORSDOF 8
ENDMDL
MODEL       20
REMARK 921   NORMALIZED FREE ENERGY PREDICTED BY IDOCK:   -5.28 KCAL/MOL
REMARK 922        TOTAL FREE ENERGY PREDICTED BY IDOCK:   -7.48 KCAL/MOL
REMARK 923 INTER-LIGAND FREE ENERGY PREDICTED BY IDOCK:   -7.65 KCAL/MOL
REMARK 924 INTRA-LIGAND FREE ENERGY PREDICTED BY IDOCK:    0.17 KCAL/MOL
REMARK 927      BINDING AFFINITY PREDICTED BY RF-SCORE:    0.00 PKD
ROOT
HETATM    1  C   UNL     1      -8.223  11.175  69.193  1.00  0.00    -0.007 C  
HETATM    2  C   UNL     1      -6.835  11.302  69.443  1.00  0.00    -0.121 C  
HETATM    3  C   UNL     1      -7.278  10.997  68.038  1.00  0.00    -0.086 C  
HETATM    4  C   UNL     1      -5.764  11.135  67.168  1.00  0.00    -0.067 C  
HETATM    5  C   UNL     1      -9.249  11.490  67.608  1.00  0.00    -0.171 C  
HETATM    6  C   UNL     1      -8.498   6.676  70.202  1.00  0.00    -0.136 C  
HETATM    7 CL   UNL     1      -6.218   8.281  68.884  1.00  0.00    -0.043 Cl 
HETATM    8  C   UNL     1      -7.972  11.862  67.350  1.00  0.00    -0.162 C  
HETATM    9  C   UNL     1      -8.082  10.405  66.097  1.00  0.00    -0.139 C  
HETATM   10  C   UNL     1      -7.524  13.369  67.242  1.00  0.00    -0.062 C  
HETATM   11  C   UNL     1      -9.439   7.658  70.886  1.00  0.00    -0.166 C  
HETATM   12  O   UNL     1     -10.011   3.781  71.080  1.00  0.00    -0.172 OA 
HETATM   13  C   UNL     1      -8.924   9.084  70.757  1.00  0.00    -0.286 C  
HETATM   14  C   UNL     1     -10.173   4.972  69.004  1.00  0.00    -0.207 C  
HETATM   15  C   UNL     1      -8.833   9.497  69.286  1.00  0.00    -0.153 C  
HETATM   16  C   UNL     1      -8.355   8.812  66.730  1.00  0.00    -0.108 C  
HETATM   17  C   UNL     1      -9.568   4.660  70.354  1.00  0.00    -0.200 C  
HETATM   18  C   UNL     1      -8.143   8.341  68.340  1.00  0.00    -0.127 C  
HETATM   19  C   UNL     1      -7.349   5.896  67.961  1.00  0.00    -0.080 C  
HETATM   20  C   UNL     1      -8.349   5.456  70.751  1.00  0.00    -0.116 C  
HETATM   21  O   UNL     1      -9.699   8.472  66.335  1.00  0.00    -0.235 OA 
HETATM   22  H   UNL     1      -9.848   7.601  66.682  1.00  0.00     0.000 HD 
HETATM   23  C   UNL     1      -8.474   6.785  68.652  1.00  0.00    -0.123 C  
HETATM   24  C   UNL     1      -9.724   5.997  68.234  1.00  0.00    -0.138 C  
ENDROOT
BRANCH   5  25
HETATM   25  O   UNL     1      -9.876  12.567  68.499  1.00  0.00    -0.214 OA 
BRANCH  25  26
HETATM   26  C   UNL     1     -11.237  12.589  68.681  1.00  0.00    -0.278 C  
HETATM   27  O   UNL     1     -11.895  13.617  68.731  1.00  0.00    -0.323 OA 
BRANCH  26  28
HETATM   28  C   UNL     1     -11.775  11.182  68.844  1.00  0.00    -0.406 C  
HETATM   29  C   UNL     1     -12.201  10.846  70.267  1.00  0.00    -0.432 C  
ENDBRANCH  26  28
ENDBRANCH  25  26
ENDBRANCH   5  25
BRANCH   5  30
HETATM   30  C   UNL     1      -9.852  12.327  66.216  1.00  0.00    -0.241 C  
HETATM   31  O   UNL     1      -9.621  13.517  65.924  1.00  0.00    -0.222 OA 
BRANCH  30  32
HETATM   32  C   UNL     1     -10.693  11.561  65.176  1.00  0.00    -0.289 C  
BRANCH  32  33
HETATM   33  O   UNL     1     -10.791  12.323  63.941  1.00  0.00    -0.339 OA 
BRANCH  33  34
HETATM   34  C   UNL     1     -12.049  12.728  63.599  1.00  0.00    -0.543 C  
HETATM   35  O   UNL     1     -12.878  11.994  63.080  1.00  0.00    -0.661 OA 
BRANCH  34  36
HETATM   36  C   UNL     1     -12.283  14.185  63.955  1.00  0.00    -0.369 C  
HETATM   37  C   UNL     1     -12.918  14.336  65.334  1.00  0.00    -0.230 C  
ENDBRANCH  34  36
ENDBRANCH  33  34
ENDBRANCH  32  33
ENDBRANCH  30  32
ENDBRANCH   5  30
TORSDOF 8
ENDMDL
MODEL       21
REMARK 921   NORMALIZED FREE ENERGY PREDICTED BY IDOCK:   -5.24 KCAL/MOL
REMARK 922        TOTAL FREE ENERGY PREDICTED BY IDOCK:   -7.42 KCAL/MOL
REMARK 923 INTER-LIGAND FREE ENERGY PREDICTED BY IDOCK:   -7.66 KCAL/MOL
REMARK 924 INTRA-LIGAND FREE ENERGY PREDICTED BY IDOCK:    0.24 KCAL/MOL
REMARK 927      BINDING AFFINITY PREDICTED BY RF-SCORE:    0.00 PKD
ROOT
HETATM    1  C   UNL     1      -8.481  10.543  69.156  1.00  0.00    -0.152 C  
HETATM    2  C   UNL     1      -7.138  10.708  69.575  1.00  0.00    -0.127 C  
HETATM    3  C   UNL     1      -7.406   9.837  68.377  1.00  0.00    -0.078 C  
HETATM    4  C   UNL     1      -5.777   9.518  67.820  1.00  0.00    -0.041 C  
HETATM    5  C   UNL     1      -9.224  10.175  67.431  1.00  0.00    -0.141 C  
HETATM    6  C   UNL     1      -9.419   6.956  71.909  1.00  0.00    -0.146 C  
HETATM    7 CL   UNL     1      -6.802   7.724  70.470  1.00  0.00    -0.042 Cl 
HETATM    8  C   UNL     1      -7.889  10.343  67.274  1.00  0.00    -0.106 C  
HETATM    9  C   UNL     1      -7.985   8.490  66.760  1.00  0.00    -0.094 C  
HETATM   10  C   UNL     1      -7.258  11.630  66.621  1.00  0.00    -0.025 C  
HETATM   11  C   UNL     1     -10.329   8.176  71.930  1.00  0.00    -0.300 C  
HETATM   12  O   UNL     1     -11.370   4.803  73.643  1.00  0.00    -0.309 OA 
HETATM   13  C   UNL     1      -9.638   9.379  71.304  1.00  0.00    -0.161 C  
HETATM   14  C   UNL     1     -11.091   4.971  71.266  1.00  0.00     0.271 C  
HETATM   15  C   UNL     1      -9.288   9.102  69.840  1.00  0.00    -0.198 C  
HETATM   16  C   UNL     1      -8.530   7.349  67.948  1.00  0.00    -0.122 C  
HETATM   17  C   UNL     1     -10.727   5.256  72.706  1.00  0.00    -0.243 C  
HETATM   18  C   UNL     1      -8.609   7.621  69.615  1.00  0.00    -0.136 C  
HETATM   19  C   UNL     1      -8.057   5.225  70.458  1.00  0.00    -0.104 C  
HETATM   20  C   UNL     1      -9.494   6.093  72.941  1.00  0.00    -0.150 C  
HETATM   21  O   UNL     1      -9.833   6.927  67.499  1.00  0.00    -0.128 OA 
HETATM   22  H   UNL     1     -10.131   6.302  68.150  1.00  0.00     0.000 HD 
HETATM   23  C   UNL     1      -9.160   6.374  70.492  1.00  0.00    -0.155 C  
HETATM   24  C   UNL     1     -10.419   5.535  70.229  1.00  0.00    -0.365 C  
ENDROOT
BRANCH   5  25
HETATM   25  O   UNL     1      -9.844  11.559  67.652  1.00  0.00    -0.177 OA 
BRANCH  25  26
HETATM   26  C   UNL     1     -11.101  11.660  68.192  1.00  0.00    -0.242 C  
HETATM   27  O   UNL     1     -11.973  10.817  68.036  1.00  0.00    -0.537 OA 
BRANCH  26  28
HETATM   28  C   UNL     1     -11.249  12.959  68.957  1.00  0.00    -0.320 C  
HETATM   29  C   UNL     1     -10.116  13.948  68.719  1.00  0.00    -0.161 C  
ENDBRANCH  26  28
ENDBRANCH  25  26
ENDBRANCH   5  25
BRANCH   5  30
HETATM   30  C   UNL     1      -9.518  10.343  65.732  1.00  0.00    -0.198 C  
HETATM   31  O   UNL     1      -9.455   9.429  64.886  1.00  0.00    -0.229 OA 
BRANCH  30  32
HETATM   32  C   UNL     1      -9.972  11.707  65.172  1.00  0.00    -0.259 C  
BRANCH  32  33
HETATM   33  O   UNL     1     -10.805  11.521  63.995  1.00  0.00    -0.340 OA 
BRANCH  33  34
HETATM   34  C   UNL     1     -11.921  12.305  63.937  1.00  0.00    -0.491 C  
HETATM   35  O   UNL     1     -12.948  11.977  63.360  1.00  0.00    -0.772 OA 
BRANCH  34  36
HETATM   36  C   UNL     1     -11.725  13.612  64.683  1.00  0.00    -0.414 C  
HETATM   37  C   UNL     1     -12.861  13.880  65.665  1.00  0.00    -0.467 C  
ENDBRANCH  34  36
ENDBRANCH  33  34
ENDBRANCH  32  33
ENDBRANCH  30  32
ENDBRANCH   5  30
TORSDOF 8
ENDMDL
MODEL       22
REMARK 921   NORMALIZED FREE ENERGY PREDICTED BY IDOCK:   -5.22 KCAL/MOL
REMARK 922        TOTAL FREE ENERGY PREDICTED BY IDOCK:   -7.40 KCAL/MOL
REMARK 923 INTER-LIGAND FREE ENERGY PREDICTED BY IDOCK:   -7.00 KCAL/MOL
REMARK 924 INTRA-LIGAND FREE ENERGY PREDICTED BY IDOCK:   -0.40 KCAL/MOL
REMARK 927      BINDING AFFINITY PREDICTED BY RF-SCORE:    0.00 PKD
ROOT
HETATM    1  C   UNL     1     -10.774   8.383  68.211  1.00  0.00    -0.084 C  
HETATM    2  C   UNL     1     -10.494   7.744  66.978  1.00  0.00    -0.419 C  
HETATM    3  C   UNL     1      -9.398   7.813  68.008  1.00  0.00    -0.146 C  
HETATM    4  C   UNL     1      -8.174   6.804  67.266  1.00  0.00    -0.121 C  
HETATM    5  C   UNL     1     -10.040   8.120  69.959  1.00  0.00    -0.196 C  
HETATM    6  C   UNL     1      -9.668  12.646  66.823  1.00  0.00    -0.240 C  
HETATM    7 CL   UNL     1      -8.446   9.924  66.046  1.00  0.00    -0.129 Cl 
HETATM    8  C   UNL     1      -9.504   7.179  69.144  1.00  0.00    -0.147 C  
HETATM    9  C   UNL     1      -7.883   8.137  69.544  1.00  0.00    -0.104 C  
HETATM   10  C   UNL     1      -9.922   5.661  69.197  1.00  0.00    -0.244 C  
HETATM   11  C   UNL     1     -11.026  12.394  67.465  1.00  0.00    -0.293 C  
HETATM   12  O   UNL     1      -9.659  16.028  66.898  1.00  0.00    -0.217 OA 
HETATM   13  C   UNL     1     -11.364  10.910  67.455  1.00  0.00    -0.309 C  
HETATM   14  C   UNL     1      -8.588  14.506  68.411  1.00  0.00    -0.172 C  
HETATM   15  C   UNL     1     -10.331  10.114  68.256  1.00  0.00    -0.215 C  
HETATM   16  C   UNL     1      -7.782   9.798  69.051  1.00  0.00    -0.085 C  
HETATM   17  C   UNL     1      -9.299  14.883  67.130  1.00  0.00    -0.218 C  
HETATM   18  C   UNL     1      -8.782  10.552  67.916  1.00  0.00    -0.126 C  
HETATM   19  C   UNL     1      -7.069  12.210  66.881  1.00  0.00     0.008 C  
HETATM   20  C   UNL     1      -9.503  13.782  66.119  1.00  0.00    -0.180 C  
HETATM   21  O   UNL     1      -7.833  10.561  70.272  1.00  0.00    -0.418 OA 
HETATM   22  H   UNL     1      -7.778  11.470  70.002  1.00  0.00     0.000 HD 
HETATM   23  C   UNL     1      -8.462  12.119  67.647  1.00  0.00    -0.163 C  
HETATM   24  C   UNL     1      -8.255  13.220  68.697  1.00  0.00    -0.014 C  
ENDROOT
BRANCH   5  25
HETATM   25  O   UNL     1     -11.485   7.707  70.258  1.00  0.00    -0.237 OA 
BRANCH  25  26
HETATM   26  C   UNL     1     -12.146   8.276  71.318  1.00  0.00    -0.280 C  
HETATM   27  O   UNL     1     -12.869   7.648  72.078  1.00  0.00    -0.287 OA 
BRANCH  26  28
HETATM   28  C   UNL     1     -11.879   9.766  71.375  1.00  0.00    -0.488 C  
HETATM   29  C   UNL     1     -13.022  10.617  70.838  1.00  0.00    -0.429 C  
ENDBRANCH  26  28
ENDBRANCH  25  26
ENDBRANCH   5  25
BRANCH   5  30
HETATM   30  C   UNL     1      -9.531   7.278  71.385  1.00  0.00    -0.160 C  
HETATM   31  O   UNL     1      -9.522   6.041  71.538  1.00  0.00    -0.149 OA 
BRANCH  30  32
HETATM   32  C   UNL     1      -8.962   8.077  72.575  1.00  0.00    -0.195 C  
BRANCH  32  33
HETATM   33  O   UNL     1      -7.755   7.445  73.080  1.00  0.00    -0.087 OA 
BRANCH  33  34
HETATM   34  C   UNL     1      -6.585   8.065  72.748  1.00  0.00    -0.080 C  
HETATM   35  O   UNL     1      -6.472   9.277  72.628  1.00  0.00    -0.304 OA 
BRANCH  34  36
HETATM   36  C   UNL     1      -5.456   7.067  72.563  1.00  0.00    -0.038 C  
HETATM   37  C   UNL     1      -5.889   5.873  71.718  1.00  0.00    -0.030 C  
ENDBRANCH  34  36
ENDBRANCH  33  34
ENDBRANCH  32  33
ENDBRANCH  30  32
ENDBRANCH   5  30
TORSDOF 8
ENDMDL
MODEL       23
REMARK 921   NORMALIZED FREE ENERGY PREDICTED BY IDOCK:   -5.19 KCAL/MOL
REMARK 922        TOTAL FREE ENERGY PREDICTED BY IDOCK:   -7.35 KCAL/MOL
REMARK 923 INTER-LIGAND FREE ENERGY PREDICTED BY IDOCK:   -7.78 KCAL/MOL
REMARK 924 INTRA-LIGAND FREE ENERGY PREDICTED BY IDOCK:    0.43 KCAL/MOL
REMARK 927      BINDING AFFINITY PREDICTED BY RF-SCORE:    0.00 PKD
ROOT
HETATM    1  C   UNL     1     -10.908   8.416  69.064  1.00  0.00    -0.015 C  
HETATM    2  C   UNL     1     -10.747   7.433  68.057  1.00  0.00    -0.191 C  
HETATM    3  C   UNL     1      -9.562   7.760  68.925  1.00  0.00    -0.154 C  
HETATM    4  C   UNL     1      -8.422   6.532  68.416  1.00  0.00    -0.120 C  
HETATM    5  C   UNL     1     -10.021   8.651  70.744  1.00  0.00    -0.197 C  
HETATM    6  C   UNL     1      -9.882  12.038  66.389  1.00  0.00    -0.238 C  
HETATM    7 CL   UNL     1      -8.767   9.163  66.354  1.00  0.00    -0.138 Cl 
HETATM    8  C   UNL     1      -9.572   7.492  70.203  1.00  0.00    -0.168 C  
HETATM    9  C   UNL     1      -7.910   8.464  70.165  1.00  0.00    -0.102 C  
HETATM   10  C   UNL     1     -10.001   6.074  70.738  1.00  0.00    -0.237 C  
HETATM   11  C   UNL     1     -11.179  12.037  67.187  1.00  0.00    -0.374 C  
HETATM   12  O   UNL     1      -9.827  15.289  65.458  1.00  0.00    -0.341 OA 
HETATM   13  C   UNL     1     -11.533  10.630  67.646  1.00  0.00    -0.169 C  
HETATM   14  C   UNL     1      -8.641  14.239  67.259  1.00  0.00    -0.229 C  
HETATM   15  C   UNL     1     -10.442  10.065  68.557  1.00  0.00    -0.229 C  
HETATM   16  C   UNL     1      -7.835   9.901  69.195  1.00  0.00    -0.105 C  
HETATM   17  C   UNL     1      -9.460  14.250  65.988  1.00  0.00    -0.182 C  
HETATM   18  C   UNL     1      -8.925  10.326  67.975  1.00  0.00    -0.132 C  
HETATM   19  C   UNL     1      -7.293  11.540  66.357  1.00  0.00     0.059 C  
HETATM   20  C   UNL     1      -9.768  12.910  65.369  1.00  0.00    -0.043 C  
HETATM   21  O   UNL     1      -7.766  10.990  70.136  1.00  0.00    -0.320 OA 
HETATM   22  H   UNL     1      -7.725  11.777  69.605  1.00  0.00     0.000 HD 
HETATM   23  C   UNL     1      -8.612  11.731  67.229  1.00  0.00    -0.162 C  
HETATM   24  C   UNL     1      -8.299  13.083  67.885  1.00  0.00    -0.170 C  
ENDROOT
BRANCH   5  25
HETATM   25  O   UNL     1     -11.437   8.399  71.271  1.00  0.00    -0.264 OA 
BRANCH  25  26
HETATM   26  C   UNL     1     -12.258   9.465  71.544  1.00  0.00    -0.369 C  
HETATM   27  O   UNL     1     -11.893  10.631  71.488  1.00  0.00    -0.199 OA 
BRANCH  26  28
HETATM   28  C   UNL     1     -13.636   8.986  71.952  1.00  0.00    -0.486 C  
HETATM   29  C   UNL     1     -13.894   7.517  71.643  1.00  0.00    -0.486 C  
ENDBRANCH  26  28
ENDBRANCH  25  26
ENDBRANCH   5  25
BRANCH   5  30
HETATM   30  C   UNL     1      -9.395   8.247  72.308  1.00  0.00    -0.253 C  
HETATM   31  O   UNL     1      -8.287   8.595  72.763  1.00  0.00    -0.388 OA 
BRANCH  30  32
HETATM   32  C   UNL     1     -10.273   7.449  73.293  1.00  0.00    -0.335 C  
BRANCH  32  33
HETATM   33  O   UNL     1      -9.454   6.861  74.341  1.00  0.00    -0.228 OA 
BRANCH  33  34
HETATM   34  C   UNL     1      -9.207   5.524  74.211  1.00  0.00    -0.123 C  
HETATM   35  O   UNL     1      -8.094   5.058  74.011  1.00  0.00    -0.101 OA 
BRANCH  34  36
HETATM   36  C   UNL     1     -10.476   4.704  74.357  1.00  0.00    -0.330 C  
HETATM   37  C   UNL     1     -10.464   3.475  73.454  1.00  0.00    -0.264 C  
ENDBRANCH  34  36
ENDBRANCH  33  34
ENDBRANCH  32  33
ENDBRANCH  30  32
ENDBRANCH   5  30
TORSDOF 8
ENDMDL
MODEL       24
REMARK 921   NORMALIZED FREE ENERGY PREDICTED BY IDOCK:   -5.02 KCAL/MOL
REMARK 922        TOTAL FREE ENERGY PREDICTED BY IDOCK:   -7.10 KCAL/MOL
REMARK 923 INTER-LIGAND FREE ENERGY PREDICTED BY IDOCK:   -6.93 KCAL/MOL
REMARK 924 INTRA-LIGAND FREE ENERGY PREDICTED BY IDOCK:   -0.17 KCAL/MOL
REMARK 927      BINDING AFFINITY PREDICTED BY RF-SCORE:    0.00 PKD
ROOT
HETATM    1  C   UNL     1      -7.239   9.226  67.582  1.00  0.00    -0.083 C  
HETATM    2  C   UNL     1      -6.608   8.079  67.043  1.00  0.00    -0.057 C  
HETATM    3  C   UNL     1      -8.016   8.386  66.608  1.00  0.00    -0.097 C  
HETATM    4  C   UNL     1      -8.245   7.198  65.342  1.00  0.00    -0.137 C  
HETATM    5  C   UNL     1      -8.611  10.358  66.873  1.00  0.00    -0.127 C  
HETATM    6  C   UNL     1      -8.911   7.145  71.351  1.00  0.00    -0.131 C  
HETATM    7 CL   UNL     1      -8.515   6.059  68.492  1.00  0.00    -0.113 Cl 
HETATM    8  C   UNL     1      -8.286   9.458  65.914  1.00  0.00    -0.115 C  
HETATM    9  C   UNL     1     -10.102   8.888  66.206  1.00  0.00    -0.284 C  
HETATM   10  C   UNL     1      -7.448   9.835  64.634  1.00  0.00    -0.134 C  
HETATM   11  C   UNL     1      -8.081   8.413  71.499  1.00  0.00    -0.172 C  
HETATM   12  O   UNL     1     -10.151   6.945  74.492  1.00  0.00    -0.283 OA 
HETATM   13  C   UNL     1      -7.287   8.693  70.232  1.00  0.00    -0.054 C  
HETATM   14  C   UNL     1     -11.223   7.799  72.522  1.00  0.00    -0.419 C  
HETATM   15  C   UNL     1      -8.222   8.903  69.040  1.00  0.00    -0.116 C  
HETATM   16  C   UNL     1     -10.517   8.288  67.780  1.00  0.00    -0.215 C  
HETATM   17  C   UNL     1     -10.148   7.045  73.273  1.00  0.00    -0.255 C  
HETATM   18  C   UNL     1      -9.422   7.779  68.963  1.00  0.00    -0.150 C  
HETATM   19  C   UNL     1     -10.829   5.885  70.052  1.00  0.00    -0.421 C  
HETATM   20  C   UNL     1      -9.085   6.372  72.440  1.00  0.00    -0.137 C  
HETATM   21  O   UNL     1     -11.367   9.298  68.360  1.00  0.00    -0.437 OA 
HETATM   22  H   UNL     1     -11.595   8.969  69.221  1.00  0.00     0.000 HD 
HETATM   23  C   UNL     1     -10.091   7.265  70.348  1.00  0.00    -0.196 C  
HETATM   24  C   UNL     1     -11.175   7.969  71.175  1.00  0.00    -0.287 C  
ENDROOT
BRANCH   5  25
HETATM   25  O   UNL     1      -7.482  11.391  66.943  1.00  0.00    -0.136 OA 
BRANCH  25  26
HETATM   26  C   UNL     1      -7.671  12.554  67.648  1.00  0.00    -0.151 C  
HETATM   27  O   UNL     1      -7.866  13.639  67.120  1.00  0.00    -0.129 OA 
BRANCH  26  28
HETATM   28  C   UNL     1      -7.563  12.298  69.137  1.00  0.00     0.200 C  
HETATM   29  C   UNL     1      -6.131  12.227  69.649  1.00  0.00    -0.132 C  
ENDBRANCH  26  28
ENDBRANCH  25  26
ENDBRANCH   5  25
BRANCH   5  30
HETATM   30  C   UNL     1      -9.438  11.376  65.741  1.00  0.00    -0.233 C  
HETATM   31  O   UNL     1      -9.025  11.691  64.607  1.00  0.00     0.126 OA 
BRANCH  30  32
HETATM   32  C   UNL     1     -10.843  11.907  66.084  1.00  0.00    -0.292 C  
BRANCH  32  33
HETATM   33  O   UNL     1     -10.930  12.235  67.498  1.00  0.00    -0.234 OA 
BRANCH  33  34
HETATM   34  C   UNL     1     -11.727  13.301  67.805  1.00  0.00    -0.358 C  
HETATM   35  O   UNL     1     -12.272  14.002  66.964  1.00  0.00    -0.430 OA 
BRANCH  34  36
HETATM   36  C   UNL     1     -11.856  13.488  69.306  1.00  0.00    -0.392 C  
HETATM   37  C   UNL     1     -12.052  12.158  70.027  1.00  0.00    -0.352 C  
ENDBRANCH  34  36
ENDBRANCH  33  34
ENDBRANCH  32  33
ENDBRANCH  30  32
ENDBRANCH   5  30
TORSDOF 8
ENDMDL
MODEL       25
REMARK 921   NORMALIZED FREE ENERGY PREDICTED BY IDOCK:   -5.00 KCAL/MOL
REMARK 922        TOTAL FREE ENERGY PREDICTED BY IDOCK:   -7.08 KCAL/MOL
REMARK 923 INTER-LIGAND FREE ENERGY PREDICTED BY IDOCK:   -8.17 KCAL/MOL
REMARK 924 INTRA-LIGAND FREE ENERGY PREDICTED BY IDOCK:    1.09 KCAL/MOL
REMARK 927      BINDING AFFINITY PREDICTED BY RF-SCORE:    0.00 PKD
ROOT
HETATM    1  C   UNL     1      -9.183  14.886  69.190  1.00  0.00    -0.142 C  
HETATM    2  C   UNL     1     -10.076  15.344  70.189  1.00  0.00    -0.156 C  
HETATM    3  C   UNL     1     -10.606  15.163  68.793  1.00  0.00    -0.236 C  
HETATM    4  C   UNL     1     -12.319  15.427  69.045  1.00  0.00    -0.047 C  
HETATM    5  C   UNL     1      -9.495  13.889  67.586  1.00  0.00    -0.212 C  
HETATM    6  C   UNL     1      -7.597  19.055  67.993  1.00  0.00    -0.300 C  
HETATM    7 CL   UNL     1     -10.408  18.190  68.920  1.00  0.00    -0.311 Cl 
HETATM    8  C   UNL     1     -10.674  13.978  68.249  1.00  0.00    -0.262 C  
HETATM    9  C   UNL     1     -11.168  14.996  66.690  1.00  0.00    -0.311 C  
HETATM   10  C   UNL     1     -11.321  12.764  69.015  1.00  0.00    -0.346 C  
HETATM   11  C   UNL     1      -6.612  17.955  68.366  1.00  0.00    -0.205 C  
HETATM   12  O   UNL     1      -5.433  21.283  66.654  1.00  0.00    -0.216 OA 
HETATM   13  C   UNL     1      -7.310  16.834  69.121  1.00  0.00    -0.213 C  
HETATM   14  C   UNL     1      -6.849  19.718  65.514  1.00  0.00    -0.325 C  
HETATM   15  C   UNL     1      -8.397  16.192  68.256  1.00  0.00    -0.171 C  
HETATM   16  C   UNL     1     -10.296  16.462  66.372  1.00  0.00    -0.313 C  
HETATM   17  C   UNL     1      -6.375  20.506  66.715  1.00  0.00    -0.224 C  
HETATM   18  C   UNL     1      -9.336  17.300  67.483  1.00  0.00    -0.236 C  
HETATM   19  C   UNL     1      -9.777  19.729  66.673  1.00  0.00    -0.519 C  
HETATM   20  C   UNL     1      -7.155  20.327  67.993  1.00  0.00    -0.316 C  
HETATM   21  O   UNL     1      -9.496  16.183  65.207  1.00  0.00    -0.320 OA 
HETATM   22  H   UNL     1      -9.019  16.986  65.033  1.00  0.00     0.000 HD 
HETATM   23  C   UNL     1      -8.635  18.646  66.912  1.00  0.00    -0.284 C  
HETATM   24  C   UNL     1      -7.848  18.802  65.603  1.00  0.00     0.223 C  
ENDROOT
BRANCH   5  25
HETATM   25  O   UNL     1      -8.626  12.864  68.321  1.00  0.00    -0.180 OA 
BRANCH  25  26
HETATM   26  C   UNL     1      -7.302  12.730  67.983  1.00  0.00    -0.117 C  
HETATM   27  O   UNL     1      -6.720  13.488  67.220  1.00  0.00    -0.211 OA 
BRANCH  26  28
HETATM   28  C   UNL     1      -6.702  11.510  68.650  1.00  0.00    -0.072 C  
HETATM   29  C   UNL     1      -5.180  11.470  68.609  1.00  0.00    -0.043 C  
ENDBRANCH  26  28
ENDBRANCH  25  26
ENDBRANCH   5  25
BRANCH   5  30
HETATM   30  C   UNL     1     -10.083  12.618  66.565  1.00  0.00    -0.248 C  
HETATM   31  O   UNL     1      -9.937  12.549  65.329  1.00  0.00    -0.267 OA 
BRANCH  30  32
HETATM   32  C   UNL     1     -10.794  11.405  67.197  1.00  0.00    -0.268 C  
BRANCH  32  33
HETATM   33  O   UNL     1     -10.264  10.166  66.654  1.00  0.00    -0.215 OA 
BRANCH  33  34
HETATM   34  C   UNL     1     -10.093   9.156  67.557  1.00  0.00    -0.228 C  
HETATM   35  O   UNL     1     -10.277   9.285  68.759  1.00  0.00    -0.193 OA 
BRANCH  34  36
HETATM   36  C   UNL     1      -9.662   7.867  66.879  1.00  0.00    -0.285 C  
HETATM   37  C   UNL     1     -10.642   6.730  67.150  1.00  0.00    -0.401 C  
ENDBRANCH  34  36
ENDBRANCH  33  34
ENDBRANCH  32  33
ENDBRANCH  30  32
ENDBRANCH   5  30
TORSDOF 8
ENDMDL
MODEL       26
REMARK 921   NORMALIZED FREE ENERGY PREDICTED BY IDOCK:   -4.98 KCAL/MOL
REMARK 922        TOTAL FREE ENERGY PREDICTED BY IDOCK:   -7.05 KCAL/MOL
REMARK 923 INTER-LIGAND FREE ENERGY PREDICTED BY IDOCK:   -7.22 KCAL/MOL
REMARK 924 INTRA-LIGAND FREE ENERGY PREDICTED BY IDOCK:    0.17 KCAL/MOL
REMARK 927      BINDING AFFINITY PREDICTED BY RF-SCORE:    0.00 PKD
ROOT
HETATM    1  C   UNL     1      -6.978   7.835  67.491  1.00  0.00    -0.078 C  
HETATM    2  C   UNL     1      -6.746   6.530  66.990  1.00  0.00    -0.060 C  
HETATM    3  C   UNL     1      -7.995   7.247  66.553  1.00  0.00    -0.115 C  
HETATM    4  C   UNL     1      -8.605   6.148  65.333  1.00  0.00    -0.111 C  
HETATM    5  C   UNL     1      -7.940   9.314  66.749  1.00  0.00    -0.108 C  
HETATM    6  C   UNL     1      -9.149   6.506  71.345  1.00  0.00    -0.148 C  
HETATM    7 CL   UNL     1      -9.162   5.256  68.526  1.00  0.00    -0.127 Cl 
HETATM    8  C   UNL     1      -7.929   8.326  65.822  1.00  0.00    -0.099 C  
HETATM    9  C   UNL     1      -9.826   8.362  66.146  1.00  0.00    -0.183 C  
HETATM   10  C   UNL     1      -7.038   8.380  64.524  1.00  0.00    -0.077 C  
HETATM   11  C   UNL     1      -7.963   7.455  71.440  1.00  0.00    -0.096 C  
HETATM   12  O   UNL     1     -10.335   6.809  74.498  1.00  0.00    -0.283 OA 
HETATM   13  C   UNL     1      -7.143   7.431  70.159  1.00  0.00    -0.064 C  
HETATM   14  C   UNL     1     -11.121   7.888  72.505  1.00  0.00    -0.423 C  
HETATM   15  C   UNL     1      -7.987   7.883  68.966  1.00  0.00    -0.122 C  
HETATM   16  C   UNL     1     -10.381   7.975  67.744  1.00  0.00    -0.231 C  
HETATM   17  C   UNL     1     -10.322   6.862  73.276  1.00  0.00    -0.287 C  
HETATM   18  C   UNL     1      -9.479   7.189  68.938  1.00  0.00    -0.142 C  
HETATM   19  C   UNL     1     -11.387   5.866  70.105  1.00  0.00    -0.231 C  
HETATM   20  C   UNL     1      -9.537   5.863  72.462  1.00  0.00    -0.165 C  
HETATM   21  O   UNL     1     -10.863   9.218  68.291  1.00  0.00    -0.403 OA 
HETATM   22  H   UNL     1     -11.166   9.006  69.166  1.00  0.00     0.000 HD 
HETATM   23  C   UNL     1     -10.250   6.956  70.345  1.00  0.00    -0.209 C  
HETATM   24  C   UNL     1     -11.046   7.991  71.153  1.00  0.00    -0.278 C  
ENDROOT
BRANCH   5  25
HETATM   25  O   UNL     1      -6.544   9.944  66.774  1.00  0.00    -0.069 OA 
BRANCH  25  26
HETATM   26  C   UNL     1      -6.383  11.215  67.267  1.00  0.00    -0.074 C  
HETATM   27  O   UNL     1      -5.797  12.104  66.666  1.00  0.00    -0.261 OA 
BRANCH  26  28
HETATM   28  C   UNL     1      -6.993  11.332  68.648  1.00  0.00    -0.084 C  
HETATM   29  C   UNL     1      -6.099  10.808  69.764  1.00  0.00    -0.081 C  
ENDBRANCH  26  28
ENDBRANCH  25  26
ENDBRANCH   5  25
BRANCH   5  30
HETATM   30  C   UNL     1      -8.427  10.501  65.585  1.00  0.00    -0.176 C  
HETATM   31  O   UNL     1      -8.191  10.462  64.361  1.00  0.00    -0.165 OA 
BRANCH  30  32
HETATM   32  C   UNL     1      -9.293  11.694  66.035  1.00  0.00    -0.227 C  
BRANCH  32  33
HETATM   33  O   UNL     1     -10.697  11.317  66.075  1.00  0.00    -0.267 OA 
BRANCH  33  34
HETATM   34  C   UNL     1     -11.512  12.161  66.773  1.00  0.00    -0.356 C  
HETATM   35  O   UNL     1     -12.193  11.808  67.725  1.00  0.00    -0.536 OA 
BRANCH  34  36
HETATM   36  C   UNL     1     -11.450  13.576  66.227  1.00  0.00    -0.350 C  
HETATM   37  C   UNL     1     -12.735  13.957  65.497  1.00  0.00    -0.536 C  
ENDBRANCH  34  36
ENDBRANCH  33  34
ENDBRANCH  32  33
ENDBRANCH  30  32
ENDBRANCH   5  30
TORSDOF 8
ENDMDL
MODEL       27
REMARK 921   NORMALIZED FREE ENERGY PREDICTED BY IDOCK:   -4.98 KCAL/MOL
REMARK 922        TOTAL FREE ENERGY PREDICTED BY IDOCK:   -7.04 KCAL/MOL
REMARK 923 INTER-LIGAND FREE ENERGY PREDICTED BY IDOCK:   -7.11 KCAL/MOL
REMARK 924 INTRA-LIGAND FREE ENERGY PREDICTED BY IDOCK:    0.07 KCAL/MOL
REMARK 927      BINDING AFFINITY PREDICTED BY RF-SCORE:    0.00 PKD
ROOT
HETATM    1  C   UNL     1     -10.105   9.058  68.054  1.00  0.00    -0.234 C  
HETATM    2  C   UNL     1     -10.254   8.749  66.679  1.00  0.00    -0.340 C  
HETATM    3  C   UNL     1      -8.886   9.130  67.177  1.00  0.00    -0.130 C  
HETATM    4  C   UNL     1      -7.910   8.810  65.759  1.00  0.00    -0.099 C  
HETATM    5  C   UNL     1      -8.596   8.901  69.221  1.00  0.00    -0.133 C  
HETATM    6  C   UNL     1     -11.157  13.538  67.672  1.00  0.00    -0.290 C  
HETATM    7 CL   UNL     1      -9.670  11.673  65.718  1.00  0.00    -0.253 Cl 
HETATM    8  C   UNL     1      -8.245   8.371  68.024  1.00  0.00    -0.127 C  
HETATM    9  C   UNL     1      -7.011   9.849  68.032  1.00  0.00    -0.077 C  
HETATM   10  C   UNL     1      -8.097   6.821  67.784  1.00  0.00    -0.113 C  
HETATM   11  C   UNL     1     -11.901  12.676  68.682  1.00  0.00    -0.342 C  
HETATM   12  O   UNL     1     -12.157  16.591  68.733  1.00  0.00     0.122 OA 
HETATM   13  C   UNL     1     -11.727  11.197  68.367  1.00  0.00    -0.349 C  
HETATM   14  C   UNL     1     -10.091  15.462  69.193  1.00  0.00    -0.235 C  
HETATM   15  C   UNL     1     -10.251  10.798  68.433  1.00  0.00    -0.192 C  
HETATM   16  C   UNL     1      -7.671  11.454  68.051  1.00  0.00    -0.114 C  
HETATM   17  C   UNL     1     -11.396  15.673  68.459  1.00  0.00    -0.360 C  
HETATM   18  C   UNL     1      -9.264  11.870  67.668  1.00  0.00    -0.183 C  
HETATM   19  C   UNL     1      -8.843  14.198  66.592  1.00  0.00    -0.141 C  
HETATM   20  C   UNL     1     -11.700  14.721  67.329  1.00  0.00    -0.366 C  
HETATM   21  O   UNL     1      -7.376  11.970  69.364  1.00  0.00    -0.332 OA 
HETATM   22  H   UNL     1      -7.737  12.848  69.375  1.00  0.00     0.000 HD 
HETATM   23  C   UNL     1      -9.609  13.451  67.772  1.00  0.00    -0.213 C  
HETATM   24  C   UNL     1      -9.285  14.399  68.935  1.00  0.00    -0.084 C  
ENDROOT
BRANCH   5  25
HETATM   25  O   UNL     1      -9.523   7.900  69.918  1.00  0.00    -0.160 OA 
BRANCH  25  26
HETATM   26  C   UNL     1     -10.423   8.348  70.853  1.00  0.00    -0.196 C  
HETATM   27  O   UNL     1     -10.220   9.309  71.580  1.00  0.00    -0.332 OA 
BRANCH  26  28
HETATM   28  C   UNL     1     -11.656   7.468  70.869  1.00  0.00    -0.309 C  
HETATM   29  C   UNL     1     -11.577   6.278  69.923  1.00  0.00    -0.361 C  
ENDBRANCH  26  28
ENDBRANCH  25  26
ENDBRANCH   5  25
BRANCH   5  30
HETATM   30  C   UNL     1      -7.246   8.169  70.023  1.00  0.00    -0.056 C  
HETATM   31  O   UNL     1      -6.090   8.634  70.080  1.00  0.00    -0.030 OA 
BRANCH  30  32
HETATM   32  C   UNL     1      -7.452   6.862  70.814  1.00  0.00    -0.082 C  
BRANCH  32  33
HETATM   33  O   UNL     1      -6.876   6.976  72.143  1.00  0.00    -0.057 OA 
BRANCH  33  34
HETATM   34  C   UNL     1      -7.737   7.378  73.124  1.00  0.00    -0.092 C  
HETATM   35  O   UNL     1      -7.750   8.508  73.592  1.00  0.00    -0.345 OA 
BRANCH  34  36
HETATM   36  C   UNL     1      -8.672   6.257  73.540  1.00  0.00    -0.126 C  
HETATM   37  C   UNL     1      -9.953   6.793  74.171  1.00  0.00    -0.373 C  
ENDBRANCH  34  36
ENDBRANCH  33  34
ENDBRANCH  32  33
ENDBRANCH  30  32
ENDBRANCH   5  30
TORSDOF 8
ENDMDL
MODEL       28
REMARK 921   NORMALIZED FREE ENERGY PREDICTED BY IDOCK:   -4.95 KCAL/MOL
REMARK 922        TOTAL FREE ENERGY PREDICTED BY IDOCK:   -7.00 KCAL/MOL
REMARK 923 INTER-LIGAND FREE ENERGY PREDICTED BY IDOCK:   -8.55 KCAL/MOL
REMARK 924 INTRA-LIGAND FREE ENERGY PREDICTED BY IDOCK:    1.55 KCAL/MOL
REMARK 927      BINDING AFFINITY PREDICTED BY RF-SCORE:    0.00 PKD
ROOT
HETATM    1  C   UNL     1     -10.029  13.152  66.257  1.00  0.00    -0.285 C  
HETATM    2  C   UNL     1      -8.742  12.694  65.886  1.00  0.00     0.572 C  
HETATM    3  C   UNL     1      -9.105  12.683  67.346  1.00  0.00    -0.191 C  
HETATM    4  C   UNL     1      -7.730  11.842  68.031  1.00  0.00    -0.123 C  
HETATM    5  C   UNL     1     -11.143  12.702  67.748  1.00  0.00    -0.247 C  
HETATM    6  C   UNL     1      -8.880  17.609  66.627  1.00  0.00    -0.283 C  
HETATM    7 CL   UNL     1      -7.239  15.076  67.259  1.00  0.00    -0.220 Cl 
HETATM    8  C   UNL     1     -10.050  11.903  67.797  1.00  0.00    -0.200 C  
HETATM    9  C   UNL     1      -9.737  12.881  69.426  1.00  0.00     0.971 C  
HETATM   10  C   UNL     1     -10.090  10.372  67.429  1.00  0.00    -0.237 C  
HETATM   11  C   UNL     1     -10.060  17.208  65.753  1.00  0.00    -0.192 C  
HETATM   12  O   UNL     1      -9.405  20.949  66.739  1.00  0.00    -0.143 OA 
HETATM   13  C   UNL     1     -10.013  15.723  65.424  1.00  0.00    -0.273 C  
HETATM   14  C   UNL     1      -9.979  19.299  68.383  1.00  0.00    -0.502 C  
HETATM   15  C   UNL     1     -10.090  14.883  66.700  1.00  0.00    -0.264 C  
HETATM   16  C   UNL     1      -9.490  14.594  69.305  1.00  0.00     0.006 C  
HETATM   17  C   UNL     1      -9.272  19.803  67.144  1.00  0.00    -0.342 C  
HETATM   18  C   UNL     1      -9.102  15.439  67.893  1.00  0.00    -0.178 C  
HETATM   19  C   UNL     1      -7.604  17.300  68.914  1.00  0.00    -0.235 C  
HETATM   20  C   UNL     1      -8.349  18.834  66.450  1.00  0.00    -0.294 C  
HETATM   21  O   UNL     1     -10.673  15.189  69.874  1.00  0.00    -0.257 OA 
HETATM   22  H   UNL     1     -10.538  16.127  69.808  1.00  0.00     0.000 HD 
HETATM   23  C   UNL     1      -8.930  17.041  68.072  1.00  0.00    -0.230 C  
HETATM   24  C   UNL     1      -9.887  18.005  68.788  1.00  0.00    -0.360 C  
ENDROOT
BRANCH   5  25
HETATM   25  O   UNL     1     -12.048  12.182  66.627  1.00  0.00    -0.622 OA 
BRANCH  25  26
HETATM   26  C   UNL     1     -12.658  13.073  65.780  1.00  0.00    -0.201 C  
HETATM   27  O   UNL     1     -13.011  14.194  66.118  1.00  0.00    -0.280 OA 
BRANCH  26  28
HETATM   28  C   UNL     1     -12.857  12.457  64.411  1.00  0.00    -0.344 C  
HETATM   29  C   UNL     1     -11.995  13.081  63.322  1.00  0.00    -0.493 C  
ENDBRANCH  26  28
ENDBRANCH  25  26
ENDBRANCH   5  25
BRANCH   5  30
HETATM   30  C   UNL     1     -12.009  11.709  68.873  1.00  0.00    -0.292 C  
HETATM   31  O   UNL     1     -12.509  10.594  68.627  1.00  0.00    -0.252 OA 
BRANCH  30  32
HETATM   32  C   UNL     1     -12.141  12.163  70.340  1.00  0.00    -0.309 C  
BRANCH  32  33
HETATM   33  O   UNL     1     -12.875  13.416  70.420  1.00  0.00    -0.122 OA 
BRANCH  33  34
HETATM   34  C   UNL     1     -13.452  13.682  71.628  1.00  0.00    -0.322 C  
HETATM   35  O   UNL     1     -13.636  12.834  72.491  1.00  0.00    -0.538 OA 
BRANCH  34  36
HETATM   36  C   UNL     1     -13.818  15.149  71.762  1.00  0.00    -0.605 C  
HETATM   37  C   UNL     1     -13.410  15.712  73.120  1.00  0.00    -0.660 C  
ENDBRANCH  34  36
ENDBRANCH  33  34
ENDBRANCH  32  33
ENDBRANCH  30  32
ENDBRANCH   5  30
TORSDOF 8
ENDMDL
MODEL       29
REMARK 921   NORMALIZED FREE ENERGY PREDICTED BY IDOCK:   -4.92 KCAL/MOL
REMARK 922        TOTAL FREE ENERGY PREDICTED BY IDOCK:   -6.96 KCAL/MOL
REMARK 923 INTER-LIGAND FREE ENERGY PREDICTED BY IDOCK:   -7.13 KCAL/MOL
REMARK 924 INTRA-LIGAND FREE ENERGY PREDICTED BY IDOCK:    0.17 KCAL/MOL
REMARK 927      BINDING AFFINITY PREDICTED BY RF-SCORE:    0.00 PKD
ROOT
HETATM    1  C   UNL     1     -10.192   8.864  68.666  1.00  0.00    -0.221 C  
HETATM    2  C   UNL     1     -10.528   8.465  67.349  1.00  0.00    -0.354 C  
HETATM    3  C   UNL     1      -9.103   8.858  67.630  1.00  0.00    -0.144 C  
HETATM    4  C   UNL     1      -8.330   8.428  66.119  1.00  0.00    -0.127 C  
HETATM    5  C   UNL     1      -8.540   8.765  69.627  1.00  0.00    -0.130 C  
HETATM    6  C   UNL     1     -11.260  13.324  68.119  1.00  0.00    -0.302 C  
HETATM    7 CL   UNL     1     -10.063  11.308  66.116  1.00  0.00    -0.267 Cl 
HETATM    8  C   UNL     1      -8.357   8.149  68.434  1.00  0.00    -0.126 C  
HETATM    9  C   UNL     1      -7.125   9.606  68.172  1.00  0.00    -0.079 C  
HETATM   10  C   UNL     1      -8.252   6.585  68.284  1.00  0.00    -0.114 C  
HETATM   11  C   UNL     1     -11.866  12.543  69.277  1.00  0.00    -0.360 C  
HETATM   12  O   UNL     1     -12.091  16.456  69.089  1.00  0.00    -0.033 OA 
HETATM   13  C   UNL     1     -11.745  11.045  69.045  1.00  0.00    -0.402 C  
HETATM   14  C   UNL     1      -9.988  15.330  69.344  1.00  0.00    -0.257 C  
HETATM   15  C   UNL     1     -10.276  10.629  68.939  1.00  0.00    -0.216 C  
HETATM   16  C   UNL     1      -7.768  11.218  68.169  1.00  0.00    -0.112 C  
HETATM   17  C   UNL     1     -11.379  15.511  68.780  1.00  0.00    -0.334 C  
HETATM   18  C   UNL     1      -9.396  11.631  67.975  1.00  0.00    -0.178 C  
HETATM   19  C   UNL     1      -9.111  13.873  66.693  1.00  0.00    -0.209 C  
HETATM   20  C   UNL     1     -11.839  14.489  67.770  1.00  0.00    -0.390 C  
HETATM   21  O   UNL     1      -7.294  11.818  69.391  1.00  0.00    -0.325 OA 
HETATM   22  H   UNL     1      -7.646  12.700  69.389  1.00  0.00     0.000 HD 
HETATM   23  C   UNL     1      -9.714  13.220  68.015  1.00  0.00    -0.223 C  
HETATM   24  C   UNL     1      -9.230  14.240  69.055  1.00  0.00     0.040 C  
ENDROOT
BRANCH   5  25
HETATM   25  O   UNL     1      -9.370   7.828  70.511  1.00  0.00    -0.162 OA 
BRANCH  25  26
HETATM   26  C   UNL     1      -9.839   8.277  71.720  1.00  0.00    -0.218 C  
HETATM   27  O   UNL     1      -9.152   8.884  72.528  1.00  0.00    -0.349 OA 
BRANCH  26  28
HETATM   28  C   UNL     1     -11.289   7.879  71.910  1.00  0.00    -0.324 C  
HETATM   29  C   UNL     1     -12.236   9.060  72.074  1.00  0.00    -0.446 C  
ENDBRANCH  26  28
ENDBRANCH  25  26
ENDBRANCH   5  25
BRANCH   5  30
HETATM   30  C   UNL     1      -7.098   8.069  70.289  1.00  0.00    -0.048 C  
HETATM   31  O   UNL     1      -6.081   8.697  70.644  1.00  0.00    -0.031 OA 
BRANCH  30  32
HETATM   32  C   UNL     1      -7.041   6.551  70.552  1.00  0.00    -0.065 C  
BRANCH  32  33
HETATM   33  O   UNL     1      -6.765   6.288  71.955  1.00  0.00    -0.064 OA 
BRANCH  33  34
HETATM   34  C   UNL     1      -7.701   5.538  72.607  1.00  0.00    -0.099 C  
HETATM   35  O   UNL     1      -8.033   5.729  73.768  1.00  0.00    -0.107 OA 
BRANCH  34  36
HETATM   36  C   UNL     1      -8.276   4.458  71.708  1.00  0.00    -0.101 C  
HETATM   37  C   UNL     1      -9.801   4.463  71.721  1.00  0.00    -0.253 C  
ENDBRANCH  34  36
ENDBRANCH  33  34
ENDBRANCH  32  33
ENDBRANCH  30  32
ENDBRANCH   5  30
TORSDOF 8
ENDMDL
MODEL       30
REMARK 921   NORMALIZED FREE ENERGY PREDICTED BY IDOCK:   -4.91 KCAL/MOL
REMARK 922        TOTAL FREE ENERGY PREDICTED BY IDOCK:   -6.95 KCAL/MOL
REMARK 923 INTER-LIGAND FREE ENERGY PREDICTED BY IDOCK:   -7.48 KCAL/MOL
REMARK 924 INTRA-LIGAND FREE ENERGY PREDICTED BY IDOCK:    0.54 KCAL/MOL
REMARK 927      BINDING AFFINITY PREDICTED BY RF-SCORE:    0.00 PKD
ROOT
HETATM    1  C   UNL     1     -10.650   7.920  67.930  1.00  0.00    -0.215 C  
HETATM    2  C   UNL     1     -11.036   6.681  67.363  1.00  0.00    -0.434 C  
HETATM    3  C   UNL     1      -9.960   6.675  68.416  1.00  0.00    -0.146 C  
HETATM    4  C   UNL     1      -9.749   4.956  68.675  1.00  0.00    -0.225 C  
HETATM    5  C   UNL     1      -9.927   8.345  69.651  1.00  0.00    -0.193 C  
HETATM    6  C   UNL     1      -7.462   8.947  64.750  1.00  0.00    -0.103 C  
HETATM    7 CL   UNL     1      -8.293   6.218  65.920  1.00  0.00    -0.135 Cl 
HETATM    8  C   UNL     1     -10.223   7.023  69.646  1.00  0.00    -0.212 C  
HETATM    9  C   UNL     1      -8.314   6.866  69.836  1.00  0.00    -0.139 C  
HETATM   10  C   UNL     1     -11.455   6.418  70.420  1.00  0.00    -0.458 C  
HETATM   11  C   UNL     1      -8.556   9.956  65.070  1.00  0.00    -0.174 C  
HETATM   12  O   UNL     1      -5.400  10.940  62.955  1.00  0.00    -0.172 OA 
HETATM   13  C   UNL     1      -9.716   9.289  65.795  1.00  0.00    -0.339 C  
HETATM   14  C   UNL     1      -5.219  10.306  65.262  1.00  0.00    -0.085 C  
HETATM   15  C   UNL     1      -9.252   8.689  67.124  1.00  0.00    -0.175 C  
HETATM   16  C   UNL     1      -7.321   7.484  68.554  1.00  0.00    -0.099 C  
HETATM   17  C   UNL     1      -5.770  10.202  63.858  1.00  0.00    -0.135 C  
HETATM   18  C   UNL     1      -7.844   7.849  66.989  1.00  0.00    -0.108 C  
HETATM   19  C   UNL     1      -5.695   7.220  65.670  1.00  0.00    -0.036 C  
HETATM   20  C   UNL     1      -6.773   9.104  63.604  1.00  0.00    -0.090 C  
HETATM   21  O   UNL     1      -6.683   8.656  69.100  1.00  0.00    -0.046 OA 
HETATM   22  H   UNL     1      -6.139   8.994  68.398  1.00  0.00     0.000 HD 
HETATM   23  C   UNL     1      -6.697   8.415  65.992  1.00  0.00    -0.061 C  
HETATM   24  C   UNL     1      -5.685   9.534  66.278  1.00  0.00    -0.053 C  
ENDROOT
BRANCH   5  25
HETATM   25  O   UNL     1     -11.246   9.116  69.765  1.00  0.00    -0.181 OA 
BRANCH  25  26
HETATM   26  C   UNL     1     -11.224  10.484  69.877  1.00  0.00    -0.307 C  
HETATM   27  O   UNL     1     -10.416  11.196  69.299  1.00  0.00    -0.214 OA 
BRANCH  26  28
HETATM   28  C   UNL     1     -12.300  10.958  70.831  1.00  0.00    -0.501 C  
HETATM   29  C   UNL     1     -13.340   9.896  71.164  1.00  0.00    -0.371 C  
ENDBRANCH  26  28
ENDBRANCH  25  26
ENDBRANCH   5  25
BRANCH   5  30
HETATM   30  C   UNL     1      -9.787   8.381  71.377  1.00  0.00    -0.197 C  
HETATM   31  O   UNL     1      -8.895   8.964  72.025  1.00  0.00    -0.367 OA 
BRANCH  30  32
HETATM   32  C   UNL     1     -10.874   7.711  72.241  1.00  0.00    -0.267 C  
BRANCH  32  33
HETATM   33  O   UNL     1     -10.364   7.432  73.573  1.00  0.00    -0.342 OA 
BRANCH  33  34
HETATM   34  C   UNL     1      -9.801   6.199  73.739  1.00  0.00    -0.192 C  
HETATM   35  O   UNL     1      -8.597   6.014  73.845  1.00  0.00    -0.120 OA 
BRANCH  34  36
HETATM   36  C   UNL     1     -10.853   5.106  73.787  1.00  0.00    -0.345 C  
HETATM   37  C   UNL     1     -10.472   3.915  72.915  1.00  0.00    -0.247 C  
ENDBRANCH  34  36
ENDBRANCH  33  34
ENDBRANCH  32  33
ENDBRANCH  30  32
ENDBRANCH   5  30
TORSDOF 8
ENDMDL
MODEL       31
REMARK 921   NORMALIZED FREE ENERGY PREDICTED BY IDOCK:   -4.91 KCAL/MOL
REMARK 922        TOTAL FREE ENERGY PREDICTED BY IDOCK:   -6.94 KCAL/MOL
REMARK 923 INTER-LIGAND FREE ENERGY PREDICTED BY IDOCK:   -6.95 KCAL/MOL
REMARK 924 INTRA-LIGAND FREE ENERGY PREDICTED BY IDOCK:    0.01 KCAL/MOL
REMARK 927      BINDING AFFINITY PREDICTED BY RF-SCORE:    0.00 PKD
ROOT
HETATM    1  C   UNL     1      -8.269   6.939  68.442  1.00  0.00    -0.120 C  
HETATM    2  C   UNL     1      -8.465   6.080  67.334  1.00  0.00    -0.104 C  
HETATM    3  C   UNL     1      -9.671   6.495  68.132  1.00  0.00    -0.126 C  
HETATM    4  C   UNL     1     -10.967   5.844  67.150  1.00  0.00    -0.289 C  
HETATM    5  C   UNL     1      -9.431   8.222  69.260  1.00  0.00    -0.155 C  
HETATM    6  C   UNL     1      -7.443   3.596  71.519  1.00  0.00    -0.051 C  
HETATM    7 CL   UNL     1      -9.335   3.632  69.084  1.00  0.00    -0.231 Cl 
HETATM    8  C   UNL     1     -10.061   7.740  68.162  1.00  0.00    -0.220 C  
HETATM    9  C   UNL     1     -11.285   7.065  69.487  1.00  0.00    -0.185 C  
HETATM   10  C   UNL     1     -10.232   8.574  66.836  1.00  0.00    -0.375 C  
HETATM   11  C   UNL     1      -6.450   4.740  71.369  1.00  0.00    -0.023 C  
HETATM   12  O   UNL     1      -6.272   2.242  74.389  1.00  0.00    -0.010 OA 
HETATM   13  C   UNL     1      -6.667   5.478  70.056  1.00  0.00    -0.048 C  
HETATM   14  C   UNL     1      -8.131   3.730  74.099  1.00  0.00    -0.079 C  
HETATM   15  C   UNL     1      -8.069   6.088  70.001  1.00  0.00    -0.114 C  
HETATM   16  C   UNL     1     -10.675   5.925  70.644  1.00  0.00    -0.285 C  
HETATM   17  C   UNL     1      -7.058   2.778  73.620  1.00  0.00    -0.040 C  
HETATM   18  C   UNL     1      -9.240   5.044  70.499  1.00  0.00    -0.195 C  
HETATM   19  C   UNL     1      -9.968   2.855  71.695  1.00  0.00    -0.151 C  
HETATM   20  C   UNL     1      -7.029   2.476  72.143  1.00  0.00    -0.030 C  
HETATM   21  O   UNL     1     -10.640   6.638  71.897  1.00  0.00    -0.208 OA 
HETATM   22  H   UNL     1     -10.307   6.013  72.530  1.00  0.00     0.000 HD 
HETATM   23  C   UNL     1      -8.914   4.048  71.736  1.00  0.00    -0.159 C  
HETATM   24  C   UNL     1      -8.953   4.380  73.234  1.00  0.00    -0.114 C  
ENDROOT
BRANCH   5  25
HETATM   25  O   UNL     1      -8.336   9.183  68.783  1.00  0.00    -0.118 OA 
BRANCH  25  26
HETATM   26  C   UNL     1      -7.675   9.964  69.698  1.00  0.00    -0.149 C  
HETATM   27  O   UNL     1      -7.477   9.627  70.856  1.00  0.00    -0.302 OA 
BRANCH  26  28
HETATM   28  C   UNL     1      -7.274  11.286  69.077  1.00  0.00    -0.119 C  
HETATM   29  C   UNL     1      -7.765  11.471  67.648  1.00  0.00    -0.123 C  
ENDBRANCH  26  28
ENDBRANCH  25  26
ENDBRANCH   5  25
BRANCH   5  30
HETATM   30  C   UNL     1     -10.519   9.565  69.384  1.00  0.00    -0.217 C  
HETATM   31  O   UNL     1     -10.985  10.217  68.429  1.00  0.00    -0.242 OA 
BRANCH  30  32
HETATM   32  C   UNL     1     -11.046   9.988  70.770  1.00  0.00    -0.334 C  
BRANCH  32  33
HETATM   33  O   UNL     1     -12.294  10.721  70.636  1.00  0.00    -0.311 OA 
BRANCH  33  34
HETATM   34  C   UNL     1     -13.106  10.703  71.734  1.00  0.00    -0.466 C  
HETATM   35  O   UNL     1     -13.704  11.685  72.149  1.00  0.00    -0.217 OA 
BRANCH  34  36
HETATM   36  C   UNL     1     -13.175   9.319  72.355  1.00  0.00    -0.501 C  
HETATM   37  C   UNL     1     -14.386   8.537  71.859  1.00  0.00    -0.536 C  
ENDBRANCH  34  36
ENDBRANCH  33  34
ENDBRANCH  32  33
ENDBRANCH  30  32
ENDBRANCH   5  30
TORSDOF 8
ENDMDL
MODEL       32
REMARK 921   NORMALIZED FREE ENERGY PREDICTED BY IDOCK:   -4.90 KCAL/MOL
REMARK 922        TOTAL FREE ENERGY PREDICTED BY IDOCK:   -6.93 KCAL/MOL
REMARK 923 INTER-LIGAND FREE ENERGY PREDICTED BY IDOCK:   -7.23 KCAL/MOL
REMARK 924 INTRA-LIGAND FREE ENERGY PREDICTED BY IDOCK:    0.30 KCAL/MOL
REMARK 927      BINDING AFFINITY PREDICTED BY RF-SCORE:    0.00 PKD
ROOT
HETATM    1  C   UNL     1     -11.399  14.078  66.597  1.00  0.00    -0.345 C  
HETATM    2  C   UNL     1     -12.531  13.358  67.049  1.00  0.00    -0.071 C  
HETATM    3  C   UNL     1     -11.356  13.489  67.980  1.00  0.00    -0.318 C  
HETATM    4  C   UNL     1     -12.013  12.805  69.452  1.00  0.00    -0.321 C  
HETATM    5  C   UNL     1     -10.070  15.064  67.558  1.00  0.00    -0.228 C  
HETATM    6  C   UNL     1      -9.319  10.494  64.557  1.00  0.00    -0.299 C  
HETATM    7 CL   UNL     1     -11.049  10.598  67.107  1.00  0.00    -0.319 Cl 
HETATM    8  C   UNL     1     -11.001  14.653  68.452  1.00  0.00    -0.260 C  
HETATM    9  C   UNL     1      -9.512  13.643  69.137  1.00  0.00     0.395 C  
HETATM   10  C   UNL     1     -12.055  15.628  69.102  1.00  0.00    -0.249 C  
HETATM   11  C   UNL     1      -9.555  11.775  63.767  1.00  0.00    -0.177 C  
HETATM   12  O   UNL     1      -7.193   8.939  62.435  1.00  0.00    -0.100 OA 
HETATM   13  C   UNL     1     -10.600  12.647  64.447  1.00  0.00    -0.388 C  
HETATM   14  C   UNL     1      -6.667  10.182  64.418  1.00  0.00    -0.110 C  
HETATM   15  C   UNL     1     -10.137  13.059  65.846  1.00  0.00    -0.291 C  
HETATM   16  C   UNL     1      -8.797  12.452  68.097  1.00  0.00    -0.191 C  
HETATM   17  C   UNL     1      -7.594   9.460  63.465  1.00  0.00    -0.115 C  
HETATM   18  C   UNL     1      -9.504  11.805  66.704  1.00  0.00    -0.215 C  
HETATM   19  C   UNL     1      -8.541   9.394  66.824  1.00  0.00    -0.134 C  
HETATM   20  C   UNL     1      -9.045   9.369  63.870  1.00  0.00    -0.087 C  
HETATM   21  O   UNL     1      -7.507  12.985  67.740  1.00  0.00    -0.116 OA 
HETATM   22  H   UNL     1      -7.115  12.333  67.170  1.00  0.00     0.000 HD 
HETATM   23  C   UNL     1      -8.607  10.705  65.921  1.00  0.00    -0.177 C  
HETATM   24  C   UNL     1      -7.129  10.822  65.524  1.00  0.00     0.025 C  
ENDROOT
BRANCH   5  25
HETATM   25  O   UNL     1     -10.674  16.223  66.758  1.00  0.00    -0.293 OA 
BRANCH  25  26
HETATM   26  C   UNL     1      -9.879  16.941  65.900  1.00  0.00    -0.215 C  
HETATM   27  O   UNL     1      -8.759  16.588  65.561  1.00  0.00    -0.272 OA 
BRANCH  26  28
HETATM   28  C   UNL     1     -10.570  18.221  65.479  1.00  0.00     0.031 C  
HETATM   29  C   UNL     1     -10.302  19.400  66.406  1.00  0.00    -0.575 C  
ENDBRANCH  26  28
ENDBRANCH  25  26
ENDBRANCH   5  25
BRANCH   5  30
HETATM   30  C   UNL     1      -9.405  16.214  68.671  1.00  0.00    -0.222 C  
HETATM   31  O   UNL     1     -10.024  17.155  69.206  1.00  0.00    -0.240 OA 
BRANCH  30  32
HETATM   32  C   UNL     1      -7.940  16.066  69.130  1.00  0.00    -0.238 C  
BRANCH  32  33
HETATM   33  O   UNL     1      -7.256  17.347  69.067  1.00  0.00    -0.251 OA 
BRANCH  33  34
HETATM   34  C   UNL     1      -6.480  17.544  67.961  1.00  0.00    -0.171 C  
HETATM   35  O   UNL     1      -6.040  16.634  67.272  1.00  0.00    -0.133 OA 
BRANCH  34  36
HETATM   36  C   UNL     1      -6.249  19.021  67.697  1.00  0.00    -0.209 C  
HETATM   37  C   UNL     1      -6.972  19.898  68.714  1.00  0.00    -0.352 C  
ENDBRANCH  34  36
ENDBRANCH  33  34
ENDBRANCH  32  33
ENDBRANCH  30  32
ENDBRANCH   5  30
TORSDOF 8
ENDMDL
MODEL       33
REMARK 921   NORMALIZED FREE ENERGY PREDICTED BY IDOCK:   -4.84 KCAL/MOL
REMARK 922        TOTAL FREE ENERGY PREDICTED BY IDOCK:   -6.83 KCAL/MOL
REMARK 923 INTER-LIGAND FREE ENERGY PREDICTED BY IDOCK:   -6.88 KCAL/MOL
REMARK 924 INTRA-LIGAND FREE ENERGY PREDICTED BY IDOCK:    0.04 KCAL/MOL
REMARK 927      BINDING AFFINITY PREDICTED BY RF-SCORE:    0.00 PKD
ROOT
HETATM    1  C   UNL     1      -7.483   9.553  67.246  1.00  0.00    -0.091 C  
HETATM    2  C   UNL     1      -7.196   9.583  65.859  1.00  0.00    -0.096 C  
HETATM    3  C   UNL     1      -8.633   9.699  66.289  1.00  0.00    -0.137 C  
HETATM    4  C   UNL     1      -9.415  10.058  64.764  1.00  0.00    -0.366 C  
HETATM    5  C   UNL     1      -8.920  10.322  68.250  1.00  0.00    -0.132 C  
HETATM    6  C   UNL     1      -7.802   4.958  67.584  1.00  0.00    -0.094 C  
HETATM    7 CL   UNL     1      -8.589   6.839  65.271  1.00  0.00    -0.075 Cl 
HETATM    8  C   UNL     1      -9.051  10.734  66.966  1.00  0.00    -0.155 C  
HETATM    9  C   UNL     1     -10.669   9.696  67.077  1.00  0.00    -0.225 C  
HETATM   10  C   UNL     1      -8.720  12.202  66.499  1.00  0.00    -0.114 C  
HETATM   11  C   UNL     1      -6.873   5.718  68.522  1.00  0.00    -0.063 C  
HETATM   12  O   UNL     1      -7.799   1.955  69.141  1.00  0.00    -0.046 OA 
HETATM   13  C   UNL     1      -6.586   7.114  67.989  1.00  0.00    -0.049 C  
HETATM   14  C   UNL     1      -9.450   3.691  69.264  1.00  0.00    -0.244 C  
HETATM   15  C   UNL     1      -7.877   7.927  67.876  1.00  0.00    -0.127 C  
HETATM   16  C   UNL     1     -10.518   7.994  67.376  1.00  0.00    -0.287 C  
HETATM   17  C   UNL     1      -8.240   2.998  68.678  1.00  0.00    -0.064 C  
HETATM   18  C   UNL     1      -9.109   7.080  67.188  1.00  0.00    -0.137 C  
HETATM   19  C   UNL     1     -10.163   4.833  66.418  1.00  0.00    -0.308 C  
HETATM   20  C   UNL     1      -7.623   3.630  67.456  1.00  0.00    -0.070 C  
HETATM   21  O   UNL     1     -11.004   7.800  68.719  1.00  0.00    -0.420 OA 
HETATM   22  H   UNL     1     -10.922   6.868  68.882  1.00  0.00     0.000 HD 
HETATM   23  C   UNL     1      -9.256   5.504  67.541  1.00  0.00    -0.110 C  
HETATM   24  C   UNL     1      -9.892   4.886  68.794  1.00  0.00    -0.231 C  
ENDROOT
BRANCH   5  25
HETATM   25  O   UNL     1      -7.763  11.109  68.875  1.00  0.00    -0.131 OA 
BRANCH  25  26
HETATM   26  C   UNL     1      -7.128  10.613  69.986  1.00  0.00    -0.087 C  
HETATM   27  O   UNL     1      -7.622   9.778  70.730  1.00  0.00    -0.300 OA 
BRANCH  26  28
HETATM   28  C   UNL     1      -5.775  11.269  70.164  1.00  0.00    -0.120 C  
HETATM   29  C   UNL     1      -5.360  12.153  68.995  1.00  0.00    -0.054 C  
ENDBRANCH  26  28
ENDBRANCH  25  26
ENDBRANCH   5  25
BRANCH   5  30
HETATM   30  C   UNL     1     -10.019  11.530  68.826  1.00  0.00    -0.157 C  
HETATM   31  O   UNL     1      -9.921  12.758  68.632  1.00  0.00    -0.190 OA 
BRANCH  30  32
HETATM   32  C   UNL     1     -11.287  11.099  69.590  1.00  0.00    -0.294 C  
BRANCH  32  33
HETATM   33  O   UNL     1     -10.950  10.151  70.639  1.00  0.00    -0.308 OA 
BRANCH  33  34
HETATM   34  C   UNL     1     -11.946   9.889  71.535  1.00  0.00    -0.390 C  
HETATM   35  O   UNL     1     -12.869  10.658  71.765  1.00  0.00    -0.437 OA 
BRANCH  34  36
HETATM   36  C   UNL     1     -11.766   8.531  72.190  1.00  0.00    -0.448 C  
HETATM   37  C   UNL     1     -10.325   8.041  72.089  1.00  0.00    -0.318 C  
ENDBRANCH  34  36
ENDBRANCH  33  34
ENDBRANCH  32  33
ENDBRANCH  30  32
ENDBRANCH   5  30
TORSDOF 8
ENDMDL
MODEL       34
REMARK 921   NORMALIZED FREE ENERGY PREDICTED BY IDOCK:   -4.83 KCAL/MOL
REMARK 922        TOTAL FREE ENERGY PREDICTED BY IDOCK:   -6.83 KCAL/MOL
REMARK 923 INTER-LIGAND FREE ENERGY PREDICTED BY IDOCK:   -6.57 KCAL/MOL
REMARK 924 INTRA-LIGAND FREE ENERGY PREDICTED BY IDOCK:   -0.26 KCAL/MOL
REMARK 927      BINDING AFFINITY PREDICTED BY RF-SCORE:    0.00 PKD
ROOT
HETATM    1  C   UNL     1      -8.054   9.645  68.861  1.00  0.00    -0.098 C  
HETATM    2  C   UNL     1      -8.717   9.668  70.112  1.00  0.00    -0.263 C  
HETATM    3  C   UNL     1      -9.401   8.984  68.959  1.00  0.00    -0.140 C  
HETATM    4  C   UNL     1     -10.774   8.256  69.765  1.00  0.00    -0.221 C  
HETATM    5  C   UNL     1      -8.146   8.397  67.412  1.00  0.00    -0.106 C  
HETATM    6  C   UNL     1      -9.688  13.696  67.361  1.00  0.00    -0.228 C  
HETATM    7 CL   UNL     1     -11.022  11.545  69.122  1.00  0.00    -0.270 Cl 
HETATM    8  C   UNL     1      -8.898   7.904  68.426  1.00  0.00    -0.130 C  
HETATM    9  C   UNL     1     -10.315   8.174  67.151  1.00  0.00    -0.391 C  
HETATM   10  C   UNL     1      -8.443   6.688  69.318  1.00  0.00    -0.124 C  
HETATM   11  C   UNL     1      -8.187  13.442  67.353  1.00  0.00    -0.188 C  
HETATM   12  O   UNL     1      -9.769  16.499  65.468  1.00  0.00    -0.524 OA 
HETATM   13  C   UNL     1      -7.829  12.270  68.254  1.00  0.00    -0.153 C  
HETATM   14  C   UNL     1     -10.220  14.240  64.798  1.00  0.00    -0.284 C  
HETATM   15  C   UNL     1      -8.506  10.986  67.769  1.00  0.00    -0.122 C  
HETATM   16  C   UNL     1     -10.625   9.796  66.618  1.00  0.00    -0.108 C  
HETATM   17  C   UNL     1      -9.997  15.345  65.806  1.00  0.00    -0.362 C  
HETATM   18  C   UNL     1     -10.091  11.205  67.384  1.00  0.00    -0.213 C  
HETATM   19  C   UNL     1     -12.101  12.763  66.848  1.00  0.00    -0.267 C  
HETATM   20  C   UNL     1     -10.115  14.969  67.261  1.00  0.00    -0.235 C  
HETATM   21  O   UNL     1     -10.186   9.836  65.246  1.00  0.00    -0.311 OA 
HETATM   22  H   UNL     1     -10.356  10.724  64.954  1.00  0.00     0.000 HD 
HETATM   23  C   UNL     1     -10.528  12.591  66.663  1.00  0.00    -0.252 C  
HETATM   24  C   UNL     1     -10.399  12.947  65.176  1.00  0.00    -0.320 C  
ENDROOT
BRANCH   5  25
HETATM   25  O   UNL     1      -6.673   8.198  67.787  1.00  0.00    -0.062 OA 
BRANCH  25  26
HETATM   26  C   UNL     1      -5.698   8.424  66.848  1.00  0.00    -0.041 C  
HETATM   27  O   UNL     1      -5.160   7.535  66.205  1.00  0.00    -0.023 OA 
BRANCH  26  28
HETATM   28  C   UNL     1      -5.374   9.901  66.763  1.00  0.00    -0.045 C  
HETATM   29  C   UNL     1      -5.633  10.512  65.392  1.00  0.00    -0.132 C  
ENDBRANCH  26  28
ENDBRANCH  25  26
ENDBRANCH   5  25
BRANCH   5  30
HETATM   30  C   UNL     1      -8.117   6.870  66.595  1.00  0.00    -0.110 C  
HETATM   31  O   UNL     1      -8.054   5.751  67.141  1.00  0.00    -0.102 OA 
BRANCH  30  32
HETATM   32  C   UNL     1      -8.251   6.829  65.059  1.00  0.00    -0.096 C  
BRANCH  32  33
HETATM   33  O   UNL     1      -8.115   8.165  64.502  1.00  0.00    -0.147 OA 
BRANCH  33  34
HETATM   34  C   UNL     1      -8.053   8.229  63.140  1.00  0.00    -0.142 C  
HETATM   35  O   UNL     1      -8.694   9.027  62.470  1.00  0.00    -0.223 OA 
BRANCH  34  36
HETATM   36  C   UNL     1      -7.086   7.203  62.576  1.00  0.00    -0.070 C  
HETATM   37  C   UNL     1      -5.701   7.798  62.346  1.00  0.00    -0.067 C  
ENDBRANCH  34  36
ENDBRANCH  33  34
ENDBRANCH  32  33
ENDBRANCH  30  32
ENDBRANCH   5  30
TORSDOF 8
ENDMDL
MODEL       35
REMARK 921   NORMALIZED FREE ENERGY PREDICTED BY IDOCK:   -4.74 KCAL/MOL
REMARK 922        TOTAL FREE ENERGY PREDICTED BY IDOCK:   -6.69 KCAL/MOL
REMARK 923 INTER-LIGAND FREE ENERGY PREDICTED BY IDOCK:   -6.67 KCAL/MOL
REMARK 924 INTRA-LIGAND FREE ENERGY PREDICTED BY IDOCK:   -0.02 KCAL/MOL
REMARK 927      BINDING AFFINITY PREDICTED BY RF-SCORE:    0.00 PKD
ROOT
HETATM    1  C   UNL     1     -10.623   6.627  71.107  1.00  0.00    -0.263 C  
HETATM    2  C   UNL     1     -11.207   5.473  71.684  1.00  0.00    -0.135 C  
HETATM    3  C   UNL     1      -9.725   5.675  71.847  1.00  0.00    -0.191 C  
HETATM    4  C   UNL     1      -9.328   4.381  72.959  1.00  0.00    -0.139 C  
HETATM    5  C   UNL     1      -9.069   7.630  71.602  1.00  0.00    -0.134 C  
HETATM    6  C   UNL     1      -9.860   4.770  66.948  1.00  0.00    -0.225 C  
HETATM    7 CL   UNL     1      -9.755   3.482  69.748  1.00  0.00    -0.199 Cl 
HETATM    8  C   UNL     1      -9.257   6.675  72.544  1.00  0.00    -0.144 C  
HETATM    9  C   UNL     1      -7.574   6.042  71.856  1.00  0.00    -0.097 C  
HETATM   10  C   UNL     1      -9.801   6.991  73.988  1.00  0.00    -0.345 C  
HETATM   11  C   UNL     1     -10.620   6.085  67.056  1.00  0.00    -0.385 C  
HETATM   12  O   UNL     1      -9.275   4.758  63.617  1.00  0.00    -0.090 OA 
HETATM   13  C   UNL     1     -11.131   6.303  68.472  1.00  0.00    -0.397 C  
HETATM   14  C   UNL     1      -7.786   5.400  65.384  1.00  0.00    -0.092 C  
HETATM   15  C   UNL     1      -9.968   6.372  69.464  1.00  0.00    -0.190 C  
HETATM   16  C   UNL     1      -7.515   5.548  70.193  1.00  0.00    -0.070 C  
HETATM   17  C   UNL     1      -9.033   4.761  64.815  1.00  0.00    -0.146 C  
HETATM   18  C   UNL     1      -8.851   5.188  69.222  1.00  0.00    -0.115 C  
HETATM   19  C   UNL     1      -7.808   3.319  67.748  1.00  0.00    -0.075 C  
HETATM   20  C   UNL     1      -9.952   4.078  65.797  1.00  0.00    -0.153 C  
HETATM   21  O   UNL     1      -6.732   6.558  69.525  1.00  0.00    -0.049 OA 
HETATM   22  H   UNL     1      -6.700   6.287  68.615  1.00  0.00     0.000 HD 
HETATM   23  C   UNL     1      -8.501   4.753  67.700  1.00  0.00    -0.104 C  
HETATM   24  C   UNL     1      -7.557   5.466  66.722  1.00  0.00    -0.088 C  
ENDROOT
BRANCH   5  25
HETATM   25  O   UNL     1     -10.122   8.720  71.829  1.00  0.00    -0.277 OA 
BRANCH  25  26
HETATM   26  C   UNL     1     -10.432   9.586  70.811  1.00  0.00    -0.314 C  
HETATM   27  O   UNL     1      -9.687   9.817  69.870  1.00  0.00    -0.212 OA 
BRANCH  26  28
HETATM   28  C   UNL     1     -11.786  10.224  71.047  1.00  0.00    -0.461 C  
HETATM   29  C   UNL     1     -12.697   9.416  71.961  1.00  0.00    -0.483 C  
ENDBRANCH  26  28
ENDBRANCH  25  26
ENDBRANCH   5  25
BRANCH   5  30
HETATM   30  C   UNL     1      -7.974   8.514  72.612  1.00  0.00    -0.029 C  
HETATM   31  O   UNL     1      -8.150   8.787  73.816  1.00  0.00    -0.381 OA 
BRANCH  30  32
HETATM   32  C   UNL     1      -6.614   8.964  72.043  1.00  0.00    -0.002 C  
BRANCH  32  33
HETATM   33  O   UNL     1      -6.739   9.300  70.634  1.00  0.00    -0.064 OA 
BRANCH  33  34
HETATM   34  C   UNL     1      -6.368  10.571  70.298  1.00  0.00    -0.137 C  
HETATM   35  O   UNL     1      -5.915  11.377  71.099  1.00  0.00    -0.372 OA 
BRANCH  34  36
HETATM   36  C   UNL     1      -6.577  10.841  68.819  1.00  0.00    -0.054 C  
HETATM   37  C   UNL     1      -6.510   9.560  67.994  1.00  0.00    -0.061 C  
ENDBRANCH  34  36
ENDBRANCH  33  34
ENDBRANCH  32  33
ENDBRANCH  30  32
ENDBRANCH   5  30
TORSDOF 8
ENDMDL
MODEL       36
REMARK 921   NORMALIZED FREE ENERGY PREDICTED BY IDOCK:   -4.70 KCAL/MOL
REMARK 922        TOTAL FREE ENERGY PREDICTED BY IDOCK:   -6.64 KCAL/MOL
REMARK 923 INTER-LIGAND FREE ENERGY PREDICTED BY IDOCK:   -6.33 KCAL/MOL
REMARK 924 INTRA-LIGAND FREE ENERGY PREDICTED BY IDOCK:   -0.31 KCAL/MOL
REMARK 927      BINDING AFFINITY PREDICTED BY RF-SCORE:    0.00 PKD
ROOT
HETATM    1  C   UNL     1      -9.760   4.960  68.243  1.00  0.00    -0.204 C  
HETATM    2  C   UNL     1      -9.567   4.090  67.143  1.00  0.00    -0.231 C  
HETATM    3  C   UNL     1      -8.360   4.502  67.942  1.00  0.00    -0.098 C  
HETATM    4  C   UNL     1      -7.124   3.480  67.239  1.00  0.00    -0.059 C  
HETATM    5  C   UNL     1      -8.765   5.178  69.864  1.00  0.00    -0.103 C  
HETATM    6  C   UNL     1      -9.438   8.887  65.833  1.00  0.00    -0.303 C  
HETATM    7 CL   UNL     1      -7.978   6.197  65.454  1.00  0.00    -0.110 Cl 
HETATM    8  C   UNL     1      -8.224   4.136  69.188  1.00  0.00    -0.078 C  
HETATM    9  C   UNL     1      -6.707   5.319  69.110  1.00  0.00    -0.053 C  
HETATM   10  C   UNL     1      -8.422   2.635  69.625  1.00  0.00    -0.095 C  
HETATM   11  C   UNL     1     -10.649   8.650  66.726  1.00  0.00    -0.223 C  
HETATM   12  O   UNL     1      -9.875  12.180  65.196  1.00  0.00    -0.247 OA 
HETATM   13  C   UNL     1     -10.782   7.177  67.082  1.00  0.00    -0.422 C  
HETATM   14  C   UNL     1      -8.412  11.158  66.799  1.00  0.00    -0.153 C  
HETATM   15  C   UNL     1      -9.552   6.692  67.852  1.00  0.00    -0.121 C  
HETATM   16  C   UNL     1      -6.899   6.825  68.270  1.00  0.00    -0.077 C  
HETATM   17  C   UNL     1      -9.335  11.160  65.601  1.00  0.00    -0.219 C  
HETATM   18  C   UNL     1      -8.137   7.197  67.181  1.00  0.00    -0.114 C  
HETATM   19  C   UNL     1      -6.820   8.741  65.557  1.00  0.00    -0.075 C  
HETATM   20  C   UNL     1      -9.525   9.844  64.890  1.00  0.00    -0.355 C  
HETATM   21  O   UNL     1      -6.885   7.837  69.296  1.00  0.00    -0.046 OA 
HETATM   22  H   UNL     1      -6.990   8.661  68.837  1.00  0.00     0.000 HD 
HETATM   23  C   UNL     1      -8.070   8.685  66.542  1.00  0.00    -0.103 C  
HETATM   24  C   UNL     1      -7.873  10.011  67.290  1.00  0.00    -0.102 C  
ENDROOT
BRANCH   5  25
HETATM   25  O   UNL     1     -10.086   4.699  70.475  1.00  0.00    -0.225 OA 
BRANCH  25  26
HETATM   26  C   UNL     1     -10.772   5.521  71.334  1.00  0.00    -0.221 C  
HETATM   27  O   UNL     1     -10.687   5.447  72.551  1.00  0.00    -0.216 OA 
BRANCH  26  28
HETATM   28  C   UNL     1     -11.656   6.480  70.563  1.00  0.00    -0.455 C  
HETATM   29  C   UNL     1     -12.863   6.973  71.349  1.00  0.00    -0.407 C  
ENDBRANCH  26  28
ENDBRANCH  25  26
ENDBRANCH   5  25
BRANCH   5  30
HETATM   30  C   UNL     1      -7.957   4.738  71.333  1.00  0.00    -0.101 C  
HETATM   31  O   UNL     1      -7.797   3.577  71.758  1.00  0.00    -0.059 OA 
BRANCH  30  32
HETATM   32  C   UNL     1      -7.297   5.834  72.192  1.00  0.00    -0.094 C  
BRANCH  32  33
HETATM   33  O   UNL     1      -7.770   7.149  71.789  1.00  0.00    -0.090 OA 
BRANCH  33  34
HETATM   34  C   UNL     1      -8.270   7.926  72.794  1.00  0.00    -0.144 C  
HETATM   35  O   UNL     1      -7.814   7.941  73.929  1.00  0.00    -0.146 OA 
BRANCH  34  36
HETATM   36  C   UNL     1      -9.443   8.765  72.321  1.00  0.00    -0.246 C  
HETATM   37  C   UNL     1      -9.301   9.160  70.854  1.00  0.00    -0.335 C  
ENDBRANCH  34  36
ENDBRANCH  33  34
ENDBRANCH  32  33
ENDBRANCH  30  32
ENDBRANCH   5  30
TORSDOF 8
ENDMDL
MODEL       37
REMARK 921   NORMALIZED FREE ENERGY PREDICTED BY IDOCK:   -4.67 KCAL/MOL
REMARK 922        TOTAL FREE ENERGY PREDICTED BY IDOCK:   -6.59 KCAL/MOL
REMARK 923 INTER-LIGAND FREE ENERGY PREDICTED BY IDOCK:   -6.46 KCAL/MOL
REMARK 924 INTRA-LIGAND FREE ENERGY PREDICTED BY IDOCK:   -0.12 KCAL/MOL
REMARK 927      BINDING AFFINITY PREDICTED BY RF-SCORE:    0.00 PKD
ROOT
HETATM    1  C   UNL     1      -6.910   8.815  67.719  1.00  0.00    -0.070 C  
HETATM    2  C   UNL     1      -6.016   7.815  67.265  1.00  0.00    -0.048 C  
HETATM    3  C   UNL     1      -7.361   7.920  66.598  1.00  0.00    -0.088 C  
HETATM    4  C   UNL     1      -7.172   6.787  65.277  1.00  0.00    -0.073 C  
HETATM    5  C   UNL     1      -8.311   9.755  66.814  1.00  0.00    -0.124 C  
HETATM    6  C   UNL     1      -8.828   6.280  71.070  1.00  0.00    -0.136 C  
HETATM    7 CL   UNL     1      -7.779   5.438  68.295  1.00  0.00    -0.081 Cl 
HETATM    8  C   UNL     1      -7.683   8.975  65.900  1.00  0.00    -0.094 C  
HETATM    9  C   UNL     1      -9.402   8.110  65.850  1.00  0.00    -0.126 C  
HETATM   10  C   UNL     1      -6.715   9.554  64.800  1.00  0.00    -0.096 C  
HETATM   11  C   UNL     1      -8.256   7.652  71.400  1.00  0.00    -0.102 C  
HETATM   12  O   UNL     1     -10.532   5.704  73.935  1.00  0.00    -0.245 OA 
HETATM   13  C   UNL     1      -7.316   8.127  70.302  1.00  0.00    -0.059 C  
HETATM   14  C   UNL     1     -11.381   6.491  71.834  1.00  0.00    -0.327 C  
HETATM   15  C   UNL     1      -8.059   8.256  68.970  1.00  0.00    -0.117 C  
HETATM   16  C   UNL     1      -9.973   7.362  67.308  1.00  0.00    -0.198 C  
HETATM   17  C   UNL     1     -10.338   5.874  72.739  1.00  0.00    -0.196 C  
HETATM   18  C   UNL     1      -9.025   6.964  68.649  1.00  0.00    -0.129 C  
HETATM   19  C   UNL     1     -10.263   4.811  69.416  1.00  0.00    -0.166 C  
HETATM   20  C   UNL     1      -9.054   5.427  72.087  1.00  0.00    -0.147 C  
HETATM   21  O   UNL     1     -11.064   8.189  67.758  1.00  0.00    -0.484 OA 
HETATM   22  H   UNL     1     -11.377   7.779  68.556  1.00  0.00     0.000 HD 
HETATM   23  C   UNL     1      -9.824   6.270  69.878  1.00  0.00    -0.198 C  
HETATM   24  C   UNL     1     -11.134   6.745  70.522  1.00  0.00    -0.346 C  
ENDROOT
BRANCH   5  25
HETATM   25  O   UNL     1      -7.396  10.948  67.113  1.00  0.00    -0.095 OA 
BRANCH  25  26
HETATM   26  C   UNL     1      -7.782  11.880  68.043  1.00  0.00    -0.132 C  
HETATM   27  O   UNL     1      -8.181  11.593  69.162  1.00  0.00     0.041 OA 
BRANCH  26  28
HETATM   28  C   UNL     1      -7.676  13.279  67.471  1.00  0.00    -0.175 C  
HETATM   29  C   UNL     1      -8.629  14.280  68.109  1.00  0.00    -0.172 C  
ENDBRANCH  26  28
ENDBRANCH  25  26
ENDBRANCH   5  25
BRANCH   5  30
HETATM   30  C   UNL     1      -9.090  10.694  65.584  1.00  0.00    -0.183 C  
HETATM   31  O   UNL     1      -8.747  10.757  64.387  1.00  0.00    -0.164 OA 
BRANCH  30  32
HETATM   32  C   UNL     1     -10.368  11.483  65.929  1.00  0.00    -0.247 C  
BRANCH  32  33
HETATM   33  O   UNL     1     -10.995  10.939  67.123  1.00  0.00    -0.274 OA 
BRANCH  33  34
HETATM   34  C   UNL     1     -11.512  11.861  67.987  1.00  0.00    -0.323 C  
HETATM   35  O   UNL     1     -11.853  12.986  67.651  1.00  0.00    -0.353 OA 
BRANCH  34  36
HETATM   36  C   UNL     1     -11.617  11.308  69.397  1.00  0.00    -0.390 C  
HETATM   37  C   UNL     1     -11.994  12.390  70.403  1.00  0.00    -0.342 C  
ENDBRANCH  34  36
ENDBRANCH  33  34
ENDBRANCH  32  33
ENDBRANCH  30  32
ENDBRANCH   5  30
TORSDOF 8
ENDMDL
MODEL       38
REMARK 921   NORMALIZED FREE ENERGY PREDICTED BY IDOCK:   -4.61 KCAL/MOL
REMARK 922        TOTAL FREE ENERGY PREDICTED BY IDOCK:   -6.50 KCAL/MOL
REMARK 923 INTER-LIGAND FREE ENERGY PREDICTED BY IDOCK:   -6.31 KCAL/MOL
REMARK 924 INTRA-LIGAND FREE ENERGY PREDICTED BY IDOCK:   -0.18 KCAL/MOL
REMARK 927      BINDING AFFINITY PREDICTED BY RF-SCORE:    0.00 PKD
ROOT
HETATM    1  C   UNL     1     -10.500   9.211  68.028  1.00  0.00    -0.276 C  
HETATM    2  C   UNL     1     -10.665   8.962  66.644  1.00  0.00    -0.017 C  
HETATM    3  C   UNL     1      -9.495   8.326  67.345  1.00  0.00    -0.188 C  
HETATM    4  C   UNL     1      -8.874   7.280  66.086  1.00  0.00    -0.181 C  
HETATM    5  C   UNL     1      -9.687   8.161  69.407  1.00  0.00    -0.170 C  
HETATM    6  C   UNL     1      -8.038  13.088  67.544  1.00  0.00    -0.179 C  
HETATM    7 CL   UNL     1      -8.086  10.536  65.814  1.00  0.00    -0.155 Cl 
HETATM    8  C   UNL     1      -9.677   7.423  68.271  1.00  0.00    -0.159 C  
HETATM    9  C   UNL     1      -7.772   7.612  68.480  1.00  0.00    -0.119 C  
HETATM   10  C   UNL     1     -10.638   6.196  68.037  1.00  0.00    -0.334 C  
HETATM   11  C   UNL     1      -9.282  13.093  68.421  1.00  0.00    -0.141 C  
HETATM   12  O   UNL     1      -6.711  16.056  68.476  1.00  0.00    -0.119 OA 
HETATM   13  C   UNL     1     -10.165  11.892  68.119  1.00  0.00    -0.203 C  
HETATM   14  C   UNL     1      -6.111  13.858  69.228  1.00  0.00    -0.098 C  
HETATM   15  C   UNL     1      -9.420  10.585  68.401  1.00  0.00    -0.158 C  
HETATM   16  C   UNL     1      -7.108   9.214  68.418  1.00  0.00    -0.073 C  
HETATM   17  C   UNL     1      -6.792  14.847  68.309  1.00  0.00    -0.119 C  
HETATM   18  C   UNL     1      -7.887  10.583  67.804  1.00  0.00    -0.104 C  
HETATM   19  C   UNL     1      -5.829  11.836  66.830  1.00  0.00    -0.143 C  
HETATM   20  C   UNL     1      -7.546  14.273  67.136  1.00  0.00     0.002 C  
HETATM   21  O   UNL     1      -6.687   9.502  69.766  1.00  0.00    -0.049 OA 
HETATM   22  H   UNL     1      -6.323  10.379  69.732  1.00  0.00     0.000 HD 
HETATM   23  C   UNL     1      -7.026  11.956  67.873  1.00  0.00    -0.085 C  
HETATM   24  C   UNL     1      -6.265  12.517  69.082  1.00  0.00    -0.094 C  
ENDROOT
BRANCH   5  25
HETATM   25  O   UNL     1     -11.121   8.166  69.946  1.00  0.00    -0.212 OA 
BRANCH  25  26
HETATM   26  C   UNL     1     -11.415   8.876  71.083  1.00  0.00    -0.301 C  
HETATM   27  O   UNL     1     -10.646   9.674  71.599  1.00  0.00    -0.199 OA 
BRANCH  26  28
HETATM   28  C   UNL     1     -12.785   8.499  71.607  1.00  0.00    -0.365 C  
HETATM   29  C   UNL     1     -13.117   7.020  71.457  1.00  0.00    -0.395 C  
ENDBRANCH  26  28
ENDBRANCH  25  26
ENDBRANCH   5  25
BRANCH   5  30
HETATM   30  C   UNL     1      -9.348   6.778  70.394  1.00  0.00    -0.163 C  
HETATM   31  O   UNL     1      -9.993   5.711  70.401  1.00  0.00    -0.182 OA 
BRANCH  30  32
HETATM   32  C   UNL     1      -8.108   6.786  71.310  1.00  0.00    -0.111 C  
BRANCH  32  33
HETATM   33  O   UNL     1      -8.459   6.322  72.643  1.00  0.00    -0.123 OA 
BRANCH  33  34
HETATM   34  C   UNL     1      -8.986   7.269  73.474  1.00  0.00    -0.174 C  
HETATM   35  O   UNL     1      -8.429   8.326  73.734  1.00  0.00    -0.248 OA 
BRANCH  34  36
HETATM   36  C   UNL     1     -10.340   6.846  74.014  1.00  0.00    -0.355 C  
HETATM   37  C   UNL     1     -10.610   5.365  73.768  1.00  0.00    -0.325 C  
ENDBRANCH  34  36
ENDBRANCH  33  34
ENDBRANCH  32  33
ENDBRANCH  30  32
ENDBRANCH   5  30
TORSDOF 8
ENDMDL
MODEL       39
REMARK 921   NORMALIZED FREE ENERGY PREDICTED BY IDOCK:   -4.59 KCAL/MOL
REMARK 922        TOTAL FREE ENERGY PREDICTED BY IDOCK:   -6.47 KCAL/MOL
REMARK 923 INTER-LIGAND FREE ENERGY PREDICTED BY IDOCK:   -6.09 KCAL/MOL
REMARK 924 INTRA-LIGAND FREE ENERGY PREDICTED BY IDOCK:   -0.38 KCAL/MOL
REMARK 927      BINDING AFFINITY PREDICTED BY RF-SCORE:    0.00 PKD
ROOT
HETATM    1  C   UNL     1      -8.494   7.467  70.838  1.00  0.00    -0.123 C  
HETATM    2  C   UNL     1      -8.967   7.843  72.119  1.00  0.00    -0.199 C  
HETATM    3  C   UNL     1      -9.923   7.155  71.183  1.00  0.00    -0.187 C  
HETATM    4  C   UNL     1     -11.301   6.900  72.233  1.00  0.00    -0.306 C  
HETATM    5  C   UNL     1      -9.032   6.055  69.664  1.00  0.00    -0.132 C  
HETATM    6  C   UNL     1      -9.431  11.485  68.764  1.00  0.00    -0.099 C  
HETATM    7 CL   UNL     1     -10.941  10.010  71.012  1.00  0.00    -0.355 Cl 
HETATM    8  C   UNL     1      -9.731   5.917  70.816  1.00  0.00    -0.212 C  
HETATM    9  C   UNL     1     -11.215   6.293  69.649  1.00  0.00    -0.506 C  
HETATM   10  C   UNL     1      -9.426   4.790  71.874  1.00  0.00    -0.192 C  
HETATM   11  C   UNL     1      -8.029  10.898  68.666  1.00  0.00    -0.140 C  
HETATM   12  O   UNL     1      -9.174  13.888  66.397  1.00  0.00    -0.242 OA 
HETATM   13  C   UNL     1      -7.809   9.837  69.733  1.00  0.00    -0.159 C  
HETATM   14  C   UNL     1     -10.169  11.714  66.205  1.00  0.00    -0.262 C  
HETATM   15  C   UNL     1      -8.796   8.680  69.561  1.00  0.00    -0.144 C  
HETATM   16  C   UNL     1     -11.248   7.835  68.854  1.00  0.00     0.405 C  
HETATM   17  C   UNL     1      -9.590  12.887  66.964  1.00  0.00    -0.231 C  
HETATM   18  C   UNL     1     -10.337   9.190  69.290  1.00  0.00    -0.223 C  
HETATM   19  C   UNL     1     -12.030  11.057  68.660  1.00  0.00    -0.247 C  
HETATM   20  C   UNL     1      -9.592  12.789  68.469  1.00  0.00    -0.113 C  
HETATM   21  O   UNL     1     -10.994   7.550  67.464  1.00  0.00    -0.502 OA 
HETATM   22  H   UNL     1     -11.012   8.395  67.028  1.00  0.00     0.000 HD 
HETATM   23  C   UNL     1     -10.567  10.503  68.367  1.00  0.00    -0.230 C  
HETATM   24  C   UNL     1     -10.562  10.575  66.833  1.00  0.00    -0.303 C  
ENDROOT
BRANCH   5  25
HETATM   25  O   UNL     1      -7.597   5.588  69.932  1.00  0.00    -0.071 OA 
BRANCH  25  26
HETATM   26  C   UNL     1      -6.680   5.597  68.911  1.00  0.00    -0.053 C  
HETATM   27  O   UNL     1      -6.640   6.460  68.046  1.00  0.00    -0.060 OA 
BRANCH  26  28
HETATM   28  C   UNL     1      -5.774   4.387  68.999  1.00  0.00    -0.017 C  
HETATM   29  C   UNL     1      -5.960   3.568  70.269  1.00  0.00    -0.018 C  
ENDBRANCH  26  28
ENDBRANCH  25  26
ENDBRANCH   5  25
BRANCH   5  30
HETATM   30  C   UNL     1      -9.429   4.449  69.147  1.00  0.00    -0.170 C  
HETATM   31  O   UNL     1      -9.719   3.493  69.893  1.00  0.00    -0.176 OA 
BRANCH  30  32
HETATM   32  C   UNL     1      -9.517   4.138  67.639  1.00  0.00    -0.180 C  
BRANCH  32  33
HETATM   33  O   UNL     1      -9.400   5.361  66.861  1.00  0.00    -0.121 OA 
BRANCH  33  34
HETATM   34  C   UNL     1      -9.189   5.187  65.523  1.00  0.00    -0.136 C  
HETATM   35  O   UNL     1      -9.775   4.351  64.849  1.00  0.00    -0.168 OA 
BRANCH  34  36
HETATM   36  C   UNL     1      -8.156   6.163  64.989  1.00  0.00    -0.133 C  
HETATM   37  C   UNL     1      -8.518   7.607  65.318  1.00  0.00    -0.090 C  
ENDBRANCH  34  36
ENDBRANCH  33  34
ENDBRANCH  32  33
ENDBRANCH  30  32
ENDBRANCH   5  30
TORSDOF 8
ENDMDL
MODEL       40
REMARK 921   NORMALIZED FREE ENERGY PREDICTED BY IDOCK:   -4.56 KCAL/MOL
REMARK 922        TOTAL FREE ENERGY PREDICTED BY IDOCK:   -6.43 KCAL/MOL
REMARK 923 INTER-LIGAND FREE ENERGY PREDICTED BY IDOCK:   -5.94 KCAL/MOL
REMARK 924 INTRA-LIGAND FREE ENERGY PREDICTED BY IDOCK:   -0.49 KCAL/MOL
REMARK 927      BINDING AFFINITY PREDICTED BY RF-SCORE:    0.00 PKD
ROOT
HETATM    1  C   UNL     1      -9.479   7.473  72.027  1.00  0.00    -0.174 C  
HETATM    2  C   UNL     1     -10.535   8.212  72.613  1.00  0.00    -0.401 C  
HETATM    3  C   UNL     1     -10.867   7.276  71.482  1.00  0.00    -0.248 C  
HETATM    4  C   UNL     1     -12.617   7.343  71.490  1.00  0.00    -0.401 C  
HETATM    5  C   UNL     1      -9.472   5.775  71.143  1.00  0.00    -0.158 C  
HETATM    6  C   UNL     1      -8.275  10.692  68.943  1.00  0.00    -0.145 C  
HETATM    7 CL   UNL     1     -11.052   9.951  70.059  1.00  0.00    -0.307 Cl 
HETATM    8  C   UNL     1     -10.725   5.985  71.615  1.00  0.00    -0.303 C  
HETATM    9  C   UNL     1     -11.145   5.996  69.736  1.00  0.00    -0.476 C  
HETATM   10  C   UNL     1     -11.309   5.224  72.865  1.00  0.00    -0.368 C  
HETATM   11  C   UNL     1      -7.217  10.104  69.866  1.00  0.00    -0.155 C  
HETATM   12  O   UNL     1      -6.249  12.284  66.750  1.00  0.00    -0.185 OA 
HETATM   13  C   UNL     1      -7.861   9.408  71.056  1.00  0.00    -0.020 C  
HETATM   14  C   UNL     1      -7.318  10.150  66.507  1.00  0.00    -0.108 C  
HETATM   15  C   UNL     1      -8.749   8.251  70.593  1.00  0.00    -0.144 C  
HETATM   16  C   UNL     1     -10.425   7.232  68.754  1.00  0.00    -0.200 C  
HETATM   17  C   UNL     1      -7.092  11.496  67.157  1.00  0.00    -0.140 C  
HETATM   18  C   UNL     1      -9.715   8.656  69.323  1.00  0.00    -0.173 C  
HETATM   19  C   UNL     1     -10.345  10.250  67.370  1.00  0.00    -0.282 C  
HETATM   20  C   UNL     1      -7.993  11.849  68.314  1.00  0.00    -0.148 C  
HETATM   21  O   UNL     1      -9.462   6.548  67.929  1.00  0.00    -0.122 OA 
HETATM   22  H   UNL     1      -9.068   7.224  67.391  1.00  0.00     0.000 HD 
HETATM   23  C   UNL     1      -9.117   9.635  68.177  1.00  0.00    -0.123 C  
HETATM   24  C   UNL     1      -8.202   9.248  67.007  1.00  0.00    -0.116 C  
ENDROOT
BRANCH   5  25
HETATM   25  O   UNL     1      -8.581   5.411  72.335  1.00  0.00    -0.121 OA 
BRANCH  25  26
HETATM   26  C   UNL     1      -7.377   4.790  72.115  1.00  0.00    -0.081 C  
HETATM   27  O   UNL     1      -7.110   3.669  72.523  1.00  0.00    -0.044 OA 
BRANCH  26  28
HETATM   28  C   UNL     1      -6.442   5.699  71.345  1.00  0.00    -0.044 C  
HETATM   29  C   UNL     1      -5.719   6.719  72.214  1.00  0.00    -0.038 C  
ENDBRANCH  26  28
ENDBRANCH  25  26
ENDBRANCH   5  25
BRANCH   5  30
HETATM   30  C   UNL     1      -9.775   4.088  70.887  1.00  0.00    -0.187 C  
HETATM   31  O   UNL     1     -10.268   3.301  71.718  1.00  0.00    -0.110 OA 
BRANCH  30  32
HETATM   32  C   UNL     1      -9.494   3.469  69.503  1.00  0.00    -0.165 C  
BRANCH  32  33
HETATM   33  O   UNL     1      -8.386   4.152  68.856  1.00  0.00    -0.077 OA 
BRANCH  33  34
HETATM   34  C   UNL     1      -7.309   3.369  68.554  1.00  0.00    -0.050 C  
HETATM   35  O   UNL     1      -6.796   2.591  69.346  1.00  0.00    -0.033 OA 
BRANCH  34  36
HETATM   36  C   UNL     1      -6.848   3.581  67.124  1.00  0.00    -0.050 C  
HETATM   37  C   UNL     1      -6.409   5.020  66.877  1.00  0.00    -0.040 C  
ENDBRANCH  34  36
ENDBRANCH  33  34
ENDBRANCH  32  33
ENDBRANCH  30  32
ENDBRANCH   5  30
TORSDOF 8
ENDMDL
MODEL       41
REMARK 921   NORMALIZED FREE ENERGY PREDICTED BY IDOCK:   -4.49 KCAL/MOL
REMARK 922        TOTAL FREE ENERGY PREDICTED BY IDOCK:   -6.32 KCAL/MOL
REMARK 923 INTER-LIGAND FREE ENERGY PREDICTED BY IDOCK:   -6.72 KCAL/MOL
REMARK 924 INTRA-LIGAND FREE ENERGY PREDICTED BY IDOCK:    0.40 KCAL/MOL
REMARK 927      BINDING AFFINITY PREDICTED BY RF-SCORE:    0.00 PKD
ROOT
HETATM    1  C   UNL     1      -8.299  11.074  67.803  1.00  0.00    -0.118 C  
HETATM    2  C   UNL     1      -9.153  10.703  68.871  1.00  0.00    -0.181 C  
HETATM    3  C   UNL     1      -9.752  10.840  67.497  1.00  0.00    -0.188 C  
HETATM    4  C   UNL     1     -11.371  10.233  67.773  1.00  0.00    -0.137 C  
HETATM    5  C   UNL     1      -8.400  10.707  65.927  1.00  0.00    -0.161 C  
HETATM    6  C   UNL     1      -8.726  15.635  68.392  1.00  0.00    -0.178 C  
HETATM    7 CL   UNL     1     -10.784  13.376  68.807  1.00  0.00    -0.266 Cl 
HETATM    8  C   UNL     1      -9.408  10.033  66.531  1.00  0.00    -0.201 C  
HETATM    9  C   UNL     1     -10.484  11.235  65.479  1.00  0.00    -0.323 C  
HETATM   10  C   UNL     1      -9.393   8.471  66.736  1.00  0.00    -0.232 C  
HETATM   11  C   UNL     1      -7.338  15.011  68.337  1.00  0.00    -0.112 C  
HETATM   12  O   UNL     1      -7.862  18.893  68.108  1.00  0.00    -0.277 OA 
HETATM   13  C   UNL     1      -7.408  13.509  68.568  1.00  0.00    -0.114 C  
HETATM   14  C   UNL     1      -8.664  17.414  66.398  1.00  0.00    -0.275 C  
HETATM   15  C   UNL     1      -8.249  12.832  67.484  1.00  0.00    -0.179 C  
HETATM   16  C   UNL     1     -10.337  12.936  65.792  1.00  0.00    -0.284 C  
HETATM   17  C   UNL     1      -8.390  17.826  67.827  1.00  0.00    -0.235 C  
HETATM   18  C   UNL     1      -9.655  13.629  67.175  1.00  0.00    -0.241 C  
HETATM   19  C   UNL     1     -11.153  15.744  67.366  1.00  0.00    -0.235 C  
HETATM   20  C   UNL     1      -8.843  16.874  68.905  1.00  0.00    -0.216 C  
HETATM   21  O   UNL     1      -9.663  13.477  64.639  1.00  0.00    -0.586 OA 
HETATM   22  H   UNL     1      -9.582  14.408  64.810  1.00  0.00     0.000 HD 
HETATM   23  C   UNL     1      -9.648  15.251  67.202  1.00  0.00    -0.223 C  
HETATM   24  C   UNL     1      -9.183  16.198  66.087  1.00  0.00    -0.382 C  
ENDROOT
BRANCH   5  25
HETATM   25  O   UNL     1      -7.095   9.962  66.232  1.00  0.00    -0.094 OA 
BRANCH  25  26
HETATM   26  C   UNL     1      -5.912  10.656  66.271  1.00  0.00    -0.106 C  
HETATM   27  O   UNL     1      -5.544  11.416  65.386  1.00  0.00    -0.085 OA 
BRANCH  26  28
HETATM   28  C   UNL     1      -5.136  10.315  67.526  1.00  0.00    -0.037 C  
HETATM   29  C   UNL     1      -5.516   8.975  68.142  1.00  0.00    -0.038 C  
ENDBRANCH  26  28
ENDBRANCH  25  26
ENDBRANCH   5  25
BRANCH   5  30
HETATM   30  C   UNL     1      -8.557   9.783  64.470  1.00  0.00    -0.184 C  
HETATM   31  O   UNL     1      -9.490   9.869  63.648  1.00  0.00    -0.262 OA 
BRANCH  30  32
HETATM   32  C   UNL     1      -7.436   8.803  64.069  1.00  0.00    -0.116 C  
BRANCH  32  33
HETATM   33  O   UNL     1      -8.002   7.564  63.561  1.00  0.00    -0.128 OA 
BRANCH  33  34
HETATM   34  C   UNL     1      -7.678   6.439  64.264  1.00  0.00    -0.108 C  
HETATM   35  O   UNL     1      -8.304   5.391  64.190  1.00  0.00    -0.133 OA 
BRANCH  34  36
HETATM   36  C   UNL     1      -6.448   6.655  65.128  1.00  0.00    -0.042 C  
HETATM   37  C   UNL     1      -6.330   5.596  66.219  1.00  0.00    -0.039 C  
ENDBRANCH  34  36
ENDBRANCH  33  34
ENDBRANCH  32  33
ENDBRANCH  30  32
ENDBRANCH   5  30
TORSDOF 8
ENDMDL
MODEL       42
REMARK 921   NORMALIZED FREE ENERGY PREDICTED BY IDOCK:   -4.44 KCAL/MOL
REMARK 922        TOTAL FREE ENERGY PREDICTED BY IDOCK:   -6.25 KCAL/MOL
REMARK 923 INTER-LIGAND FREE ENERGY PREDICTED BY IDOCK:   -7.02 KCAL/MOL
REMARK 924 INTRA-LIGAND FREE ENERGY PREDICTED BY IDOCK:    0.76 KCAL/MOL
REMARK 927      BINDING AFFINITY PREDICTED BY RF-SCORE:    0.00 PKD
ROOT
HETATM    1  C   UNL     1      -7.829   8.646  69.343  1.00  0.00    -0.096 C  
HETATM    2  C   UNL     1      -6.423   8.718  69.499  1.00  0.00    -0.044 C  
HETATM    3  C   UNL     1      -7.028   9.284  68.242  1.00  0.00    -0.072 C  
HETATM    4  C   UNL     1      -5.633  10.051  67.511  1.00  0.00    -0.042 C  
HETATM    5  C   UNL     1      -9.045   9.761  68.372  1.00  0.00    -0.123 C  
HETATM    6  C   UNL     1      -7.900   4.446  67.425  1.00  0.00    -0.096 C  
HETATM    7 CL   UNL     1      -5.826   6.713  67.167  1.00  0.00    -0.013 Cl 
HETATM    8  C   UNL     1      -7.816  10.324  68.286  1.00  0.00    -0.101 C  
HETATM    9  C   UNL     1      -8.051   9.913  66.420  1.00  0.00    -0.118 C  
HETATM   10  C   UNL     1      -7.411  11.623  69.080  1.00  0.00    -0.074 C  
HETATM   11  C   UNL     1      -8.768   4.730  68.643  1.00  0.00    -0.111 C  
HETATM   12  O   UNL     1      -9.244   1.487  66.485  1.00  0.00    -0.077 OA 
HETATM   13  C   UNL     1      -8.298   5.984  69.364  1.00  0.00    -0.115 C  
HETATM   14  C   UNL     1      -9.678   3.669  65.586  1.00  0.00    -0.108 C  
HETATM   15  C   UNL     1      -8.393   7.206  68.448  1.00  0.00    -0.125 C  
HETATM   16  C   UNL     1      -8.217   8.245  65.974  1.00  0.00    -0.119 C  
HETATM   17  C   UNL     1      -8.908   2.661  66.409  1.00  0.00    -0.131 C  
HETATM   18  C   UNL     1      -7.803   6.920  66.938  1.00  0.00    -0.107 C  
HETATM   19  C   UNL     1      -7.018   5.278  65.083  1.00  0.00    -0.061 C  
HETATM   20  C   UNL     1      -7.664   3.160  67.102  1.00  0.00    -0.075 C  
HETATM   21  O   UNL     1      -9.593   8.095  65.571  1.00  0.00    -0.394 OA 
HETATM   22  H   UNL     1      -9.684   7.181  65.326  1.00  0.00     0.000 HD 
HETATM   23  C   UNL     1      -8.067   5.467  66.266  1.00  0.00    -0.106 C  
HETATM   24  C   UNL     1      -9.343   4.985  65.564  1.00  0.00    -0.149 C  
ENDROOT
BRANCH   5  25
HETATM   25  O   UNL     1      -9.578  10.023  69.785  1.00  0.00    -0.222 OA 
BRANCH  25  26
HETATM   26  C   UNL     1     -10.798   9.513  70.154  1.00  0.00    -0.258 C  
HETATM   27  O   UNL     1     -11.140   8.359  69.940  1.00  0.00    -0.216 OA 
BRANCH  26  28
HETATM   28  C   UNL     1     -11.644  10.581  70.815  1.00  0.00    -0.432 C  
HETATM   29  C   UNL     1     -13.002  10.084  71.294  1.00  0.00    -0.495 C  
ENDBRANCH  26  28
ENDBRANCH  25  26
ENDBRANCH   5  25
BRANCH   5  30
HETATM   30  C   UNL     1      -9.827  11.211  67.836  1.00  0.00    -0.174 C  
HETATM   31  O   UNL     1      -9.654  12.351  68.310  1.00  0.00    -0.212 OA 
BRANCH  30  32
HETATM   32  C   UNL     1     -10.775  11.156  66.621  1.00  0.00    -0.269 C  
BRANCH  32  33
HETATM   33  O   UNL     1     -12.017  11.853  66.915  1.00  0.00    -0.614 OA 
BRANCH  33  34
HETATM   34  C   UNL     1     -12.135  13.098  66.368  1.00  0.00    -0.382 C  
HETATM   35  O   UNL     1     -12.298  14.115  67.028  1.00  0.00    -0.396 OA 
BRANCH  34  36
HETATM   36  C   UNL     1     -12.026  13.056  64.854  1.00  0.00    -0.441 C  
HETATM   37  C   UNL     1     -12.280  14.424  64.230  1.00  0.00    -0.450 C  
ENDBRANCH  34  36
ENDBRANCH  33  34
ENDBRANCH  32  33
ENDBRANCH  30  32
ENDBRANCH   5  30
TORSDOF 8
ENDMDL
MODEL       43
REMARK 921   NORMALIZED FREE ENERGY PREDICTED BY IDOCK:   -4.39 KCAL/MOL
REMARK 922        TOTAL FREE ENERGY PREDICTED BY IDOCK:   -6.18 KCAL/MOL
REMARK 923 INTER-LIGAND FREE ENERGY PREDICTED BY IDOCK:   -6.81 KCAL/MOL
REMARK 924 INTRA-LIGAND FREE ENERGY PREDICTED BY IDOCK:    0.63 KCAL/MOL
REMARK 927      BINDING AFFINITY PREDICTED BY RF-SCORE:    0.00 PKD
ROOT
HETATM    1  C   UNL     1      -8.213   6.437  68.339  1.00  0.00    -0.113 C  
HETATM    2  C   UNL     1      -7.258   6.198  67.321  1.00  0.00    -0.075 C  
HETATM    3  C   UNL     1      -6.847   7.044  68.495  1.00  0.00    -0.073 C  
HETATM    4  C   UNL     1      -5.133   7.238  68.189  1.00  0.00    -0.023 C  
HETATM    5  C   UNL     1      -7.996   6.796  70.207  1.00  0.00    -0.115 C  
HETATM    6  C   UNL     1     -10.104  10.167  66.379  1.00  0.00    -0.300 C  
HETATM    7 CL   UNL     1      -7.182   9.181  66.366  1.00  0.00    -0.090 Cl 
HETATM    8  C   UNL     1      -6.769   6.535  69.695  1.00  0.00    -0.050 C  
HETATM    9  C   UNL     1      -6.468   8.373  70.185  1.00  0.00    -0.038 C  
HETATM   10  C   UNL     1      -5.997   5.189  69.963  1.00  0.00    -0.018 C  
HETATM   11  C   UNL     1     -10.996   9.010  66.807  1.00  0.00     0.286 C  
HETATM   12  O   UNL     1     -12.486  12.499  65.807  1.00  0.00    -0.626 OA 
HETATM   13  C   UNL     1     -10.178   7.745  67.022  1.00  0.00    -0.375 C  
HETATM   14  C   UNL     1     -11.102  12.235  67.748  1.00  0.00    -0.304 C  
HETATM   15  C   UNL     1      -9.143   7.949  68.130  1.00  0.00    -0.133 C  
HETATM   16  C   UNL     1      -7.435   9.586  69.409  1.00  0.00    -0.088 C  
HETATM   17  C   UNL     1     -11.505  11.974  66.314  1.00  0.00    -0.345 C  
HETATM   18  C   UNL     1      -8.333   9.375  67.992  1.00  0.00    -0.119 C  
HETATM   19  C   UNL     1      -8.086  11.755  66.979  1.00  0.00    -0.169 C  
HETATM   20  C   UNL     1     -10.606  11.066  65.512  1.00  0.00    -0.267 C  
HETATM   21  O   UNL     1      -8.322  10.077  70.433  1.00  0.00    -0.349 OA 
HETATM   22  H   UNL     1      -8.852  10.741  70.008  1.00  0.00     0.000 HD 
HETATM   23  C   UNL     1      -9.148  10.684  67.490  1.00  0.00    -0.144 C  
HETATM   24  C   UNL     1     -10.055  11.593  68.329  1.00  0.00    -0.206 C  
ENDROOT
BRANCH   5  25
HETATM   25  O   UNL     1      -8.745   5.463  70.319  1.00  0.00    -0.123 OA 
BRANCH  25  26
HETATM   26  C   UNL     1     -10.021   5.444  70.825  1.00  0.00    -0.204 C  
HETATM   27  O   UNL     1     -10.947   6.083  70.348  1.00  0.00    -0.293 OA 
BRANCH  26  28
HETATM   28  C   UNL     1     -10.093   4.562  72.055  1.00  0.00    -0.264 C  
HETATM   29  C   UNL     1     -11.311   4.822  72.930  1.00  0.00    -0.258 C  
ENDBRANCH  26  28
ENDBRANCH  25  26
ENDBRANCH   5  25
BRANCH   5  30
HETATM   30  C   UNL     1      -7.440   6.590  71.835  1.00  0.00    -0.092 C  
HETATM   31  O   UNL     1      -6.513   5.842  72.200  1.00  0.00    -0.050 OA 
BRANCH  30  32
HETATM   32  C   UNL     1      -8.064   7.438  72.961  1.00  0.00    -0.105 C  
BRANCH  32  33
HETATM   33  O   UNL     1      -8.840   8.534  72.402  1.00  0.00    -0.234 OA 
BRANCH  33  34
HETATM   34  C   UNL     1     -10.191   8.446  72.579  1.00  0.00    -0.299 C  
HETATM   35  O   UNL     1     -10.716   7.784  73.463  1.00  0.00    -0.292 OA 
BRANCH  34  36
HETATM   36  C   UNL     1     -10.943   9.277  71.555  1.00  0.00    -0.446 C  
HETATM   37  C   UNL     1     -12.442   8.996  71.589  1.00  0.00    -0.418 C  
ENDBRANCH  34  36
ENDBRANCH  33  34
ENDBRANCH  32  33
ENDBRANCH  30  32
ENDBRANCH   5  30
TORSDOF 8
ENDMDL
MODEL       44
REMARK 921   NORMALIZED FREE ENERGY PREDICTED BY IDOCK:   -4.39 KCAL/MOL
REMARK 922        TOTAL FREE ENERGY PREDICTED BY IDOCK:   -6.18 KCAL/MOL
REMARK 923 INTER-LIGAND FREE ENERGY PREDICTED BY IDOCK:   -6.06 KCAL/MOL
REMARK 924 INTRA-LIGAND FREE ENERGY PREDICTED BY IDOCK:   -0.12 KCAL/MOL
REMARK 927      BINDING AFFINITY PREDICTED BY RF-SCORE:    0.00 PKD
ROOT
HETATM    1  C   UNL     1     -10.537   7.070  68.438  1.00  0.00    -0.240 C  
HETATM    2  C   UNL     1     -10.972   6.617  67.168  1.00  0.00    -0.478 C  
HETATM    3  C   UNL     1      -9.505   6.526  67.489  1.00  0.00    -0.131 C  
HETATM    4  C   UNL     1      -8.912   5.629  66.107  1.00  0.00    -0.153 C  
HETATM    5  C   UNL     1      -9.042   6.548  69.514  1.00  0.00    -0.140 C  
HETATM    6  C   UNL     1      -9.943  11.483  67.213  1.00  0.00    -0.212 C  
HETATM    7 CL   UNL     1      -9.509   8.896  65.592  1.00  0.00    -0.274 Cl 
HETATM    8  C   UNL     1      -9.071   5.733  68.432  1.00  0.00    -0.118 C  
HETATM    9  C   UNL     1      -7.399   6.611  68.057  1.00  0.00    -0.097 C  
HETATM   10  C   UNL     1      -9.526   4.227  68.505  1.00  0.00    -0.216 C  
HETATM   11  C   UNL     1     -10.804  11.149  68.423  1.00  0.00    -0.248 C  
HETATM   12  O   UNL     1      -9.622  14.817  67.685  1.00  0.00    -0.206 OA 
HETATM   13  C   UNL     1     -11.219   9.685  68.408  1.00  0.00    -0.004 C  
HETATM   14  C   UNL     1      -8.060  13.081  68.235  1.00  0.00    -0.151 C  
HETATM   15  C   UNL     1      -9.992   8.772  68.460  1.00  0.00    -0.200 C  
HETATM   16  C   UNL     1      -7.428   8.325  67.789  1.00  0.00    -0.094 C  
HETATM   17  C   UNL     1      -9.288  13.647  67.558  1.00  0.00    -0.223 C  
HETATM   18  C   UNL     1      -8.799   9.245  67.430  1.00  0.00    -0.124 C  
HETATM   19  C   UNL     1      -7.718  11.024  65.875  1.00  0.00    -0.012 C  
HETATM   20  C   UNL     1     -10.065  12.709  66.669  1.00  0.00    -0.248 C  
HETATM   21  O   UNL     1      -6.790   8.901  68.946  1.00  0.00    -0.059 OA 
HETATM   22  H   UNL     1      -6.806   9.839  68.799  1.00  0.00     0.000 HD 
HETATM   23  C   UNL     1      -8.533  10.832  67.229  1.00  0.00    -0.124 C  
HETATM   24  C   UNL     1      -7.734  11.765  68.150  1.00  0.00    -0.124 C  
ENDROOT
BRANCH   5  25
HETATM   25  O   UNL     1     -10.164   6.106  70.459  1.00  0.00    -0.186 OA 
BRANCH  25  26
HETATM   26  C   UNL     1     -10.614   6.969  71.427  1.00  0.00    -0.217 C  
HETATM   27  O   UNL     1      -9.940   7.880  71.886  1.00  0.00    -0.165 OA 
BRANCH  26  28
HETATM   28  C   UNL     1     -12.021   6.605  71.852  1.00  0.00    -0.386 C  
HETATM   29  C   UNL     1     -13.109   7.274  71.023  1.00  0.00    -0.203 C  
ENDBRANCH  26  28
ENDBRANCH  25  26
ENDBRANCH   5  25
BRANCH   5  30
HETATM   30  C   UNL     1      -7.951   5.502  70.361  1.00  0.00    -0.102 C  
HETATM   31  O   UNL     1      -7.683   4.324  70.055  1.00  0.00    -0.052 OA 
BRANCH  30  32
HETATM   32  C   UNL     1      -7.159   6.049  71.566  1.00  0.00    -0.078 C  
BRANCH  32  33
HETATM   33  O   UNL     1      -6.612   7.361  71.261  1.00  0.00    -0.043 OA 
BRANCH  33  34
HETATM   34  C   UNL     1      -6.607   8.250  72.298  1.00  0.00    -0.080 C  
HETATM   35  O   UNL     1      -6.514   9.460  72.150  1.00  0.00    -0.299 OA 
BRANCH  34  36
HETATM   36  C   UNL     1      -6.740   7.547  73.637  1.00  0.00    -0.080 C  
HETATM   37  C   UNL     1      -7.728   8.261  74.554  1.00  0.00    -0.298 C  
ENDBRANCH  34  36
ENDBRANCH  33  34
ENDBRANCH  32  33
ENDBRANCH  30  32
ENDBRANCH   5  30
TORSDOF 8
ENDMDL
MODEL       45
REMARK 921   NORMALIZED FREE ENERGY PREDICTED BY IDOCK:   -4.39 KCAL/MOL
REMARK 922        TOTAL FREE ENERGY PREDICTED BY IDOCK:   -6.18 KCAL/MOL
REMARK 923 INTER-LIGAND FREE ENERGY PREDICTED BY IDOCK:   -6.98 KCAL/MOL
REMARK 924 INTRA-LIGAND FREE ENERGY PREDICTED BY IDOCK:    0.80 KCAL/MOL
REMARK 927      BINDING AFFINITY PREDICTED BY RF-SCORE:    0.00 PKD
ROOT
HETATM    1  C   UNL     1     -10.698   9.323  68.122  1.00  0.00    -0.205 C  
HETATM    2  C   UNL     1     -10.559   8.912  66.774  1.00  0.00    -0.212 C  
HETATM    3  C   UNL     1      -9.357   8.812  67.673  1.00  0.00    -0.157 C  
HETATM    4  C   UNL     1      -8.230   7.961  66.637  1.00  0.00    -0.119 C  
HETATM    5  C   UNL     1      -9.778   8.767  69.706  1.00  0.00    -0.177 C  
HETATM    6  C   UNL     1      -9.714  13.775  67.386  1.00  0.00    -0.235 C  
HETATM    7 CL   UNL     1      -8.607  11.243  66.017  1.00  0.00    -0.162 Cl 
HETATM    8  C   UNL     1      -9.344   7.989  68.686  1.00  0.00    -0.146 C  
HETATM    9  C   UNL     1      -7.680   8.880  69.068  1.00  0.00    -0.090 C  
HETATM   10  C   UNL     1      -9.766   6.480  68.519  1.00  0.00    -0.129 C  
HETATM   11  C   UNL     1     -10.995  13.400  68.119  1.00  0.00    -0.277 C  
HETATM   12  O   UNL     1      -9.667  17.092  68.049  1.00  0.00    -0.248 OA 
HETATM   13  C   UNL     1     -11.344  11.937  67.888  1.00  0.00    -0.358 C  
HETATM   14  C   UNL     1      -8.450  15.340  69.147  1.00  0.00    -0.234 C  
HETATM   15  C   UNL     1     -10.237  11.024  68.419  1.00  0.00    -0.198 C  
HETATM   16  C   UNL     1      -7.619  10.602  68.863  1.00  0.00    -0.113 C  
HETATM   17  C   UNL     1      -9.293  15.927  68.037  1.00  0.00    -0.201 C  
HETATM   18  C   UNL     1      -8.731  11.532  67.994  1.00  0.00    -0.151 C  
HETATM   19  C   UNL     1      -7.127  13.362  67.083  1.00  0.00     0.184 C  
HETATM   20  C   UNL     1      -9.616  15.018  66.878  1.00  0.00    -0.251 C  
HETATM   21  O   UNL     1      -7.530  11.139  70.198  1.00  0.00    -0.373 OA 
HETATM   22  H   UNL     1      -7.496  12.082  70.086  1.00  0.00     0.000 HD 
HETATM   23  C   UNL     1      -8.429  13.125  67.969  1.00  0.00    -0.181 C  
HETATM   24  C   UNL     1      -8.099  14.028  69.166  1.00  0.00     0.186 C  
ENDROOT
BRANCH   5  25
HETATM   25  O   UNL     1     -11.185   8.293  70.085  1.00  0.00    -0.231 OA 
BRANCH  25  26
HETATM   26  C   UNL     1     -11.734   8.687  71.280  1.00  0.00    -0.289 C  
HETATM   27  O   UNL     1     -12.211   7.910  72.094  1.00  0.00    -0.309 OA 
BRANCH  26  28
HETATM   28  C   UNL     1     -11.694  10.196  71.412  1.00  0.00    -0.373 C  
HETATM   29  C   UNL     1     -13.065  10.856  71.356  1.00  0.00    -0.457 C  
ENDBRANCH  26  28
ENDBRANCH  25  26
ENDBRANCH   5  25
BRANCH   5  30
HETATM   30  C   UNL     1      -9.124   7.695  70.900  1.00  0.00    -0.149 C  
HETATM   31  O   UNL     1      -8.577   8.037  71.967  1.00  0.00    -0.121 OA 
BRANCH  30  32
HETATM   32  C   UNL     1      -9.267   6.172  70.710  1.00  0.00    -0.154 C  
BRANCH  32  33
HETATM   33  O   UNL     1      -9.569   5.529  71.979  1.00  0.00    -0.150 OA 
BRANCH  33  34
HETATM   34  C   UNL     1     -10.071   4.262  71.889  1.00  0.00    -0.167 C  
HETATM   35  O   UNL     1      -9.963   3.560  70.894  1.00  0.00    -0.131 OA 
BRANCH  34  36
HETATM   36  C   UNL     1     -10.761   3.843  73.175  1.00  0.00    -0.270 C  
HETATM   37  C   UNL     1     -10.421   4.778  74.331  1.00  0.00    -0.331 C  
ENDBRANCH  34  36
ENDBRANCH  33  34
ENDBRANCH  32  33
ENDBRANCH  30  32
ENDBRANCH   5  30
TORSDOF 8
ENDMDL
MODEL       46
REMARK 921   NORMALIZED FREE ENERGY PREDICTED BY IDOCK:   -4.38 KCAL/MOL
REMARK 922        TOTAL FREE ENERGY PREDICTED BY IDOCK:   -6.17 KCAL/MOL
REMARK 923 INTER-LIGAND FREE ENERGY PREDICTED BY IDOCK:   -7.69 KCAL/MOL
REMARK 924 INTRA-LIGAND FREE ENERGY PREDICTED BY IDOCK:    1.52 KCAL/MOL
REMARK 927      BINDING AFFINITY PREDICTED BY RF-SCORE:    0.00 PKD
ROOT
HETATM    1  C   UNL     1      -9.853  13.130  66.128  1.00  0.00    -0.284 C  
HETATM    2  C   UNL     1      -8.539  12.785  65.728  1.00  0.00     1.018 C  
HETATM    3  C   UNL     1      -8.886  12.684  67.189  1.00  0.00    -0.204 C  
HETATM    4  C   UNL     1      -7.446  11.918  67.826  1.00  0.00    -0.121 C  
HETATM    5  C   UNL     1     -10.916  12.534  67.605  1.00  0.00    -0.242 C  
HETATM    6  C   UNL     1      -9.033  17.640  66.686  1.00  0.00    -0.283 C  
HETATM    7 CL   UNL     1      -7.204  15.210  67.194  1.00  0.00    -0.186 Cl 
HETATM    8  C   UNL     1      -9.766  11.817  67.611  1.00  0.00    -0.186 C  
HETATM    9  C   UNL     1      -9.510  12.744  69.279  1.00  0.00     0.848 C  
HETATM   10  C   UNL     1      -9.697  10.305  67.176  1.00  0.00    -0.210 C  
HETATM   11  C   UNL     1     -10.189  17.191  65.803  1.00  0.00    -0.234 C  
HETATM   12  O   UNL     1      -9.803  20.924  66.948  1.00  0.00    -0.304 OA 
HETATM   13  C   UNL     1     -10.035  15.729  65.409  1.00  0.00    -0.273 C  
HETATM   14  C   UNL     1     -10.236  19.166  68.522  1.00  0.00    -0.448 C  
HETATM   15  C   UNL     1     -10.038  14.830  66.647  1.00  0.00    -0.269 C  
HETATM   16  C   UNL     1      -9.392  14.475  69.233  1.00  0.00     0.095 C  
HETATM   17  C   UNL     1      -9.581  19.774  67.302  1.00  0.00    -0.359 C  
HETATM   18  C   UNL     1      -9.082  15.406  67.857  1.00  0.00    -0.178 C  
HETATM   19  C   UNL     1      -7.715  17.328  68.948  1.00  0.00    -0.221 C  
HETATM   20  C   UNL     1      -8.595  18.908  66.559  1.00  0.00    -0.309 C  
HETATM   21  O   UNL     1     -10.611  14.955  69.835  1.00  0.00    -0.383 OA 
HETATM   22  H   UNL     1     -10.546  15.902  69.809  1.00  0.00     0.000 HD 
HETATM   23  C   UNL     1      -9.027  17.007  68.105  1.00  0.00    -0.227 C  
HETATM   24  C   UNL     1     -10.045  17.866  68.868  1.00  0.00    -0.349 C  
ENDROOT
BRANCH   5  25
HETATM   25  O   UNL     1     -11.791  11.998  66.467  1.00  0.00    -0.585 OA 
BRANCH  25  26
HETATM   26  C   UNL     1     -12.597  12.860  65.767  1.00  0.00    -0.106 C  
HETATM   27  O   UNL     1     -13.112  13.854  66.260  1.00  0.00    -0.131 OA 
BRANCH  26  28
HETATM   28  C   UNL     1     -12.776  12.384  64.341  1.00  0.00    -0.434 C  
HETATM   29  C   UNL     1     -11.492  11.884  63.692  1.00  0.00    -0.551 C  
ENDBRANCH  26  28
ENDBRANCH  25  26
ENDBRANCH   5  25
BRANCH   5  30
HETATM   30  C   UNL     1     -11.695  11.432  68.690  1.00  0.00    -0.329 C  
HETATM   31  O   UNL     1     -12.154  10.313  68.388  1.00  0.00    -0.068 OA 
BRANCH  30  32
HETATM   32  C   UNL     1     -11.792  11.784  70.188  1.00  0.00    -0.324 C  
BRANCH  32  33
HETATM   33  O   UNL     1     -12.208  10.622  70.957  1.00  0.00    -0.338 OA 
BRANCH  33  34
HETATM   34  C   UNL     1     -13.205  10.844  71.863  1.00  0.00    -0.403 C  
HETATM   35  O   UNL     1     -13.633  11.956  72.138  1.00  0.00    -0.377 OA 
BRANCH  34  36
HETATM   36  C   UNL     1     -13.712   9.546  72.466  1.00  0.00    -0.351 C  
HETATM   37  C   UNL     1     -14.223   8.588  71.395  1.00  0.00    -0.378 C  
ENDBRANCH  34  36
ENDBRANCH  33  34
ENDBRANCH  32  33
ENDBRANCH  30  32
ENDBRANCH   5  30
TORSDOF 8
ENDMDL
MODEL       47
REMARK 921   NORMALIZED FREE ENERGY PREDICTED BY IDOCK:   -4.37 KCAL/MOL
REMARK 922        TOTAL FREE ENERGY PREDICTED BY IDOCK:   -6.15 KCAL/MOL
REMARK 923 INTER-LIGAND FREE ENERGY PREDICTED BY IDOCK:   -7.50 KCAL/MOL
REMARK 924 INTRA-LIGAND FREE ENERGY PREDICTED BY IDOCK:    1.35 KCAL/MOL
REMARK 927      BINDING AFFINITY PREDICTED BY RF-SCORE:    0.00 PKD
ROOT
HETATM    1  C   UNL     1      -7.809  10.852  67.853  1.00  0.00    -0.109 C  
HETATM    2  C   UNL     1      -8.279  10.656  69.175  1.00  0.00    -0.142 C  
HETATM    3  C   UNL     1      -9.086  10.081  68.042  1.00  0.00    -0.132 C  
HETATM    4  C   UNL     1     -10.280   9.147  68.918  1.00  0.00    -0.221 C  
HETATM    5  C   UNL     1      -8.043   9.806  66.267  1.00  0.00    -0.113 C  
HETATM    6  C   UNL     1      -9.876  14.928  67.194  1.00  0.00    -0.231 C  
HETATM    7 CL   UNL     1     -10.809  12.464  68.796  1.00  0.00    -0.263 Cl 
HETATM    8  C   UNL     1      -8.607   9.125  67.294  1.00  0.00    -0.118 C  
HETATM    9  C   UNL     1     -10.211   9.453  66.281  1.00  0.00    -0.284 C  
HETATM   10  C   UNL     1      -7.956   7.838  67.930  1.00  0.00    -0.125 C  
HETATM   11  C   UNL     1      -8.381  14.795  66.940  1.00  0.00    -0.184 C  
HETATM   12  O   UNL     1     -10.398  17.945  65.755  1.00  0.00    -0.577 OA 
HETATM   13  C   UNL     1      -7.827  13.543  67.605  1.00  0.00    -0.178 C  
HETATM   14  C   UNL     1     -10.814  15.768  64.836  1.00  0.00    -0.433 C  
HETATM   15  C   UNL     1      -8.494  12.288  67.039  1.00  0.00    -0.181 C  
HETATM   16  C   UNL     1     -10.689  11.103  66.036  1.00  0.00    -0.211 C  
HETATM   17  C   UNL     1     -10.506  16.742  65.951  1.00  0.00    -0.301 C  
HETATM   18  C   UNL     1     -10.128  12.434  66.914  1.00  0.00    -0.230 C  
HETATM   19  C   UNL     1     -12.281  13.889  66.893  1.00  0.00    -0.415 C  
HETATM   20  C   UNL     1     -10.385  16.166  67.339  1.00  0.00    -0.294 C  
HETATM   21  O   UNL     1     -10.462  11.360  64.636  1.00  0.00    -0.278 OA 
HETATM   22  H   UNL     1     -10.723  12.263  64.502  1.00  0.00     0.000 HD 
HETATM   23  C   UNL     1     -10.746  13.865  66.469  1.00  0.00    -0.277 C  
HETATM   24  C   UNL     1     -10.860  14.427  65.045  1.00  0.00    -0.420 C  
ENDROOT
BRANCH   5  25
HETATM   25  O   UNL     1      -6.523   9.673  66.401  1.00  0.00    -0.068 OA 
BRANCH  25  26
HETATM   26  C   UNL     1      -5.703  10.454  65.625  1.00  0.00    -0.105 C  
HETATM   27  O   UNL     1      -5.402  11.605  65.906  1.00  0.00    -0.262 OA 
BRANCH  26  28
HETATM   28  C   UNL     1      -5.273   9.703  64.382  1.00  0.00    -0.061 C  
HETATM   29  C   UNL     1      -5.808  10.298  63.086  1.00  0.00    -0.141 C  
ENDBRANCH  26  28
ENDBRANCH  25  26
ENDBRANCH   5  25
BRANCH   5  30
HETATM   30  C   UNL     1      -8.049   8.409  65.242  1.00  0.00    -0.140 C  
HETATM   31  O   UNL     1      -8.481   8.363  64.074  1.00  0.00    -0.112 OA 
BRANCH  30  32
HETATM   32  C   UNL     1      -7.410   7.098  65.744  1.00  0.00    -0.075 C  
BRANCH  32  33
HETATM   33  O   UNL     1      -7.511   6.063  64.728  1.00  0.00    -0.070 OA 
BRANCH  33  34
HETATM   34  C   UNL     1      -8.608   5.256  64.819  1.00  0.00    -0.136 C  
HETATM   35  O   UNL     1      -9.159   4.750  63.852  1.00  0.00    -0.127 OA 
BRANCH  34  36
HETATM   36  C   UNL     1      -9.039   5.061  66.262  1.00  0.00    -0.129 C  
HETATM   37  C   UNL     1     -10.494   5.466  66.477  1.00  0.00    -0.352 C  
ENDBRANCH  34  36
ENDBRANCH  33  34
ENDBRANCH  32  33
ENDBRANCH  30  32
ENDBRANCH   5  30
TORSDOF 8
ENDMDL
MODEL       48
REMARK 921   NORMALIZED FREE ENERGY PREDICTED BY IDOCK:   -4.36 KCAL/MOL
REMARK 922        TOTAL FREE ENERGY PREDICTED BY IDOCK:   -6.14 KCAL/MOL
REMARK 923 INTER-LIGAND FREE ENERGY PREDICTED BY IDOCK:   -6.59 KCAL/MOL
REMARK 924 INTRA-LIGAND FREE ENERGY PREDICTED BY IDOCK:    0.46 KCAL/MOL
REMARK 927      BINDING AFFINITY PREDICTED BY RF-SCORE:    0.00 PKD
ROOT
HETATM    1  C   UNL     1     -10.638   8.978  68.011  1.00  0.00    -0.242 C  
HETATM    2  C   UNL     1     -10.934   8.257  69.194  1.00  0.00     0.066 C  
HETATM    3  C   UNL     1      -9.873   9.322  69.259  1.00  0.00    -0.172 C  
HETATM    4  C   UNL     1      -9.552   9.375  70.979  1.00  0.00    -0.272 C  
HETATM    5  C   UNL     1      -9.966  10.752  67.755  1.00  0.00    -0.171 C  
HETATM    6  C   UNL     1      -7.488   6.010  66.399  1.00  0.00    -0.086 C  
HETATM    7 CL   UNL     1      -8.150   6.824  69.299  1.00  0.00    -0.119 Cl 
HETATM    8  C   UNL     1     -10.174  10.581  69.083  1.00  0.00    -0.241 C  
HETATM    9  C   UNL     1      -8.260  10.788  69.138  1.00  0.00    -0.124 C  
HETATM   10  C   UNL     1     -11.372  11.251  69.856  1.00  0.00    -0.329 C  
HETATM   11  C   UNL     1      -8.650   6.429  65.509  1.00  0.00    -0.115 C  
HETATM   12  O   UNL     1      -5.542   4.513  64.072  1.00  0.00    -0.013 OA 
HETATM   13  C   UNL     1      -9.772   7.044  66.333  1.00  0.00    -0.133 C  
HETATM   14  C   UNL     1      -5.346   6.729  64.971  1.00  0.00    -0.027 C  
HETATM   15  C   UNL     1      -9.285   8.299  67.060  1.00  0.00    -0.187 C  
HETATM   16  C   UNL     1      -7.295   9.611  68.305  1.00  0.00    -0.080 C  
HETATM   17  C   UNL     1      -5.873   5.311  64.938  1.00  0.00    -0.021 C  
HETATM   18  C   UNL     1      -7.823   8.091  67.785  1.00  0.00    -0.126 C  
HETATM   19  C   UNL     1      -5.621   6.749  68.108  1.00  0.00    -0.016 C  
HETATM   20  C   UNL     1      -6.797   4.906  66.058  1.00  0.00    -0.058 C  
HETATM   21  O   UNL     1      -6.743  10.307  67.170  1.00  0.00    -0.075 OA 
HETATM   22  H   UNL     1      -6.215   9.663  66.714  1.00  0.00     0.000 HD 
HETATM   23  C   UNL     1      -6.704   7.194  67.029  1.00  0.00    -0.064 C  
HETATM   24  C   UNL     1      -5.773   7.633  65.890  1.00  0.00    -0.037 C  
ENDROOT
BRANCH   5  25
HETATM   25  O   UNL     1     -11.335  10.932  67.090  1.00  0.00    -0.394 OA 
BRANCH  25  26
HETATM   26  C   UNL     1     -11.416  11.535  65.859  1.00  0.00    -0.014 C  
HETATM   27  O   UNL     1     -12.236  12.399  65.583  1.00  0.00    -0.599 OA 
BRANCH  26  28
HETATM   28  C   UNL     1     -10.387  10.954  64.912  1.00  0.00    -0.371 C  
HETATM   29  C   UNL     1     -10.329  11.652  63.560  1.00  0.00    -0.488 C  
ENDBRANCH  26  28
ENDBRANCH  25  26
ENDBRANCH   5  25
BRANCH   5  30
HETATM   30  C   UNL     1      -9.849  12.472  67.921  1.00  0.00    -0.207 C  
HETATM   31  O   UNL     1     -10.523  13.178  68.698  1.00  0.00    -0.253 OA 
BRANCH  30  32
HETATM   32  C   UNL     1      -8.784  13.241  67.114  1.00  0.00    -0.212 C  
BRANCH  32  33
HETATM   33  O   UNL     1      -8.985  14.675  67.245  1.00  0.00    -0.184 OA 
BRANCH  33  34
HETATM   34  C   UNL     1      -9.842  15.233  66.340  1.00  0.00    -0.275 C  
HETATM   35  O   UNL     1      -9.956  14.842  65.187  1.00  0.00    -0.345 OA 
BRANCH  34  36
HETATM   36  C   UNL     1     -10.631  16.377  66.950  1.00  0.00    -0.252 C  
HETATM   37  C   UNL     1     -10.045  17.734  66.573  1.00  0.00    -0.358 C  
ENDBRANCH  34  36
ENDBRANCH  33  34
ENDBRANCH  32  33
ENDBRANCH  30  32
ENDBRANCH   5  30
TORSDOF 8
ENDMDL
MODEL       49
REMARK 921   NORMALIZED FREE ENERGY PREDICTED BY IDOCK:   -4.35 KCAL/MOL
REMARK 922        TOTAL FREE ENERGY PREDICTED BY IDOCK:   -6.12 KCAL/MOL
REMARK 923 INTER-LIGAND FREE ENERGY PREDICTED BY IDOCK:   -6.41 KCAL/MOL
REMARK 924 INTRA-LIGAND FREE ENERGY PREDICTED BY IDOCK:    0.30 KCAL/MOL
REMARK 927      BINDING AFFINITY PREDICTED BY RF-SCORE:    0.00 PKD
ROOT
HETATM    1  C   UNL     1      -8.579   7.663  69.770  1.00  0.00    -0.135 C  
HETATM    2  C   UNL     1      -9.387   7.721  70.932  1.00  0.00    -0.157 C  
HETATM    3  C   UNL     1     -10.015   7.232  69.655  1.00  0.00    -0.176 C  
HETATM    4  C   UNL     1     -11.579   6.696  70.232  1.00  0.00    -0.454 C  
HETATM    5  C   UNL     1      -8.679   6.538  68.224  1.00  0.00    -0.117 C  
HETATM    6  C   UNL     1      -9.342  12.014  68.421  1.00  0.00    -0.175 C  
HETATM    7 CL   UNL     1     -11.217  10.014  69.833  1.00  0.00    -0.303 Cl 
HETATM    8  C   UNL     1      -9.625   6.117  69.099  1.00  0.00    -0.154 C  
HETATM    9  C   UNL     1     -10.804   6.698  67.691  1.00  0.00    -0.393 C  
HETATM   10  C   UNL     1      -9.488   4.790  69.936  1.00  0.00    -0.231 C  
HETATM   11  C   UNL     1      -7.912  11.513  68.569  1.00  0.00    -0.143 C  
HETATM   12  O   UNL     1      -8.732  14.900  66.766  1.00  0.00    -0.243 OA 
HETATM   13  C   UNL     1      -7.864  10.245  69.408  1.00  0.00    -0.157 C  
HETATM   14  C   UNL     1      -9.445  12.794  65.866  1.00  0.00    -0.076 C  
HETATM   15  C   UNL     1      -8.668   9.125  68.744  1.00  0.00    -0.132 C  
HETATM   16  C   UNL     1     -10.781   8.378  67.259  1.00  0.00    -0.160 C  
HETATM   17  C   UNL     1      -9.181  13.783  66.979  1.00  0.00    -0.251 C  
HETATM   18  C   UNL     1     -10.134   9.629  68.194  1.00  0.00    -0.205 C  
HETATM   19  C   UNL     1     -11.785  11.531  67.553  1.00  0.00    -0.262 C  
HETATM   20  C   UNL     1      -9.545  13.344  68.376  1.00  0.00    -0.188 C  
HETATM   21  O   UNL     1     -10.167   8.427  65.956  1.00  0.00    -0.417 OA 
HETATM   22  H   UNL     1     -10.155   9.347  65.720  1.00  0.00     0.000 HD 
HETATM   23  C   UNL     1     -10.250  11.109  67.542  1.00  0.00    -0.216 C  
HETATM   24  C   UNL     1      -9.874  11.529  66.114  1.00  0.00    -0.250 C  
ENDROOT
BRANCH   5  25
HETATM   25  O   UNL     1      -7.318   6.073  68.753  1.00  0.00    -0.081 OA 
BRANCH  25  26
HETATM   26  C   UNL     1      -6.231   6.069  67.915  1.00  0.00    -0.028 C  
HETATM   27  O   UNL     1      -5.561   5.073  67.682  1.00  0.00    -0.012 OA 
BRANCH  26  28
HETATM   28  C   UNL     1      -5.974   7.458  67.369  1.00  0.00    -0.042 C  
HETATM   29  C   UNL     1      -6.091   7.557  65.853  1.00  0.00    -0.038 C  
ENDBRANCH  26  28
ENDBRANCH  25  26
ENDBRANCH   5  25
BRANCH   5  30
HETATM   30  C   UNL     1      -8.786   5.080  67.294  1.00  0.00    -0.102 C  
HETATM   31  O   UNL     1      -8.798   3.921  67.754  1.00  0.00    -0.101 OA 
BRANCH  30  32
HETATM   32  C   UNL     1      -8.958   5.168  65.765  1.00  0.00    -0.152 C  
BRANCH  32  33
HETATM   33  O   UNL     1      -8.963   3.837  65.178  1.00  0.00    -0.122 OA 
BRANCH  33  34
HETATM   34  C   UNL     1     -10.119   3.480  64.545  1.00  0.00    -0.156 C  
HETATM   35  O   UNL     1     -11.176   4.080  64.678  1.00  0.00    -0.318 OA 
BRANCH  34  36
HETATM   36  C   UNL     1      -9.917   2.265  63.657  1.00  0.00    -0.138 C  
HETATM   37  C   UNL     1     -11.227   1.525  63.404  1.00  0.00    -0.129 C  
ENDBRANCH  34  36
ENDBRANCH  33  34
ENDBRANCH  32  33
ENDBRANCH  30  32
ENDBRANCH   5  30
TORSDOF 8
ENDMDL
MODEL       50
REMARK 921   NORMALIZED FREE ENERGY PREDICTED BY IDOCK:   -4.34 KCAL/MOL
REMARK 922        TOTAL FREE ENERGY PREDICTED BY IDOCK:   -6.11 KCAL/MOL
REMARK 923 INTER-LIGAND FREE ENERGY PREDICTED BY IDOCK:   -6.86 KCAL/MOL
REMARK 924 INTRA-LIGAND FREE ENERGY PREDICTED BY IDOCK:    0.75 KCAL/MOL
REMARK 927      BINDING AFFINITY PREDICTED BY RF-SCORE:    0.00 PKD
ROOT
HETATM    1  C   UNL     1      -8.380  10.517  67.645  1.00  0.00    -0.114 C  
HETATM    2  C   UNL     1      -9.325   9.874  68.480  1.00  0.00    -0.143 C  
HETATM    3  C   UNL     1      -9.526   9.796  66.991  1.00  0.00    -0.195 C  
HETATM    4  C   UNL     1     -10.861   8.667  66.889  1.00  0.00     0.029 C  
HETATM    5  C   UNL     1      -7.823  10.138  65.853  1.00  0.00    -0.132 C  
HETATM    6  C   UNL     1     -10.440  14.650  67.656  1.00  0.00    -0.243 C  
HETATM    7 CL   UNL     1     -11.663  11.820  67.732  1.00  0.00    -0.368 Cl 
HETATM    8  C   UNL     1      -8.678   9.157  66.232  1.00  0.00    -0.159 C  
HETATM    9  C   UNL     1      -9.750   9.914  64.823  1.00  0.00    -0.305 C  
HETATM   10  C   UNL     1      -8.204   7.697  66.585  1.00  0.00    -0.124 C  
HETATM   11  C   UNL     1      -8.968  14.543  68.030  1.00  0.00    -0.180 C  
HETATM   12  O   UNL     1     -10.662  18.006  67.296  1.00  0.00    -0.372 OA 
HETATM   13  C   UNL     1      -8.598  13.109  68.378  1.00  0.00    -0.124 C  
HETATM   14  C   UNL     1     -10.415  16.342  65.586  1.00  0.00    -0.386 C  
HETATM   15  C   UNL     1      -8.828  12.184  67.181  1.00  0.00    -0.191 C  
HETATM   16  C   UNL     1     -10.268  11.561  64.998  1.00  0.00    -0.280 C  
HETATM   17  C   UNL     1     -10.705  16.822  66.991  1.00  0.00    -0.161 C  
HETATM   18  C   UNL     1     -10.272  12.447  66.437  1.00  0.00    -0.253 C  
HETATM   19  C   UNL     1     -12.376  13.915  66.022  1.00  0.00    -0.511 C  
HETATM   20  C   UNL     1     -11.100  15.772  67.998  1.00  0.00    -0.337 C  
HETATM   21  O   UNL     1      -9.517  12.301  64.016  1.00  0.00    -0.519 OA 
HETATM   22  H   UNL     1      -9.801  13.203  64.111  1.00  0.00     0.000 HD 
HETATM   23  C   UNL     1     -10.810  13.971  66.308  1.00  0.00    -0.291 C  
HETATM   24  C   UNL     1     -10.392  15.021  65.269  1.00  0.00    -0.424 C  
ENDROOT
BRANCH   5  25
HETATM   25  O   UNL     1      -6.487   9.889  66.561  1.00  0.00    -0.068 OA 
BRANCH  25  26
HETATM   26  C   UNL     1      -5.566  10.903  66.646  1.00  0.00    -0.084 C  
HETATM   27  O   UNL     1      -5.148  11.519  65.676  1.00  0.00    -0.299 OA 
BRANCH  26  28
HETATM   28  C   UNL     1      -5.130  11.107  68.082  1.00  0.00    -0.039 C  
HETATM   29  C   UNL     1      -5.213   9.850  68.937  1.00  0.00    -0.036 C  
ENDBRANCH  26  28
ENDBRANCH  25  26
ENDBRANCH   5  25
BRANCH   5  30
HETATM   30  C   UNL     1      -7.250   9.216  64.502  1.00  0.00    -0.098 C  
HETATM   31  O   UNL     1      -7.410   9.505  63.300  1.00  0.00    -0.106 OA 
BRANCH  30  32
HETATM   32  C   UNL     1      -6.397   7.956  64.752  1.00  0.00    -0.048 C  
BRANCH  32  33
HETATM   33  O   UNL     1      -6.188   7.230  63.510  1.00  0.00    -0.047 OA 
BRANCH  33  34
HETATM   34  C   UNL     1      -7.069   6.214  63.269  1.00  0.00    -0.052 C  
HETATM   35  O   UNL     1      -7.913   6.246  62.385  1.00  0.00    -0.093 OA 
BRANCH  34  36
HETATM   36  C   UNL     1      -6.855   5.052  64.223  1.00  0.00    -0.048 C  
HETATM   37  C   UNL     1      -7.472   3.763  63.691  1.00  0.00    -0.058 C  
ENDBRANCH  34  36
ENDBRANCH  33  34
ENDBRANCH  32  33
ENDBRANCH  30  32
ENDBRANCH   5  30
TORSDOF 8
ENDMDL
MODEL       51
REMARK 921   NORMALIZED FREE ENERGY PREDICTED BY IDOCK:   -4.31 KCAL/MOL
REMARK 922        TOTAL FREE ENERGY PREDICTED BY IDOCK:   -6.07 KCAL/MOL
REMARK 923 INTER-LIGAND FREE ENERGY PREDICTED BY IDOCK:   -6.25 KCAL/MOL
REMARK 924 INTRA-LIGAND FREE ENERGY PREDICTED BY IDOCK:    0.18 KCAL/MOL
REMARK 927      BINDING AFFINITY PREDICTED BY RF-SCORE:    0.00 PKD
ROOT
HETATM    1  C   UNL     1      -7.745   9.793  68.000  1.00  0.00    -0.083 C  
HETATM    2  C   UNL     1      -6.805  10.318  68.921  1.00  0.00    -0.059 C  
HETATM    3  C   UNL     1      -6.798   8.834  68.667  1.00  0.00    -0.063 C  
HETATM    4  C   UNL     1      -5.364   8.348  69.547  1.00  0.00    -0.030 C  
HETATM    5  C   UNL     1      -7.677   8.241  66.881  1.00  0.00    -0.095 C  
HETATM    6  C   UNL     1     -11.156   9.202  71.056  1.00  0.00    -0.374 C  
HETATM    7 CL   UNL     1      -8.105   8.920  71.405  1.00  0.00    -0.182 Cl 
HETATM    8  C   UNL     1      -6.475   8.355  67.496  1.00  0.00    -0.058 C  
HETATM    9  C   UNL     1      -7.028   6.695  68.300  1.00  0.00    -0.077 C  
HETATM   10  C   UNL     1      -5.172   8.831  66.750  1.00  0.00    -0.039 C  
HETATM   11  C   UNL     1     -11.420   9.988  69.779  1.00  0.00    -0.240 C  
HETATM   12  O   UNL     1     -14.347   8.793  72.103  1.00  0.00    -0.440 OA 
HETATM   13  C   UNL     1     -10.114  10.430  69.134  1.00  0.00    -0.236 C  
HETATM   14  C   UNL     1     -12.955   7.229  70.931  1.00  0.00    -0.125 C  
HETATM   15  C   UNL     1      -9.262   9.218  68.750  1.00  0.00    -0.136 C  
HETATM   16  C   UNL     1      -8.455   6.711  69.287  1.00  0.00    -0.124 C  
HETATM   17  C   UNL     1     -13.224   8.488  71.724  1.00  0.00    -0.364 C  
HETATM   18  C   UNL     1      -9.187   8.086  69.942  1.00  0.00    -0.152 C  
HETATM   19  C   UNL     1     -10.064   7.077  72.170  1.00  0.00    -0.198 C  
HETATM   20  C   UNL     1     -12.028   9.338  72.074  1.00  0.00    -0.391 C  
HETATM   21  O   UNL     1      -9.448   5.990  68.531  1.00  0.00    -0.119 OA 
HETATM   22  H   UNL     1     -10.229   5.998  69.072  1.00  0.00     0.000 HD 
HETATM   23  C   UNL     1     -10.515   7.806  70.828  1.00  0.00    -0.213 C  
HETATM   24  C   UNL     1     -11.720   6.933  70.449  1.00  0.00    -0.377 C  
ENDROOT
BRANCH   5  25
HETATM   25  O   UNL     1      -7.740   9.307  65.782  1.00  0.00    -0.096 OA 
BRANCH  25  26
HETATM   26  C   UNL     1      -8.764   9.279  64.869  1.00  0.00    -0.192 C  
HETATM   27  O   UNL     1      -8.635   8.878  63.722  1.00  0.00    -0.174 OA 
BRANCH  26  28
HETATM   28  C   UNL     1     -10.033   9.844  65.474  1.00  0.00    -0.363 C  
HETATM   29  C   UNL     1     -10.092  11.366  65.474  1.00  0.00    -0.293 C  
ENDBRANCH  26  28
ENDBRANCH  25  26
ENDBRANCH   5  25
BRANCH   5  30
HETATM   30  C   UNL     1      -7.057   7.116  65.718  1.00  0.00    -0.069 C  
HETATM   31  O   UNL     1      -6.114   7.327  64.930  1.00  0.00    -0.037 OA 
BRANCH  30  32
HETATM   32  C   UNL     1      -7.637   5.689  65.660  1.00  0.00    -0.086 C  
BRANCH  32  33
HETATM   33  O   UNL     1      -8.966   5.705  65.072  1.00  0.00    -0.078 OA 
BRANCH  33  34
HETATM   34  C   UNL     1      -9.712   4.579  65.276  1.00  0.00    -0.172 C  
HETATM   35  O   UNL     1     -10.326   4.353  66.310  1.00  0.00    -0.235 OA 
BRANCH  34  36
HETATM   36  C   UNL     1      -9.687   3.665  64.064  1.00  0.00    -0.165 C  
HETATM   37  C   UNL     1      -9.418   4.439  62.778  1.00  0.00    -0.110 C  
ENDBRANCH  34  36
ENDBRANCH  33  34
ENDBRANCH  32  33
ENDBRANCH  30  32
ENDBRANCH   5  30
TORSDOF 8
ENDMDL
MODEL       52
REMARK 921   NORMALIZED FREE ENERGY PREDICTED BY IDOCK:   -4.29 KCAL/MOL
REMARK 922        TOTAL FREE ENERGY PREDICTED BY IDOCK:   -6.02 KCAL/MOL
REMARK 923 INTER-LIGAND FREE ENERGY PREDICTED BY IDOCK:   -5.98 KCAL/MOL
REMARK 924 INTRA-LIGAND FREE ENERGY PREDICTED BY IDOCK:   -0.04 KCAL/MOL
REMARK 927      BINDING AFFINITY PREDICTED BY RF-SCORE:    0.00 PKD
ROOT
HETATM    1  C   UNL     1     -10.640   6.782  68.978  1.00  0.00    -0.258 C  
HETATM    2  C   UNL     1     -11.105   5.884  69.970  1.00  0.00    -0.411 C  
HETATM    3  C   UNL     1      -9.680   6.360  70.055  1.00  0.00    -0.183 C  
HETATM    4  C   UNL     1      -9.196   5.704  71.604  1.00  0.00    -0.157 C  
HETATM    5  C   UNL     1      -9.278   8.125  69.036  1.00  0.00    -0.148 C  
HETATM    6  C   UNL     1      -9.324   3.545  65.958  1.00  0.00    -0.163 C  
HETATM    7 CL   UNL     1      -9.256   3.531  69.041  1.00  0.00    -0.212 Cl 
HETATM    8  C   UNL     1      -9.405   7.616  70.286  1.00  0.00    -0.157 C  
HETATM    9  C   UNL     1      -7.604   7.026  69.939  1.00  0.00    -0.102 C  
HETATM   10  C   UNL     1     -10.093   8.400  71.466  1.00  0.00    -0.293 C  
HETATM   11  C   UNL     1     -10.261   4.657  65.506  1.00  0.00    -0.219 C  
HETATM   12  O   UNL     1      -8.496   2.279  62.932  1.00  0.00    -0.076 OA 
HETATM   13  C   UNL     1     -10.901   5.347  66.702  1.00  0.00    -0.220 C  
HETATM   14  C   UNL     1      -7.243   3.801  64.300  1.00  0.00    -0.058 C  
HETATM   15  C   UNL     1      -9.836   5.989  67.592  1.00  0.00    -0.134 C  
HETATM   16  C   UNL     1      -7.355   5.918  68.627  1.00  0.00    -0.085 C  
HETATM   17  C   UNL     1      -8.347   2.803  64.027  1.00  0.00    -0.086 C  
HETATM   18  C   UNL     1      -8.554   4.996  67.872  1.00  0.00    -0.103 C  
HETATM   19  C   UNL     1      -7.161   2.876  67.309  1.00  0.00    -0.054 C  
HETATM   20  C   UNL     1      -9.236   2.442  65.191  1.00  0.00    -0.110 C  
HETATM   21  O   UNL     1      -6.669   6.679  67.613  1.00  0.00    -0.064 OA 
HETATM   22  H   UNL     1      -6.532   6.073  66.895  1.00  0.00     0.000 HD 
HETATM   23  C   UNL     1      -8.035   4.042  66.668  1.00  0.00    -0.097 C  
HETATM   24  C   UNL     1      -7.126   4.436  65.495  1.00  0.00    -0.067 C  
ENDROOT
BRANCH   5  25
HETATM   25  O   UNL     1     -10.483   9.038  68.783  1.00  0.00    -0.216 OA 
BRANCH  25  26
HETATM   26  C   UNL     1     -10.634   9.636  67.557  1.00  0.00    -0.277 C  
HETATM   27  O   UNL     1     -10.326   9.100  66.502  1.00  0.00    -0.263 OA 
BRANCH  26  28
HETATM   28  C   UNL     1     -11.190  11.036  67.712  1.00  0.00    -0.374 C  
HETATM   29  C   UNL     1     -11.889  11.279  69.043  1.00  0.00    -0.421 C  
ENDBRANCH  26  28
ENDBRANCH  25  26
ENDBRANCH   5  25
BRANCH   5  30
HETATM   30  C   UNL     1      -8.391   9.499  69.609  1.00  0.00    -0.152 C  
HETATM   31  O   UNL     1      -8.212   9.806  70.804  1.00  0.00    -0.251 OA 
BRANCH  30  32
HETATM   32  C   UNL     1      -7.677  10.416  68.596  1.00  0.00    -0.101 C  
BRANCH  32  33
HETATM   33  O   UNL     1      -7.131   9.634  67.499  1.00  0.00    -0.086 OA 
BRANCH  33  34
HETATM   34  C   UNL     1      -6.438  10.343  66.560  1.00  0.00    -0.089 C  
HETATM   35  O   UNL     1      -6.062  11.495  66.724  1.00  0.00    -0.133 OA 
BRANCH  34  36
HETATM   36  C   UNL     1      -6.190   9.520  65.309  1.00  0.00    -0.068 C  
HETATM   37  C   UNL     1      -7.437   8.755  64.878  1.00  0.00    -0.095 C  
ENDBRANCH  34  36
ENDBRANCH  33  34
ENDBRANCH  32  33
ENDBRANCH  30  32
ENDBRANCH   5  30
TORSDOF 8
ENDMDL
MODEL       53
REMARK 921   NORMALIZED FREE ENERGY PREDICTED BY IDOCK:   -4.25 KCAL/MOL
REMARK 922        TOTAL FREE ENERGY PREDICTED BY IDOCK:   -5.97 KCAL/MOL
REMARK 923 INTER-LIGAND FREE ENERGY PREDICTED BY IDOCK:   -6.70 KCAL/MOL
REMARK 924 INTRA-LIGAND FREE ENERGY PREDICTED BY IDOCK:    0.74 KCAL/MOL
REMARK 927      BINDING AFFINITY PREDICTED BY RF-SCORE:    0.00 PKD
ROOT
HETATM    1  C   UNL     1     -10.435   9.369  67.477  1.00  0.00    -0.343 C  
HETATM    2  C   UNL     1     -10.463   8.498  68.593  1.00  0.00    -0.200 C  
HETATM    3  C   UNL     1      -9.602   9.729  68.676  1.00  0.00    -0.155 C  
HETATM    4  C   UNL     1      -9.098   9.676  70.352  1.00  0.00    -0.245 C  
HETATM    5  C   UNL     1     -10.112  11.253  67.360  1.00  0.00    -0.188 C  
HETATM    6  C   UNL     1      -7.028   7.196  65.241  1.00  0.00    -0.056 C  
HETATM    7 CL   UNL     1      -7.481   7.597  68.265  1.00  0.00    -0.102 Cl 
HETATM    8  C   UNL     1     -10.133  10.921  68.674  1.00  0.00    -0.200 C  
HETATM    9  C   UNL     1      -8.290  11.470  68.568  1.00  0.00    -0.146 C  
HETATM   10  C   UNL     1     -11.331  11.284  69.631  1.00  0.00    -0.359 C  
HETATM   11  C   UNL     1      -8.339   7.477  64.521  1.00  0.00     0.041 C  
HETATM   12  O   UNL     1      -5.134   6.309  62.582  1.00  0.00    -0.020 OA 
HETATM   13  C   UNL     1      -9.447   7.795  65.514  1.00  0.00     0.454 C  
HETATM   14  C   UNL     1      -5.221   8.428  63.704  1.00  0.00    -0.057 C  
HETATM   15  C   UNL     1      -9.104   9.044  66.329  1.00  0.00    -0.224 C  
HETATM   16  C   UNL     1      -7.240  10.575  67.517  1.00  0.00    -0.090 C  
HETATM   17  C   UNL     1      -5.495   6.948  63.561  1.00  0.00    -0.032 C  
HETATM   18  C   UNL     1      -7.553   9.040  66.881  1.00  0.00    -0.094 C  
HETATM   19  C   UNL     1      -5.131   8.100  66.835  1.00  0.00    -0.031 C  
HETATM   20  C   UNL     1      -6.200   6.275  64.712  1.00  0.00    -0.030 C  
HETATM   21  O   UNL     1      -6.951  11.465  66.421  1.00  0.00    -0.299 OA 
HETATM   22  H   UNL     1      -6.375  10.975  65.845  1.00  0.00     0.000 HD 
HETATM   23  C   UNL     1      -6.392   8.439  65.923  1.00  0.00    -0.052 C  
HETATM   24  C   UNL     1      -5.688   9.148  64.757  1.00  0.00    -0.063 C  
ENDROOT
BRANCH   5  25
HETATM   25  O   UNL     1     -11.559  11.241  66.856  1.00  0.00    -0.464 OA 
BRANCH  25  26
HETATM   26  C   UNL     1     -11.871  11.874  65.678  1.00  0.00    -0.043 C  
HETATM   27  O   UNL     1     -12.741  12.727  65.580  1.00  0.00    -0.595 OA 
BRANCH  26  28
HETATM   28  C   UNL     1     -11.021  11.339  64.545  1.00  0.00    -0.301 C  
HETATM   29  C   UNL     1     -10.275  12.417  63.771  1.00  0.00    -0.404 C  
ENDBRANCH  26  28
ENDBRANCH  25  26
ENDBRANCH   5  25
BRANCH   5  30
HETATM   30  C   UNL     1     -10.276  12.942  67.709  1.00  0.00    -0.224 C  
HETATM   31  O   UNL     1      -9.634  13.864  67.169  1.00  0.00    -0.231 OA 
BRANCH  30  32
HETATM   32  C   UNL     1     -11.345  13.408  68.717  1.00  0.00    -0.292 C  
BRANCH  32  33
HETATM   33  O   UNL     1     -11.549  14.843  68.614  1.00  0.00    -0.290 OA 
BRANCH  33  34
HETATM   34  C   UNL     1     -11.175  15.569  69.709  1.00  0.00    -0.304 C  
HETATM   35  O   UNL     1     -10.710  16.698  69.645  1.00  0.00    -0.326 OA 
BRANCH  34  36
HETATM   36  C   UNL     1     -11.422  14.804  70.997  1.00  0.00    -0.263 C  
HETATM   37  C   UNL     1     -12.445  15.505  71.884  1.00  0.00    -0.475 C  
ENDBRANCH  34  36
ENDBRANCH  33  34
ENDBRANCH  32  33
ENDBRANCH  30  32
ENDBRANCH   5  30
TORSDOF 8
ENDMDL
MODEL       54
REMARK 921   NORMALIZED FREE ENERGY PREDICTED BY IDOCK:   -4.23 KCAL/MOL
REMARK 922        TOTAL FREE ENERGY PREDICTED BY IDOCK:   -5.94 KCAL/MOL
REMARK 923 INTER-LIGAND FREE ENERGY PREDICTED BY IDOCK:   -6.87 KCAL/MOL
REMARK 924 INTRA-LIGAND FREE ENERGY PREDICTED BY IDOCK:    0.93 KCAL/MOL
REMARK 927      BINDING AFFINITY PREDICTED BY RF-SCORE:    0.00 PKD
ROOT
HETATM    1  C   UNL     1     -11.196   7.046  69.700  1.00  0.00    -0.222 C  
HETATM    2  C   UNL     1     -12.259   6.926  70.629  1.00  0.00    -0.311 C  
HETATM    3  C   UNL     1     -11.203   7.966  70.890  1.00  0.00    -0.284 C  
HETATM    4  C   UNL     1     -11.894   8.814  72.257  1.00  0.00    -0.403 C  
HETATM    5  C   UNL     1     -10.107   8.546  69.224  1.00  0.00    -0.202 C  
HETATM    6  C   UNL     1      -8.474   3.865  71.648  1.00  0.00    -0.100 C  
HETATM    7 CL   UNL     1     -10.430   5.867  72.942  1.00  0.00    -0.233 Cl 
HETATM    8  C   UNL     1     -11.053   8.986  70.089  1.00  0.00    -0.228 C  
HETATM    9  C   UNL     1      -9.511   9.310  71.195  1.00  0.00    -0.287 C  
HETATM   10  C   UNL     1     -12.284   9.861  69.641  1.00  0.00     0.318 C  
HETATM   11  C   UNL     1      -8.806   3.763  70.166  1.00  0.00    -0.138 C  
HETATM   12  O   UNL     1      -5.971   1.594  71.795  1.00  0.00    -0.012 OA 
HETATM   13  C   UNL     1     -10.017   4.617  69.821  1.00  0.00    -0.295 C  
HETATM   14  C   UNL     1      -5.803   3.983  71.660  1.00  0.00    -0.013 C  
HETATM   15  C   UNL     1      -9.745   6.092  70.122  1.00  0.00    -0.194 C  
HETATM   16  C   UNL     1      -8.549   7.943  71.662  1.00  0.00    -0.120 C  
HETATM   17  C   UNL     1      -6.533   2.677  71.881  1.00  0.00    -0.015 C  
HETATM   18  C   UNL     1      -9.031   6.325  71.586  1.00  0.00    -0.144 C  
HETATM   19  C   UNL     1      -7.768   5.411  73.665  1.00  0.00    -0.102 C  
HETATM   20  C   UNL     1      -7.988   2.771  72.265  1.00  0.00    -0.055 C  
HETATM   21  O   UNL     1      -7.315   8.079  70.931  1.00  0.00    -0.055 OA 
HETATM   22  H   UNL     1      -6.788   7.331  71.186  1.00  0.00     0.000 HD 
HETATM   23  C   UNL     1      -7.925   5.251  72.088  1.00  0.00    -0.110 C  
HETATM   24  C   UNL     1      -6.446   5.180  71.683  1.00  0.00    -0.032 C  
ENDROOT
BRANCH   5  25
HETATM   25  O   UNL     1     -10.785   8.322  67.868  1.00  0.00    -0.178 OA 
BRANCH  25  26
HETATM   26  C   UNL     1     -10.057   7.812  66.823  1.00  0.00    -0.270 C  
HETATM   27  O   UNL     1      -9.259   8.469  66.170  1.00  0.00    -0.187 OA 
BRANCH  26  28
HETATM   28  C   UNL     1     -10.415   6.359  66.584  1.00  0.00    -0.240 C  
HETATM   29  C   UNL     1      -9.245   5.505  66.114  1.00  0.00    -0.166 C  
ENDBRANCH  26  28
ENDBRANCH  25  26
ENDBRANCH   5  25
BRANCH   5  30
HETATM   30  C   UNL     1      -9.708  10.158  68.728  1.00  0.00    -0.172 C  
HETATM   31  O   UNL     1      -8.586  10.693  68.820  1.00  0.00    -0.135 OA 
BRANCH  30  32
HETATM   32  C   UNL     1     -10.780  11.027  68.041  1.00  0.00    -0.217 C  
BRANCH  32  33
HETATM   33  O   UNL     1     -10.235  11.660  66.851  1.00  0.00    -0.208 OA 
BRANCH  33  34
HETATM   34  C   UNL     1     -11.154  12.055  65.923  1.00  0.00    -0.324 C  
HETATM   35  O   UNL     1     -12.305  12.363  66.199  1.00  0.00    -0.606 OA 
BRANCH  34  36
HETATM   36  C   UNL     1     -10.564  12.074  64.524  1.00  0.00    -0.356 C  
HETATM   37  C   UNL     1     -11.638  12.268  63.459  1.00  0.00    -0.570 C  
ENDBRANCH  34  36
ENDBRANCH  33  34
ENDBRANCH  32  33
ENDBRANCH  30  32
ENDBRANCH   5  30
TORSDOF 8
ENDMDL
MODEL       55
REMARK 921   NORMALIZED FREE ENERGY PREDICTED BY IDOCK:   -4.20 KCAL/MOL
REMARK 922        TOTAL FREE ENERGY PREDICTED BY IDOCK:   -5.90 KCAL/MOL
REMARK 923 INTER-LIGAND FREE ENERGY PREDICTED BY IDOCK:   -6.22 KCAL/MOL
REMARK 924 INTRA-LIGAND FREE ENERGY PREDICTED BY IDOCK:    0.31 KCAL/MOL
REMARK 927      BINDING AFFINITY PREDICTED BY RF-SCORE:    0.00 PKD
ROOT
HETATM    1  C   UNL     1      -9.967   8.609  67.957  1.00  0.00    -0.221 C  
HETATM    2  C   UNL     1     -10.583   8.105  66.786  1.00  0.00    -0.223 C  
HETATM    3  C   UNL     1      -9.159   8.580  66.690  1.00  0.00    -0.203 C  
HETATM    4  C   UNL     1      -8.746   8.081  65.063  1.00  0.00     0.036 C  
HETATM    5  C   UNL     1      -8.129   8.651  68.492  1.00  0.00    -0.117 C  
HETATM    6  C   UNL     1     -11.401  12.968  67.434  1.00  0.00    -0.347 C  
HETATM    7 CL   UNL     1     -10.599  10.873  65.318  1.00  0.00    -0.300 Cl 
HETATM    8  C   UNL     1      -8.201   7.963  67.327  1.00  0.00    -0.122 C  
HETATM    9  C   UNL     1      -7.158   9.451  66.692  1.00  0.00    -0.085 C  
HETATM   10  C   UNL     1      -8.041   6.398  67.245  1.00  0.00    -0.113 C  
HETATM   11  C   UNL     1     -11.663  12.244  68.747  1.00  0.00    -0.390 C  
HETATM   12  O   UNL     1     -12.162  16.120  68.397  1.00  0.00     0.127 OA 
HETATM   13  C   UNL     1     -11.511  10.739  68.577  1.00  0.00    -0.362 C  
HETATM   14  C   UNL     1      -9.995  15.110  68.197  1.00  0.00    -0.221 C  
HETATM   15  C   UNL     1     -10.088  10.383  68.142  1.00  0.00    -0.179 C  
HETATM   16  C   UNL     1      -7.878  11.029  66.753  1.00  0.00    -0.149 C  
HETATM   17  C   UNL     1     -11.490  15.188  67.978  1.00  0.00    -0.342 C  
HETATM   18  C   UNL     1      -9.527  11.354  66.938  1.00  0.00    -0.193 C  
HETATM   19  C   UNL     1      -9.693  13.512  65.500  1.00  0.00    -0.072 C  
HETATM   20  C   UNL     1     -12.115  14.079  67.170  1.00  0.00    -0.436 C  
HETATM   21  O   UNL     1      -7.163  11.733  67.787  1.00  0.00    -0.085 OA 
HETATM   22  H   UNL     1      -7.557  12.596  67.821  1.00  0.00     0.000 HD 
HETATM   23  C   UNL     1      -9.921  12.926  66.963  1.00  0.00    -0.244 C  
HETATM   24  C   UNL     1      -9.265  14.037  67.795  1.00  0.00    -0.195 C  
ENDROOT
BRANCH   5  25
HETATM   25  O   UNL     1      -8.665   7.742  69.603  1.00  0.00    -0.134 OA 
BRANCH  25  26
HETATM   26  C   UNL     1      -9.144   8.299  70.762  1.00  0.00    -0.150 C  
HETATM   27  O   UNL     1      -8.523   9.118  71.425  1.00  0.00    -0.317 OA 
BRANCH  26  28
HETATM   28  C   UNL     1     -10.504   7.729  71.105  1.00  0.00    -0.227 C  
HETATM   29  C   UNL     1     -10.792   6.384  70.451  1.00  0.00    -0.343 C  
ENDBRANCH  26  28
ENDBRANCH  25  26
ENDBRANCH   5  25
BRANCH   5  30
HETATM   30  C   UNL     1      -6.531   8.068  68.822  1.00  0.00    -0.049 C  
HETATM   31  O   UNL     1      -5.981   7.096  68.269  1.00  0.00    -0.027 OA 
BRANCH  30  32
HETATM   32  C   UNL     1      -5.641   8.825  69.827  1.00  0.00    -0.029 C  
BRANCH  32  33
HETATM   33  O   UNL     1      -5.736  10.260  69.610  1.00  0.00    -0.037 OA 
BRANCH  33  34
HETATM   34  C   UNL     1      -5.606  11.032  70.728  1.00  0.00    -0.115 C  
HETATM   35  O   UNL     1      -5.841  10.630  71.859  1.00  0.00    -0.229 OA 
BRANCH  34  36
HETATM   36  C   UNL     1      -5.125  12.432  70.388  1.00  0.00    -0.103 C  
HETATM   37  C   UNL     1      -6.145  13.493  70.788  1.00  0.00    -0.022 C  
ENDBRANCH  34  36
ENDBRANCH  33  34
ENDBRANCH  32  33
ENDBRANCH  30  32
ENDBRANCH   5  30
TORSDOF 8
ENDMDL
MODEL       56
REMARK 921   NORMALIZED FREE ENERGY PREDICTED BY IDOCK:   -4.20 KCAL/MOL
REMARK 922        TOTAL FREE ENERGY PREDICTED BY IDOCK:   -5.89 KCAL/MOL
REMARK 923 INTER-LIGAND FREE ENERGY PREDICTED BY IDOCK:   -6.49 KCAL/MOL
REMARK 924 INTRA-LIGAND FREE ENERGY PREDICTED BY IDOCK:    0.60 KCAL/MOL
REMARK 927      BINDING AFFINITY PREDICTED BY RF-SCORE:    0.00 PKD
ROOT
HETATM    1  C   UNL     1      -9.136  13.208  66.974  1.00  0.00    -0.231 C  
HETATM    2  C   UNL     1      -9.700  12.811  65.737  1.00  0.00    -0.167 C  
HETATM    3  C   UNL     1     -10.577  13.548  66.712  1.00  0.00    -0.272 C  
HETATM    4  C   UNL     1     -12.012  13.812  65.744  1.00  0.00    -0.423 C  
HETATM    5  C   UNL     1      -9.563  14.665  68.140  1.00  0.00    -0.213 C  
HETATM    6  C   UNL     1     -10.038   9.272  69.215  1.00  0.00    -0.201 C  
HETATM    7 CL   UNL     1     -11.652  10.727  67.027  1.00  0.00     0.132 Cl 
HETATM    8  C   UNL     1     -10.331  14.790  67.031  1.00  0.00    -0.255 C  
HETATM    9  C   UNL     1     -11.747  14.485  68.300  1.00  0.00    -0.368 C  
HETATM   10  C   UNL     1     -10.067  15.880  65.924  1.00  0.00    -0.376 C  
HETATM   11  C   UNL     1      -8.619   9.825  69.208  1.00  0.00    -0.158 C  
HETATM   12  O   UNL     1      -9.689   6.927  71.628  1.00  0.00    -0.163 OA 
HETATM   13  C   UNL     1      -8.441  10.851  68.099  1.00  0.00    -0.131 C  
HETATM   14  C   UNL     1     -10.616   9.131  71.821  1.00  0.00    -0.383 C  
HETATM   15  C   UNL     1      -9.386  12.038  68.301  1.00  0.00    -0.197 C  
HETATM   16  C   UNL     1     -11.766  12.966  69.139  1.00  0.00    -0.324 C  
HETATM   17  C   UNL     1     -10.116   7.923  71.061  1.00  0.00    -0.192 C  
HETATM   18  C   UNL     1     -10.918  11.576  68.684  1.00  0.00    -0.270 C  
HETATM   19  C   UNL     1     -12.614   9.772  69.472  1.00  0.00     1.077 C  
HETATM   20  C   UNL     1     -10.212   7.982  69.557  1.00  0.00    -0.209 C  
HETATM   21  O   UNL     1     -11.417  13.280  70.501  1.00  0.00    -0.491 OA 
HETATM   22  H   UNL     1     -11.428  12.449  70.960  1.00  0.00     0.000 HD 
HETATM   23  C   UNL     1     -11.121  10.295  69.656  1.00  0.00    -0.323 C  
HETATM   24  C   UNL     1     -11.020  10.263  71.188  1.00  0.00     0.155 C  
ENDROOT
BRANCH   5  25
HETATM   25  O   UNL     1      -8.138  15.086  67.768  1.00  0.00    -0.131 OA 
BRANCH  25  26
HETATM   26  C   UNL     1      -7.082  14.648  68.528  1.00  0.00    -0.112 C  
HETATM   27  O   UNL     1      -7.142  14.486  69.739  1.00  0.00    -0.134 OA 
BRANCH  26  28
HETATM   28  C   UNL     1      -5.855  14.438  67.665  1.00  0.00    -0.014 C  
HETATM   29  C   UNL     1      -5.201  13.075  67.843  1.00  0.00    -0.109 C  
ENDBRANCH  26  28
ENDBRANCH  25  26
ENDBRANCH   5  25
BRANCH   5  30
HETATM   30  C   UNL     1      -9.887  16.293  68.636  1.00  0.00    -0.230 C  
HETATM   31  O   UNL     1     -11.015  16.786  68.830  1.00  0.00    -0.314 OA 
BRANCH  30  32
HETATM   32  C   UNL     1      -8.710  17.238  68.949  1.00  0.00    -0.172 C  
BRANCH  32  33
HETATM   33  O   UNL     1      -8.600  18.268  67.928  1.00  0.00    -0.249 OA 
BRANCH  33  34
HETATM   34  C   UNL     1      -7.369  18.847  67.809  1.00  0.00    -0.234 C  
HETATM   35  O   UNL     1      -7.029  19.845  68.430  1.00  0.00    -0.286 OA 
BRANCH  34  36
HETATM   36  C   UNL     1      -6.488  18.093  66.829  1.00  0.00    -0.213 C  
HETATM   37  C   UNL     1      -6.495  18.740  65.448  1.00  0.00    -0.308 C  
ENDBRANCH  34  36
ENDBRANCH  33  34
ENDBRANCH  32  33
ENDBRANCH  30  32
ENDBRANCH   5  30
TORSDOF 8
ENDMDL
MODEL       57
REMARK 921   NORMALIZED FREE ENERGY PREDICTED BY IDOCK:   -4.18 KCAL/MOL
REMARK 922        TOTAL FREE ENERGY PREDICTED BY IDOCK:   -5.88 KCAL/MOL
REMARK 923 INTER-LIGAND FREE ENERGY PREDICTED BY IDOCK:   -6.69 KCAL/MOL
REMARK 924 INTRA-LIGAND FREE ENERGY PREDICTED BY IDOCK:    0.81 KCAL/MOL
REMARK 927      BINDING AFFINITY PREDICTED BY RF-SCORE:    0.00 PKD
ROOT
HETATM    1  C   UNL     1     -11.176   7.110  69.846  1.00  0.00    -0.241 C  
HETATM    2  C   UNL     1     -12.194   6.791  70.778  1.00  0.00    -0.353 C  
HETATM    3  C   UNL     1     -11.142   7.784  71.190  1.00  0.00    -0.269 C  
HETATM    4  C   UNL     1     -11.782   8.339  72.723  1.00  0.00    -0.305 C  
HETATM    5  C   UNL     1     -10.130   8.698  69.623  1.00  0.00    -0.201 C  
HETATM    6  C   UNL     1      -8.325   3.675  71.030  1.00  0.00    -0.087 C  
HETATM    7 CL   UNL     1     -10.249   5.348  72.766  1.00  0.00    -0.210 Cl 
HETATM    8  C   UNL     1     -11.042   8.942  70.595  1.00  0.00    -0.306 C  
HETATM    9  C   UNL     1      -9.456   9.082  71.678  1.00  0.00    -0.293 C  
HETATM   10  C   UNL     1     -12.304   9.859  70.376  1.00  0.00    -0.148 C  
HETATM   11  C   UNL     1      -8.723   3.852  69.571  1.00  0.00    -0.127 C  
HETATM   12  O   UNL     1      -5.788   1.474  70.632  1.00  0.00    -0.015 OA 
HETATM   13  C   UNL     1      -9.960   4.730  69.448  1.00  0.00    -0.269 C  
HETATM   14  C   UNL     1      -5.659   3.848  70.953  1.00  0.00    -0.012 C  
HETATM   15  C   UNL     1      -9.694   6.125  70.015  1.00  0.00    -0.195 C  
HETATM   16  C   UNL     1      -8.456   7.672  71.833  1.00  0.00    -0.109 C  
HETATM   17  C   UNL     1      -6.360   2.508  70.949  1.00  0.00    -0.023 C  
HETATM   18  C   UNL     1      -8.919   6.089  71.466  1.00  0.00    -0.144 C  
HETATM   19  C   UNL     1      -7.550   4.821  73.275  1.00  0.00    -0.091 C  
HETATM   20  C   UNL     1      -7.798   2.494  71.403  1.00  0.00    -0.044 C  
HETATM   21  O   UNL     1      -7.258   7.974  71.090  1.00  0.00    -0.052 OA 
HETATM   22  H   UNL     1      -6.710   7.202  71.175  1.00  0.00     0.000 HD 
HETATM   23  C   UNL     1      -7.777   4.962  71.706  1.00  0.00    -0.102 C  
HETATM   24  C   UNL     1      -6.317   5.003  71.233  1.00  0.00    -0.026 C  
ENDROOT
BRANCH   5  25
HETATM   25  O   UNL     1     -10.865   8.723  68.279  1.00  0.00    -0.111 OA 
BRANCH  25  26
HETATM   26  C   UNL     1     -10.145   8.797  67.113  1.00  0.00    -0.252 C  
HETATM   27  O   UNL     1     -10.453   9.514  66.172  1.00  0.00    -0.170 OA 
BRANCH  26  28
HETATM   28  C   UNL     1      -8.963   7.850  67.157  1.00  0.00    -0.142 C  
HETATM   29  C   UNL     1      -7.641   8.495  66.761  1.00  0.00    -0.090 C  
ENDBRANCH  26  28
ENDBRANCH  25  26
ENDBRANCH   5  25
BRANCH   5  30
HETATM   30  C   UNL     1      -9.776  10.383  69.431  1.00  0.00    -0.200 C  
HETATM   31  O   UNL     1      -8.640  10.880  69.302  1.00  0.00    -0.103 OA 
BRANCH  30  32
HETATM   32  C   UNL     1     -10.935  11.394  69.331  1.00  0.00    -0.205 C  
BRANCH  32  33
HETATM   33  O   UNL     1     -10.527  12.561  68.565  1.00  0.00    -0.230 OA 
BRANCH  33  34
HETATM   34  C   UNL     1     -11.481  13.083  67.739  1.00  0.00    -0.316 C  
HETATM   35  O   UNL     1     -12.066  12.433  66.885  1.00  0.00    -0.564 OA 
BRANCH  34  36
HETATM   36  C   UNL     1     -11.723  14.554  68.027  1.00  0.00    -0.373 C  
HETATM   37  C   UNL     1     -10.734  15.446  67.284  1.00  0.00    -0.307 C  
ENDBRANCH  34  36
ENDBRANCH  33  34
ENDBRANCH  32  33
ENDBRANCH  30  32
ENDBRANCH   5  30
TORSDOF 8
ENDMDL
MODEL       58
REMARK 921   NORMALIZED FREE ENERGY PREDICTED BY IDOCK:   -4.13 KCAL/MOL
REMARK 922        TOTAL FREE ENERGY PREDICTED BY IDOCK:   -5.80 KCAL/MOL
REMARK 923 INTER-LIGAND FREE ENERGY PREDICTED BY IDOCK:   -5.68 KCAL/MOL
REMARK 924 INTRA-LIGAND FREE ENERGY PREDICTED BY IDOCK:   -0.12 KCAL/MOL
REMARK 927      BINDING AFFINITY PREDICTED BY RF-SCORE:    0.00 PKD
ROOT
HETATM    1  C   UNL     1      -8.352   7.749  69.135  1.00  0.00    -0.134 C  
HETATM    2  C   UNL     1      -7.409   7.166  70.016  1.00  0.00    -0.080 C  
HETATM    3  C   UNL     1      -6.893   7.987  68.866  1.00  0.00    -0.061 C  
HETATM    4  C   UNL     1      -5.183   8.057  69.240  1.00  0.00    -0.026 C  
HETATM    5  C   UNL     1      -8.258   9.327  68.056  1.00  0.00    -0.115 C  
HETATM    6  C   UNL     1      -8.707   4.110  66.314  1.00  0.00    -0.115 C  
HETATM    7 CL   UNL     1      -6.272   5.188  67.869  1.00  0.00    -0.033 Cl 
HETATM    8  C   UNL     1      -7.125   9.270  68.799  1.00  0.00    -0.073 C  
HETATM    9  C   UNL     1      -6.315   9.074  67.063  1.00  0.00    -0.060 C  
HETATM   10  C   UNL     1      -6.860  10.214  70.032  1.00  0.00    -0.137 C  
HETATM   11  C   UNL     1      -9.966   4.718  66.917  1.00  0.00    -0.245 C  
HETATM   12  O   UNL     1     -10.137   2.124  63.978  1.00  0.00    -0.129 OA 
HETATM   13  C   UNL     1      -9.626   5.595  68.113  1.00  0.00    -0.135 C  
HETATM   14  C   UNL     1      -9.151   4.291  63.684  1.00  0.00    -0.142 C  
HETATM   15  C   UNL     1      -8.720   6.755  67.696  1.00  0.00    -0.119 C  
HETATM   16  C   UNL     1      -6.746   7.681  66.122  1.00  0.00    -0.053 C  
HETATM   17  C   UNL     1      -9.441   3.016  64.444  1.00  0.00    -0.145 C  
HETATM   18  C   UNL     1      -7.487   6.281  66.714  1.00  0.00    -0.087 C  
HETATM   19  C   UNL     1      -6.376   4.525  65.154  1.00  0.00    -0.035 C  
HETATM   20  C   UNL     1      -8.790   2.870  65.796  1.00  0.00    -0.140 C  
HETATM   21  O   UNL     1      -7.545   8.188  65.036  1.00  0.00    -0.085 OA 
HETATM   22  H   UNL     1      -7.781   7.426  64.521  1.00  0.00     0.000 HD 
HETATM   23  C   UNL     1      -7.776   5.133  65.606  1.00  0.00    -0.087 C  
HETATM   24  C   UNL     1      -8.440   5.310  64.234  1.00  0.00    -0.115 C  
ENDROOT
BRANCH   5  25
HETATM   25  O   UNL     1      -9.399   9.757  68.983  1.00  0.00    -0.147 OA 
BRANCH  25  26
HETATM   26  C   UNL     1     -10.677   9.844  68.489  1.00  0.00    -0.226 C  
HETATM   27  O   UNL     1     -11.069   9.218  67.515  1.00  0.00    -0.101 OA 
BRANCH  26  28
HETATM   28  C   UNL     1     -11.492  10.836  69.292  1.00  0.00    -0.369 C  
HETATM   29  C   UNL     1     -11.642  12.196  68.623  1.00  0.00    -0.372 C  
ENDBRANCH  26  28
ENDBRANCH  25  26
ENDBRANCH   5  25
BRANCH   5  30
HETATM   30  C   UNL     1      -7.995  10.991  67.652  1.00  0.00    -0.115 C  
HETATM   31  O   UNL     1      -7.245  11.780  68.260  1.00  0.00    -0.072 OA 
BRANCH  30  32
HETATM   32  C   UNL     1      -8.666  11.581  66.395  1.00  0.00    -0.179 C  
BRANCH  32  33
HETATM   33  O   UNL     1      -9.012  10.522  65.461  1.00  0.00    -0.168 OA 
BRANCH  33  34
HETATM   34  C   UNL     1      -9.844  10.889  64.441  1.00  0.00    -0.309 C  
HETATM   35  O   UNL     1      -9.729  10.479  63.295  1.00  0.00    -0.314 OA 
BRANCH  34  36
HETATM   36  C   UNL     1     -10.919  11.849  64.915  1.00  0.00    -0.367 C  
HETATM   37  C   UNL     1     -11.858  12.251  63.783  1.00  0.00    -0.587 C  
ENDBRANCH  34  36
ENDBRANCH  33  34
ENDBRANCH  32  33
ENDBRANCH  30  32
ENDBRANCH   5  30
TORSDOF 8
ENDMDL
MODEL       59
REMARK 921   NORMALIZED FREE ENERGY PREDICTED BY IDOCK:   -4.13 KCAL/MOL
REMARK 922        TOTAL FREE ENERGY PREDICTED BY IDOCK:   -5.80 KCAL/MOL
REMARK 923 INTER-LIGAND FREE ENERGY PREDICTED BY IDOCK:   -7.33 KCAL/MOL
REMARK 924 INTRA-LIGAND FREE ENERGY PREDICTED BY IDOCK:    1.54 KCAL/MOL
REMARK 927      BINDING AFFINITY PREDICTED BY RF-SCORE:    0.00 PKD
ROOT
HETATM    1  C   UNL     1      -7.998   9.183  69.006  1.00  0.00    -0.101 C  
HETATM    2  C   UNL     1      -6.840   9.684  68.363  1.00  0.00    -0.061 C  
HETATM    3  C   UNL     1      -8.156   9.796  67.643  1.00  0.00    -0.113 C  
HETATM    4  C   UNL     1      -7.703  10.772  66.261  1.00  0.00    -0.146 C  
HETATM    5  C   UNL     1      -9.838   9.690  68.857  1.00  0.00    -0.174 C  
HETATM    6  C   UNL     1      -7.581   4.849  67.467  1.00  0.00    -0.086 C  
HETATM    7 CL   UNL     1      -6.873   7.520  66.098  1.00  0.00    -0.059 Cl 
HETATM    8  C   UNL     1      -9.113  10.554  68.106  1.00  0.00    -0.141 C  
HETATM    9  C   UNL     1     -10.113   9.737  66.678  1.00  0.00    -0.303 C  
HETATM   10  C   UNL     1      -8.838  12.044  68.539  1.00  0.00    -0.095 C  
HETATM   11  C   UNL     1      -7.736   5.104  68.960  1.00  0.00    -0.081 C  
HETATM   12  O   UNL     1      -8.093   1.505  67.437  1.00  0.00    -0.063 OA 
HETATM   13  C   UNL     1      -7.432   6.556  69.297  1.00  0.00    -0.095 C  
HETATM   14  C   UNL     1      -9.651   3.251  66.912  1.00  0.00    -0.063 C  
HETATM   15  C   UNL     1      -8.401   7.495  68.576  1.00  0.00    -0.126 C  
HETATM   16  C   UNL     1      -9.893   8.037  66.407  1.00  0.00    -0.167 C  
HETATM   17  C   UNL     1      -8.274   2.687  67.182  1.00  0.00    -0.078 C  
HETATM   18  C   UNL     1      -8.614   7.102  66.993  1.00  0.00    -0.122 C  
HETATM   19  C   UNL     1      -8.380   5.425  65.021  1.00  0.00    -0.145 C  
HETATM   20  C   UNL     1      -7.116   3.647  67.075  1.00  0.00    -0.063 C  
HETATM   21  O   UNL     1     -11.128   7.423  66.826  1.00  0.00    -0.507 OA 
HETATM   22  H   UNL     1     -11.008   6.493  66.677  1.00  0.00     0.000 HD 
HETATM   23  C   UNL     1      -8.662   5.533  66.585  1.00  0.00    -0.116 C  
HETATM   24  C   UNL     1      -9.857   4.577  66.701  1.00  0.00    -0.244 C  
ENDROOT
BRANCH   5  25
HETATM   25  O   UNL     1      -9.622  10.059  70.328  1.00  0.00    -0.196 OA 
BRANCH  25  26
HETATM   26  C   UNL     1      -9.757   9.094  71.296  1.00  0.00    -0.281 C  
HETATM   27  O   UNL     1      -8.929   8.897  72.173  1.00  0.00    -0.381 OA 
BRANCH  26  28
HETATM   28  C   UNL     1     -11.035   8.308  71.089  1.00  0.00    -0.286 C  
HETATM   29  C   UNL     1     -12.223   8.845  71.876  1.00  0.00    -0.445 C  
ENDBRANCH  26  28
ENDBRANCH  25  26
ENDBRANCH   5  25
BRANCH   5  30
HETATM   30  C   UNL     1     -11.230  10.721  68.829  1.00  0.00    -0.272 C  
HETATM   31  O   UNL     1     -12.407  10.353  68.649  1.00  0.00    -0.067 OA 
BRANCH  30  32
HETATM   32  C   UNL     1     -11.064  12.226  69.121  1.00  0.00    -0.203 C  
BRANCH  32  33
HETATM   33  O   UNL     1     -12.061  12.670  70.082  1.00  0.00    -0.341 OA 
BRANCH  33  34
HETATM   34  C   UNL     1     -12.258  14.020  70.141  1.00  0.00    -0.359 C  
HETATM   35  O   UNL     1     -12.108  14.768  69.185  1.00  0.00    -0.298 OA 
BRANCH  34  36
HETATM   36  C   UNL     1     -12.696  14.460  71.526  1.00  0.00    -0.417 C  
HETATM   37  C   UNL     1     -14.055  15.150  71.498  1.00  0.00    -0.636 C  
ENDBRANCH  34  36
ENDBRANCH  33  34
ENDBRANCH  32  33
ENDBRANCH  30  32
ENDBRANCH   5  30
TORSDOF 8
ENDMDL
MODEL       60
REMARK 921   NORMALIZED FREE ENERGY PREDICTED BY IDOCK:   -4.13 KCAL/MOL
REMARK 922        TOTAL FREE ENERGY PREDICTED BY IDOCK:   -5.79 KCAL/MOL
REMARK 923 INTER-LIGAND FREE ENERGY PREDICTED BY IDOCK:   -6.50 KCAL/MOL
REMARK 924 INTRA-LIGAND FREE ENERGY PREDICTED BY IDOCK:    0.71 KCAL/MOL
REMARK 927      BINDING AFFINITY PREDICTED BY RF-SCORE:    0.00 PKD
ROOT
HETATM    1  C   UNL     1     -11.159  11.772  66.865  1.00  0.00    -0.361 C  
HETATM    2  C   UNL     1     -11.786  10.765  67.638  1.00  0.00     0.107 C  
HETATM    3  C   UNL     1     -10.630  11.511  68.248  1.00  0.00    -0.228 C  
HETATM    4  C   UNL     1     -10.668  10.908  69.891  1.00  0.00    -0.135 C  
HETATM    5  C   UNL     1     -10.219  13.356  67.387  1.00  0.00    -0.237 C  
HETATM    6  C   UNL     1      -8.164   8.971  64.740  1.00  0.00    -0.161 C  
HETATM    7 CL   UNL     1      -9.299   8.860  67.605  1.00  0.00    -0.151 Cl 
HETATM    8  C   UNL     1     -10.718  12.787  68.511  1.00  0.00    -0.275 C  
HETATM    9  C   UNL     1      -8.848  12.579  68.916  1.00  0.00     0.309 C  
HETATM   10  C   UNL     1     -11.951  13.376  69.295  1.00  0.00    -0.367 C  
HETATM   11  C   UNL     1      -9.051   9.890  63.911  1.00  0.00    -0.298 C  
HETATM   12  O   UNL     1      -5.994   8.003  62.332  1.00  0.00    -0.075 OA 
HETATM   13  C   UNL     1     -10.227  10.396  64.732  1.00  0.00    -0.319 C  
HETATM   14  C   UNL     1      -5.697   9.694  64.008  1.00  0.00    -0.087 C  
HETATM   15  C   UNL     1      -9.740  11.205  65.937  1.00  0.00    -0.268 C  
HETATM   16  C   UNL     1      -7.895  11.590  67.854  1.00  0.00    -0.123 C  
HETATM   17  C   UNL     1      -6.388   8.507  63.375  1.00  0.00    -0.085 C  
HETATM   18  C   UNL     1      -8.500  10.476  66.736  1.00  0.00    -0.127 C  
HETATM   19  C   UNL     1      -6.611   8.696  66.852  1.00  0.00    -0.061 C  
HETATM   20  C   UNL     1      -7.570   7.935  64.117  1.00  0.00    -0.112 C  
HETATM   21  O   UNL     1      -7.033  12.508  67.153  1.00  0.00    -0.285 OA 
HETATM   22  H   UNL     1      -6.511  11.967  66.572  1.00  0.00     0.000 HD 
HETATM   23  C   UNL     1      -7.378   9.688  65.871  1.00  0.00    -0.099 C  
HETATM   24  C   UNL     1      -6.181  10.296  65.126  1.00  0.00    -0.127 C  
ENDROOT
BRANCH   5  25
HETATM   25  O   UNL     1     -11.384  14.020  66.646  1.00  0.00    -0.315 OA 
BRANCH  25  26
HETATM   26  C   UNL     1     -11.172  14.577  65.410  1.00  0.00    -0.342 C  
HETATM   27  O   UNL     1     -10.192  15.255  65.133  1.00  0.00    -0.368 OA 
BRANCH  26  28
HETATM   28  C   UNL     1     -12.324  14.264  64.478  1.00  0.00    -0.432 C  
HETATM   29  C   UNL     1     -12.968  12.907  64.729  1.00  0.00    -0.224 C  
ENDBRANCH  26  28
ENDBRANCH  25  26
ENDBRANCH   5  25
BRANCH   5  30
HETATM   30  C   UNL     1      -9.913  14.857  68.196  1.00  0.00    -0.222 C  
HETATM   31  O   UNL     1     -10.744  15.516  68.851  1.00  0.00    -0.224 OA 
BRANCH  30  32
HETATM   32  C   UNL     1      -8.485  15.438  68.200  1.00  0.00    -0.147 C  
BRANCH  32  33
HETATM   33  O   UNL     1      -8.133  15.911  69.529  1.00  0.00    -0.220 OA 
BRANCH  33  34
HETATM   34  C   UNL     1      -6.825  16.266  69.698  1.00  0.00    -0.125 C  
HETATM   35  O   UNL     1      -6.463  17.400  69.976  1.00  0.00    -0.078 OA 
BRANCH  34  36
HETATM   36  C   UNL     1      -5.896  15.080  69.511  1.00  0.00    -0.104 C  
HETATM   37  C   UNL     1      -5.177  14.714  70.805  1.00  0.00    -0.128 C  
ENDBRANCH  34  36
ENDBRANCH  33  34
ENDBRANCH  32  33
ENDBRANCH  30  32
ENDBRANCH   5  30
TORSDOF 8
ENDMDL
MODEL       61
REMARK 921   NORMALIZED FREE ENERGY PREDICTED BY IDOCK:   -4.12 KCAL/MOL
REMARK 922        TOTAL FREE ENERGY PREDICTED BY IDOCK:   -5.77 KCAL/MOL
REMARK 923 INTER-LIGAND FREE ENERGY PREDICTED BY IDOCK:   -5.58 KCAL/MOL
REMARK 924 INTRA-LIGAND FREE ENERGY PREDICTED BY IDOCK:   -0.19 KCAL/MOL
REMARK 927      BINDING AFFINITY PREDICTED BY RF-SCORE:    0.00 PKD
ROOT
HETATM    1  C   UNL     1     -10.040   7.775  67.344  1.00  0.00    -0.288 C  
HETATM    2  C   UNL     1     -10.559   9.092  67.409  1.00  0.00    -0.309 C  
HETATM    3  C   UNL     1      -9.074   8.906  67.564  1.00  0.00    -0.146 C  
HETATM    4  C   UNL     1      -8.524  10.568  67.561  1.00  0.00    -0.118 C  
HETATM    5  C   UNL     1      -8.323   7.126  66.800  1.00  0.00    -0.116 C  
HETATM    6  C   UNL     1     -10.579   6.809  71.828  1.00  0.00    -0.237 C  
HETATM    7 CL   UNL     1      -9.864   9.468  70.441  1.00  0.00    -0.309 Cl 
HETATM    8  C   UNL     1      -8.346   8.462  66.575  1.00  0.00    -0.111 C  
HETATM    9  C   UNL     1      -6.971   8.444  67.924  1.00  0.00    -0.078 C  
HETATM   10  C   UNL     1      -8.459   9.087  65.134  1.00  0.00    -0.183 C  
HETATM   11  C   UNL     1     -11.155   5.865  70.781  1.00  0.00    -0.324 C  
HETATM   12  O   UNL     1     -10.895   4.840  74.560  1.00  0.00    -0.347 OA 
HETATM   13  C   UNL     1     -11.252   6.550  69.426  1.00  0.00    -0.418 C  
HETATM   14  C   UNL     1      -8.939   5.227  73.226  1.00  0.00    -0.120 C  
HETATM   15  C   UNL     1      -9.868   6.977  68.934  1.00  0.00    -0.150 C  
HETATM   16  C   UNL     1      -7.399   7.875  69.506  1.00  0.00    -0.087 C  
HETATM   17  C   UNL     1     -10.347   5.514  73.699  1.00  0.00    -0.237 C  
HETATM   18  C   UNL     1      -8.971   7.709  70.104  1.00  0.00    -0.146 C  
HETATM   19  C   UNL     1      -8.536   8.287  72.600  1.00  0.00    -0.264 C  
HETATM   20  C   UNL     1     -11.036   6.709  73.090  1.00  0.00    -0.263 C  
HETATM   21  O   UNL     1      -6.728   6.608  69.648  1.00  0.00    -0.047 OA 
HETATM   22  H   UNL     1      -6.962   6.297  70.515  1.00  0.00     0.000 HD 
HETATM   23  C   UNL     1      -9.077   7.152  71.623  1.00  0.00    -0.141 C  
HETATM   24  C   UNL     1      -8.361   5.932  72.218  1.00  0.00    -0.118 C  
ENDROOT
BRANCH   5  25
HETATM   25  O   UNL     1      -9.170   6.458  65.713  1.00  0.00    -0.076 OA 
BRANCH  25  26
HETATM   26  C   UNL     1      -9.167   5.090  65.596  1.00  0.00    -0.157 C  
HETATM   27  O   UNL     1      -8.517   4.485  64.756  1.00  0.00    -0.120 OA 
BRANCH  26  28
HETATM   28  C   UNL     1     -10.098   4.466  66.616  1.00  0.00    -0.197 C  
HETATM   29  C   UNL     1      -9.393   3.579  67.633  1.00  0.00    -0.250 C  
ENDBRANCH  26  28
ENDBRANCH  25  26
ENDBRANCH   5  25
BRANCH   5  30
HETATM   30  C   UNL     1      -6.922   6.910  65.805  1.00  0.00    -0.064 C  
HETATM   31  O   UNL     1      -6.781   7.331  64.640  1.00  0.00    -0.042 OA 
BRANCH  30  32
HETATM   32  C   UNL     1      -5.681   6.203  66.387  1.00  0.00    -0.017 C  
BRANCH  32  33
HETATM   33  O   UNL     1      -5.676   4.798  66.013  1.00  0.00    -0.017 OA 
BRANCH  33  34
HETATM   34  C   UNL     1      -5.818   3.916  67.046  1.00  0.00    -0.023 C  
HETATM   35  O   UNL     1      -5.767   4.240  68.224  1.00  0.00    -0.019 OA 
BRANCH  34  36
HETATM   36  C   UNL     1      -6.056   2.502  66.545  1.00  0.00    -0.024 C  
HETATM   37  C   UNL     1      -5.990   1.482  67.676  1.00  0.00    -0.020 C  
ENDBRANCH  34  36
ENDBRANCH  33  34
ENDBRANCH  32  33
ENDBRANCH  30  32
ENDBRANCH   5  30
TORSDOF 8
ENDMDL
MODEL       62
REMARK 921   NORMALIZED FREE ENERGY PREDICTED BY IDOCK:   -4.10 KCAL/MOL
REMARK 922        TOTAL FREE ENERGY PREDICTED BY IDOCK:   -5.75 KCAL/MOL
REMARK 923 INTER-LIGAND FREE ENERGY PREDICTED BY IDOCK:   -6.30 KCAL/MOL
REMARK 924 INTRA-LIGAND FREE ENERGY PREDICTED BY IDOCK:    0.55 KCAL/MOL
REMARK 927      BINDING AFFINITY PREDICTED BY RF-SCORE:    0.00 PKD
ROOT
HETATM    1  C   UNL     1     -10.638   8.793  68.041  1.00  0.00    -0.218 C  
HETATM    2  C   UNL     1     -11.258   8.631  69.304  1.00  0.00     0.242 C  
HETATM    3  C   UNL     1      -9.801   9.006  69.272  1.00  0.00    -0.179 C  
HETATM    4  C   UNL     1      -9.494   9.312  70.969  1.00  0.00    -0.313 C  
HETATM    5  C   UNL     1      -9.153   9.873  67.499  1.00  0.00    -0.134 C  
HETATM    6  C   UNL     1      -9.456   4.362  67.497  1.00  0.00    -0.201 C  
HETATM    7 CL   UNL     1      -9.601   6.080  70.054  1.00  0.00    -0.185 Cl 
HETATM    8  C   UNL     1      -9.416  10.160  68.797  1.00  0.00    -0.171 C  
HETATM    9  C   UNL     1      -7.666   9.395  69.044  1.00  0.00    -0.075 C  
HETATM   10  C   UNL     1     -10.099  11.502  69.257  1.00  0.00     0.100 C  
HETATM   11  C   UNL     1     -10.242   5.069  66.402  1.00  0.00    -0.307 C  
HETATM   12  O   UNL     1      -8.557   1.577  65.800  1.00  0.00    -0.095 OA 
HETATM   13  C   UNL     1     -10.888   6.341  66.932  1.00  0.00    -0.428 C  
HETATM   14  C   UNL     1      -7.252   3.545  66.225  1.00  0.00    -0.067 C  
HETATM   15  C   UNL     1      -9.826   7.323  67.431  1.00  0.00    -0.206 C  
HETATM   16  C   UNL     1      -7.442   7.731  68.605  1.00  0.00    -0.100 C  
HETATM   17  C   UNL     1      -8.430   2.619  66.429  1.00  0.00    -0.105 C  
HETATM   18  C   UNL     1      -8.674   6.601  68.358  1.00  0.00    -0.122 C  
HETATM   19  C   UNL     1      -7.470   4.468  69.228  1.00  0.00    -0.055 C  
HETATM   20  C   UNL     1      -9.429   3.016  67.487  1.00  0.00    -0.170 C  
HETATM   21  O   UNL     1      -6.614   7.758  67.425  1.00  0.00    -0.059 OA 
HETATM   22  H   UNL     1      -6.491   6.847  67.185  1.00  0.00     0.000 HD 
HETATM   23  C   UNL     1      -8.175   5.112  67.953  1.00  0.00    -0.098 C  
HETATM   24  C   UNL     1      -7.153   4.735  66.872  1.00  0.00    -0.075 C  
ENDROOT
BRANCH   5  25
HETATM   25  O   UNL     1     -10.238  10.540  66.647  1.00  0.00    -0.217 OA 
BRANCH  25  26
HETATM   26  C   UNL     1     -10.097  10.583  65.283  1.00  0.00    -0.300 C  
HETATM   27  O   UNL     1      -9.498   9.734  64.638  1.00  0.00    -0.280 OA 
BRANCH  26  28
HETATM   28  C   UNL     1     -10.747  11.830  64.720  1.00  0.00    -0.355 C  
HETATM   29  C   UNL     1     -11.721  12.503  65.676  1.00  0.00    -0.473 C  
ENDBRANCH  26  28
ENDBRANCH  25  26
ENDBRANCH   5  25
BRANCH   5  30
HETATM   30  C   UNL     1      -8.171  11.287  67.310  1.00  0.00    -0.140 C  
HETATM   31  O   UNL     1      -7.088  11.347  66.696  1.00  0.00    -0.140 OA 
BRANCH  30  32
HETATM   32  C   UNL     1      -8.668  12.636  67.868  1.00  0.00    -0.181 C  
BRANCH  32  33
HETATM   33  O   UNL     1      -8.310  13.721  66.970  1.00  0.00    -0.176 OA 
BRANCH  33  34
HETATM   34  C   UNL     1      -9.197  14.758  66.920  1.00  0.00    -0.245 C  
HETATM   35  O   UNL     1      -9.561  15.287  65.879  1.00  0.00    -0.313 OA 
BRANCH  34  36
HETATM   36  C   UNL     1      -9.674  15.152  68.306  1.00  0.00    -0.219 C  
HETATM   37  C   UNL     1      -9.258  16.575  68.664  1.00  0.00    -0.238 C  
ENDBRANCH  34  36
ENDBRANCH  33  34
ENDBRANCH  32  33
ENDBRANCH  30  32
ENDBRANCH   5  30
TORSDOF 8
ENDMDL
MODEL       63
REMARK 921   NORMALIZED FREE ENERGY PREDICTED BY IDOCK:   -4.09 KCAL/MOL
REMARK 922        TOTAL FREE ENERGY PREDICTED BY IDOCK:   -5.73 KCAL/MOL
REMARK 923 INTER-LIGAND FREE ENERGY PREDICTED BY IDOCK:   -6.25 KCAL/MOL
REMARK 924 INTRA-LIGAND FREE ENERGY PREDICTED BY IDOCK:    0.51 KCAL/MOL
REMARK 927      BINDING AFFINITY PREDICTED BY RF-SCORE:    0.00 PKD
ROOT
HETATM    1  C   UNL     1     -10.432   9.642  67.650  1.00  0.00    -0.317 C  
HETATM    2  C   UNL     1     -11.020   9.572  66.364  1.00  0.00     0.420 C  
HETATM    3  C   UNL     1      -9.523   9.690  66.453  1.00  0.00    -0.244 C  
HETATM    4  C   UNL     1      -9.066   9.469  64.777  1.00  0.00    -0.271 C  
HETATM    5  C   UNL     1      -8.700   9.113  68.271  1.00  0.00    -0.129 C  
HETATM    6  C   UNL     1     -10.770  14.227  68.097  1.00  0.00    -0.249 C  
HETATM    7 CL   UNL     1     -10.248  12.508  65.590  1.00  0.00    -0.281 Cl 
HETATM    8  C   UNL     1      -8.804   8.733  66.975  1.00  0.00    -0.139 C  
HETATM    9  C   UNL     1      -7.387  10.019  66.761  1.00  0.00    -0.095 C  
HETATM   10  C   UNL     1      -8.998   7.233  66.535  1.00  0.00    -0.175 C  
HETATM   11  C   UNL     1     -11.327  13.323  69.188  1.00  0.00    -0.336 C  
HETATM   12  O   UNL     1     -10.888  17.183  69.737  1.00  0.00    -0.128 OA 
HETATM   13  C   UNL     1     -11.506  11.901  68.676  1.00  0.00    -0.350 C  
HETATM   14  C   UNL     1      -9.001  15.738  69.413  1.00  0.00    -0.247 C  
HETATM   15  C   UNL     1     -10.164  11.308  68.241  1.00  0.00    -0.198 C  
HETATM   16  C   UNL     1      -7.731  11.674  67.156  1.00  0.00    -0.159 C  
HETATM   17  C   UNL     1     -10.406  16.228  69.144  1.00  0.00    -0.272 C  
HETATM   18  C   UNL     1      -9.272  12.347  67.329  1.00  0.00    -0.187 C  
HETATM   19  C   UNL     1      -8.788  14.738  66.434  1.00  0.00    -0.152 C  
HETATM   20  C   UNL     1     -11.179  15.509  68.067  1.00  0.00    -0.332 C  
HETATM   21  O   UNL     1      -6.987  11.938  68.362  1.00  0.00    -0.068 OA 
HETATM   22  H   UNL     1      -7.175  12.844  68.578  1.00  0.00     0.000 HD 
HETATM   23  C   UNL     1      -9.297  13.925  67.705  1.00  0.00    -0.205 C  
HETATM   24  C   UNL     1      -8.496  14.632  68.806  1.00  0.00    -0.161 C  
ENDROOT
BRANCH   5  25
HETATM   25  O   UNL     1      -9.544   8.146  69.108  1.00  0.00    -0.155 OA 
BRANCH  25  26
HETATM   26  C   UNL     1      -9.988   8.533  70.348  1.00  0.00    -0.183 C  
HETATM   27  O   UNL     1      -9.497   9.454  70.984  1.00  0.00    -0.254 OA 
BRANCH  26  28
HETATM   28  C   UNL     1     -11.123   7.642  70.809  1.00  0.00    -0.276 C  
HETATM   29  C   UNL     1     -11.698   6.757  69.711  1.00  0.00    -0.222 C  
ENDBRANCH  26  28
ENDBRANCH  25  26
ENDBRANCH   5  25
BRANCH   5  30
HETATM   30  C   UNL     1      -7.322   8.097  68.534  1.00  0.00    -0.093 C  
HETATM   31  O   UNL     1      -6.308   8.041  67.811  1.00  0.00    -0.050 OA 
BRANCH  30  32
HETATM   32  C   UNL     1      -7.259   7.217  69.799  1.00  0.00    -0.082 C  
BRANCH  32  33
HETATM   33  O   UNL     1      -7.402   5.813  69.448  1.00  0.00    -0.068 OA 
BRANCH  33  34
HETATM   34  C   UNL     1      -8.006   5.032  70.391  1.00  0.00    -0.084 C  
HETATM   35  O   UNL     1      -7.555   4.858  71.515  1.00  0.00    -0.079 OA 
BRANCH  34  36
HETATM   36  C   UNL     1      -9.298   4.427  69.872  1.00  0.00    -0.225 C  
HETATM   37  C   UNL     1      -9.224   4.131  68.378  1.00  0.00    -0.198 C  
ENDBRANCH  34  36
ENDBRANCH  33  34
ENDBRANCH  32  33
ENDBRANCH  30  32
ENDBRANCH   5  30
TORSDOF 8
ENDMDL
MODEL       64
REMARK 921   NORMALIZED FREE ENERGY PREDICTED BY IDOCK:   -4.03 KCAL/MOL
REMARK 922        TOTAL FREE ENERGY PREDICTED BY IDOCK:   -5.64 KCAL/MOL
REMARK 923 INTER-LIGAND FREE ENERGY PREDICTED BY IDOCK:   -6.24 KCAL/MOL
REMARK 924 INTRA-LIGAND FREE ENERGY PREDICTED BY IDOCK:    0.59 KCAL/MOL
REMARK 927      BINDING AFFINITY PREDICTED BY RF-SCORE:    0.00 PKD
ROOT
HETATM    1  C   UNL     1     -10.800   7.262  68.958  1.00  0.00    -0.137 C  
HETATM    2  C   UNL     1     -10.947   6.496  67.775  1.00  0.00    -0.407 C  
HETATM    3  C   UNL     1      -9.594   6.535  68.431  1.00  0.00    -0.122 C  
HETATM    4  C   UNL     1      -8.725   5.344  67.486  1.00  0.00    -0.107 C  
HETATM    5  C   UNL     1      -9.602   7.070  70.438  1.00  0.00    -0.169 C  
HETATM    6  C   UNL     1      -9.834  11.254  66.846  1.00  0.00    -0.220 C  
HETATM    7 CL   UNL     1      -9.108   8.362  66.057  1.00  0.00    -0.229 Cl 
HETATM    8  C   UNL     1      -9.406   6.013  69.613  1.00  0.00    -0.161 C  
HETATM    9  C   UNL     1      -7.670   6.825  69.421  1.00  0.00    -0.105 C  
HETATM   10  C   UNL     1      -9.903   4.558  69.953  1.00  0.00    -0.298 C  
HETATM   11  C   UNL     1     -10.954  11.201  67.875  1.00  0.00    -0.307 C  
HETATM   12  O   UNL     1      -9.544  14.610  66.539  1.00  0.00    -0.261 OA 
HETATM   13  C   UNL     1     -11.392   9.765  68.128  1.00  0.00     0.058 C  
HETATM   14  C   UNL     1      -8.192  13.115  67.839  1.00  0.00    -0.162 C  
HETATM   15  C   UNL     1     -10.232   8.934  68.681  1.00  0.00    -0.221 C  
HETATM   16  C   UNL     1      -7.594   8.419  68.738  1.00  0.00    -0.101 C  
HETATM   17  C   UNL     1      -9.220  13.456  66.783  1.00  0.00    -0.236 C  
HETATM   18  C   UNL     1      -8.825   9.177  67.863  1.00  0.00    -0.128 C  
HETATM   19  C   UNL     1      -7.375  10.552  66.202  1.00  0.00    -0.136 C  
HETATM   20  C   UNL     1      -9.798  12.303  66.002  1.00  0.00    -0.263 C  
HETATM   21  O   UNL     1      -7.222   9.282  69.830  1.00  0.00    -0.058 OA 
HETATM   22  H   UNL     1      -7.180  10.155  69.456  1.00  0.00     0.000 HD 
HETATM   23  C   UNL     1      -8.481  10.673  67.341  1.00  0.00    -0.122 C  
HETATM   24  C   UNL     1      -7.888  11.830  68.158  1.00  0.00    -0.135 C  
ENDROOT
BRANCH   5  25
HETATM   25  O   UNL     1     -10.920   6.839  71.185  1.00  0.00    -0.242 OA 
BRANCH  25  26
HETATM   26  C   UNL     1     -11.543   7.894  71.802  1.00  0.00    -0.278 C  
HETATM   27  O   UNL     1     -10.944   8.836  72.301  1.00  0.00    -0.359 OA 
BRANCH  26  28
HETATM   28  C   UNL     1     -13.045   7.699  71.803  1.00  0.00    -0.359 C  
HETATM   29  C   UNL     1     -13.837   8.999  71.785  1.00  0.00    -0.453 C  
ENDBRANCH  26  28
ENDBRANCH  25  26
ENDBRANCH   5  25
BRANCH   5  30
HETATM   30  C   UNL     1      -8.758   6.302  71.742  1.00  0.00    -0.133 C  
HETATM   31  O   UNL     1      -9.286   5.755  72.731  1.00  0.00    -0.145 OA 
BRANCH  30  32
HETATM   32  C   UNL     1      -7.222   6.192  71.690  1.00  0.00    -0.087 C  
BRANCH  32  33
HETATM   33  O   UNL     1      -6.786   4.916  72.234  1.00  0.00    -0.044 OA 
BRANCH  33  34
HETATM   34  C   UNL     1      -6.343   4.007  71.315  1.00  0.00    -0.015 C  
HETATM   35  O   UNL     1      -5.477   4.250  70.487  1.00  0.00    -0.010 OA 
BRANCH  34  36
HETATM   36  C   UNL     1      -7.050   2.672  71.465  1.00  0.00    -0.032 C  
HETATM   37  C   UNL     1      -7.855   2.599  72.759  1.00  0.00    -0.054 C  
ENDBRANCH  34  36
ENDBRANCH  33  34
ENDBRANCH  32  33
ENDBRANCH  30  32
ENDBRANCH   5  30
TORSDOF 8
ENDMDL
MODEL       65
REMARK 921   NORMALIZED FREE ENERGY PREDICTED BY IDOCK:   -4.02 KCAL/MOL
REMARK 922        TOTAL FREE ENERGY PREDICTED BY IDOCK:   -5.64 KCAL/MOL
REMARK 923 INTER-LIGAND FREE ENERGY PREDICTED BY IDOCK:   -6.78 KCAL/MOL
REMARK 924 INTRA-LIGAND FREE ENERGY PREDICTED BY IDOCK:    1.14 KCAL/MOL
REMARK 927      BINDING AFFINITY PREDICTED BY RF-SCORE:    0.00 PKD
ROOT
HETATM    1  C   UNL     1      -8.995   8.829  71.599  1.00  0.00    -0.301 C  
HETATM    2  C   UNL     1      -7.640   9.117  71.893  1.00  0.00     0.281 C  
HETATM    3  C   UNL     1      -7.968   8.559  70.535  1.00  0.00    -0.095 C  
HETATM    4  C   UNL     1      -6.418   8.696  69.730  1.00  0.00    -0.038 C  
HETATM    5  C   UNL     1      -9.942   8.800  69.935  1.00  0.00    -0.187 C  
HETATM    6  C   UNL     1      -8.968   4.536  73.301  1.00  0.00    -0.116 C  
HETATM    7 CL   UNL     1      -6.747   6.114  71.857  1.00  0.00    -0.062 Cl 
HETATM    8  C   UNL     1      -8.685   9.242  69.684  1.00  0.00    -0.155 C  
HETATM    9  C   UNL     1      -8.597   7.603  68.677  1.00  0.00    -0.129 C  
HETATM   10  C   UNL     1      -8.355  10.747  69.359  1.00  0.00    -0.018 C  
HETATM   11  C   UNL     1     -10.027   5.524  73.771  1.00  0.00    -0.197 C  
HETATM   12  O   UNL     1     -10.295   1.688  74.555  1.00  0.00    -0.103 OA 
HETATM   13  C   UNL     1      -9.622   6.953  73.441  1.00  0.00    -0.202 C  
HETATM   14  C   UNL     1     -10.421   2.523  72.310  1.00  0.00    -0.059 C  
HETATM   15  C   UNL     1      -9.472   7.138  71.929  1.00  0.00    -0.157 C  
HETATM   16  C   UNL     1      -8.781   6.111  69.543  1.00  0.00    -0.130 C  
HETATM   17  C   UNL     1      -9.879   2.480  73.721  1.00  0.00    -0.096 C  
HETATM   18  C   UNL     1      -8.633   5.916  71.215  1.00  0.00    -0.129 C  
HETATM   19  C   UNL     1      -7.621   3.523  71.273  1.00  0.00    -0.048 C  
HETATM   20  C   UNL     1      -8.756   3.434  74.044  1.00  0.00    -0.087 C  
HETATM   21  O   UNL     1     -10.065   5.594  69.142  1.00  0.00    -0.172 OA 
HETATM   22  H   UNL     1     -10.165   4.777  69.616  1.00  0.00     0.000 HD 
HETATM   23  C   UNL     1      -8.856   4.404  71.757  1.00  0.00    -0.145 C  
HETATM   24  C   UNL     1     -10.009   3.452  71.409  1.00  0.00    -0.135 C  
ENDROOT
BRANCH   5  25
HETATM   25  O   UNL     1     -10.709   9.942  70.610  1.00  0.00    -0.296 OA 
BRANCH  25  26
HETATM   26  C   UNL     1     -12.056   9.812  70.838  1.00  0.00    -0.321 C  
HETATM   27  O   UNL     1     -12.859  10.719  70.675  1.00  0.00    -0.340 OA 
BRANCH  26  28
HETATM   28  C   UNL     1     -12.378   8.422  71.345  1.00  0.00    -0.328 C  
HETATM   29  C   UNL     1     -13.663   8.344  72.159  1.00  0.00    -0.378 C  
ENDBRANCH  26  28
ENDBRANCH  25  26
ENDBRANCH   5  25
BRANCH   5  30
HETATM   30  C   UNL     1     -10.521   9.354  68.399  1.00  0.00    -0.218 C  
HETATM   31  O   UNL     1     -10.887   8.629  67.453  1.00  0.00    -0.211 OA 
BRANCH  30  32
HETATM   32  C   UNL     1     -10.687  10.867  68.152  1.00  0.00    -0.214 C  
BRANCH  32  33
HETATM   33  O   UNL     1     -10.219  11.219  66.822  1.00  0.00    -0.212 OA 
BRANCH  33  34
HETATM   34  C   UNL     1     -11.158  11.763  65.994  1.00  0.00    -0.312 C  
HETATM   35  O   UNL     1     -12.103  12.431  66.390  1.00  0.00    -0.607 OA 
BRANCH  34  36
HETATM   36  C   UNL     1     -10.871  11.445  64.537  1.00  0.00    -0.375 C  
HETATM   37  C   UNL     1     -12.048  11.805  63.637  1.00  0.00    -0.486 C  
ENDBRANCH  34  36
ENDBRANCH  33  34
ENDBRANCH  32  33
ENDBRANCH  30  32
ENDBRANCH   5  30
TORSDOF 8
ENDMDL
MODEL       66
REMARK 921   NORMALIZED FREE ENERGY PREDICTED BY IDOCK:   -4.02 KCAL/MOL
REMARK 922        TOTAL FREE ENERGY PREDICTED BY IDOCK:   -5.63 KCAL/MOL
REMARK 923 INTER-LIGAND FREE ENERGY PREDICTED BY IDOCK:   -6.56 KCAL/MOL
REMARK 924 INTRA-LIGAND FREE ENERGY PREDICTED BY IDOCK:    0.93 KCAL/MOL
REMARK 927      BINDING AFFINITY PREDICTED BY RF-SCORE:    0.00 PKD
ROOT
HETATM    1  C   UNL     1      -8.084  10.609  66.811  1.00  0.00    -0.131 C  
HETATM    2  C   UNL     1      -8.244  10.008  65.538  1.00  0.00    -0.146 C  
HETATM    3  C   UNL     1      -9.462  10.582  66.210  1.00  0.00    -0.217 C  
HETATM    4  C   UNL     1     -10.652  10.437  64.933  1.00  0.00     0.031 C  
HETATM    5  C   UNL     1      -9.074  11.999  67.678  1.00  0.00    -0.179 C  
HETATM    6  C   UNL     1      -8.626   6.731  69.260  1.00  0.00    -0.129 C  
HETATM    7 CL   UNL     1      -9.952   7.615  66.620  1.00  0.00    -0.303 Cl 
HETATM    8  C   UNL     1      -9.568  11.866  66.423  1.00  0.00    -0.239 C  
HETATM    9  C   UNL     1     -11.143  11.323  67.388  1.00  0.00    -0.358 C  
HETATM   10  C   UNL     1      -9.291  12.911  65.277  1.00  0.00     0.400 C  
HETATM   11  C   UNL     1      -7.396   7.599  69.490  1.00  0.00    -0.086 C  
HETATM   12  O   UNL     1      -8.361   4.700  71.953  1.00  0.00    -0.105 OA 
HETATM   13  C   UNL     1      -7.186   8.562  68.331  1.00  0.00    -0.085 C  
HETATM   14  C   UNL     1      -9.756   6.633  71.680  1.00  0.00    -0.170 C  
HETATM   15  C   UNL     1      -8.383   9.504  68.184  1.00  0.00    -0.118 C  
HETATM   16  C   UNL     1     -11.035   9.902  68.378  1.00  0.00    -0.187 C  
HETATM   17  C   UNL     1      -8.846   5.528  71.193  1.00  0.00    -0.134 C  
HETATM   18  C   UNL     1      -9.828   8.722  68.283  1.00  0.00    -0.185 C  
HETATM   19  C   UNL     1     -11.236   6.627  68.900  1.00  0.00    -0.273 C  
HETATM   20  C   UNL     1      -8.596   5.461  69.707  1.00  0.00    -0.100 C  
HETATM   21  O   UNL     1     -11.090  10.380  69.736  1.00  0.00    -0.254 OA 
HETATM   22  H   UNL     1     -11.031   9.602  70.278  1.00  0.00     0.000 HD 
HETATM   23  C   UNL     1      -9.975   7.497  69.335  1.00  0.00    -0.178 C  
HETATM   24  C   UNL     1     -10.232   7.594  70.845  1.00  0.00    -0.202 C  
ENDROOT
BRANCH   5  25
HETATM   25  O   UNL     1      -7.724  12.717  67.572  1.00  0.00    -0.146 OA 
BRANCH  25  26
HETATM   26  C   UNL     1      -6.977  12.928  68.704  1.00  0.00    -0.101 C  
HETATM   27  O   UNL     1      -6.879  12.113  69.610  1.00  0.00    -0.031 OA 
BRANCH  26  28
HETATM   28  C   UNL     1      -6.344  14.303  68.676  1.00  0.00    -0.088 C  
HETATM   29  C   UNL     1      -7.045  15.324  69.562  1.00  0.00    -0.201 C  
ENDBRANCH  26  28
ENDBRANCH  25  26
ENDBRANCH   5  25
BRANCH   5  30
HETATM   30  C   UNL     1      -9.844  13.536  67.896  1.00  0.00    -0.235 C  
HETATM   31  O   UNL     1     -10.620  13.838  68.824  1.00  0.00    -0.248 OA 
BRANCH  30  32
HETATM   32  C   UNL     1      -9.520  14.690  66.927  1.00  0.00    -0.246 C  
BRANCH  32  33
HETATM   33  O   UNL     1     -10.732  15.413  66.575  1.00  0.00    -0.303 OA 
BRANCH  33  34
HETATM   34  C   UNL     1     -10.603  16.311  65.554  1.00  0.00    -0.353 C  
HETATM   35  O   UNL     1      -9.874  17.292  65.605  1.00  0.00    -0.548 OA 
BRANCH  34  36
HETATM   36  C   UNL     1     -11.463  15.930  64.363  1.00  0.00    -0.268 C  
HETATM   37  C   UNL     1     -12.257  14.654  64.623  1.00  0.00    -0.447 C  
ENDBRANCH  34  36
ENDBRANCH  33  34
ENDBRANCH  32  33
ENDBRANCH  30  32
ENDBRANCH   5  30
TORSDOF 8
ENDMDL
MODEL       67
REMARK 921   NORMALIZED FREE ENERGY PREDICTED BY IDOCK:   -4.00 KCAL/MOL
REMARK 922        TOTAL FREE ENERGY PREDICTED BY IDOCK:   -5.60 KCAL/MOL
REMARK 923 INTER-LIGAND FREE ENERGY PREDICTED BY IDOCK:   -6.19 KCAL/MOL
REMARK 924 INTRA-LIGAND FREE ENERGY PREDICTED BY IDOCK:    0.59 KCAL/MOL
REMARK 927      BINDING AFFINITY PREDICTED BY RF-SCORE:    0.00 PKD
ROOT
HETATM    1  C   UNL     1     -10.594   7.766  68.735  1.00  0.00    -0.161 C  
HETATM    2  C   UNL     1     -11.502   7.398  69.758  1.00  0.00     0.038 C  
HETATM    3  C   UNL     1     -10.278   8.184  70.144  1.00  0.00    -0.199 C  
HETATM    4  C   UNL     1     -10.614   8.525  71.829  1.00  0.00    -0.371 C  
HETATM    5  C   UNL     1      -9.387   9.246  68.597  1.00  0.00    -0.139 C  
HETATM    6  C   UNL     1      -8.089   3.889  68.881  1.00  0.00    -0.075 C  
HETATM    7 CL   UNL     1      -9.504   5.427  71.149  1.00  0.00    -0.189 Cl 
HETATM    8  C   UNL     1     -10.111   9.411  69.731  1.00  0.00    -0.229 C  
HETATM    9  C   UNL     1      -8.382   9.186  70.549  1.00  0.00    -0.222 C  
HETATM   10  C   UNL     1     -11.256  10.483  69.868  1.00  0.00    -0.374 C  
HETATM   11  C   UNL     1      -8.663   4.363  67.553  1.00  0.00    -0.112 C  
HETATM   12  O   UNL     1      -5.951   1.532  67.732  1.00  0.00    -0.019 OA 
HETATM   13  C   UNL     1      -9.776   5.376  67.773  1.00  0.00    -0.160 C  
HETATM   14  C   UNL     1      -5.462   3.784  68.398  1.00  0.00    -0.013 C  
HETATM   15  C   UNL     1      -9.248   6.613  68.502  1.00  0.00    -0.127 C  
HETATM   16  C   UNL     1      -7.568   7.672  70.314  1.00  0.00    -0.089 C  
HETATM   17  C   UNL     1      -6.329   2.549  68.297  1.00  0.00    -0.029 C  
HETATM   18  C   UNL     1      -8.286   6.237  69.783  1.00  0.00    -0.125 C  
HETATM   19  C   UNL     1      -6.855   4.530  71.122  1.00  0.00    -0.035 C  
HETATM   20  C   UNL     1      -7.676   2.611  68.972  1.00  0.00    -0.048 C  
HETATM   21  O   UNL     1      -6.458   7.969  69.443  1.00  0.00    -0.034 OA 
HETATM   22  H   UNL     1      -6.012   7.140  69.315  1.00  0.00     0.000 HD 
HETATM   23  C   UNL     1      -7.282   4.970  69.652  1.00  0.00    -0.056 C  
HETATM   24  C   UNL     1      -5.912   4.936  68.960  1.00  0.00    -0.021 C  
ENDROOT
BRANCH   5  25
HETATM   25  O   UNL     1     -10.297   9.587  67.412  1.00  0.00    -0.224 OA 
BRANCH  25  26
HETATM   26  C   UNL     1      -9.790   9.553  66.137  1.00  0.00    -0.272 C  
HETATM   27  O   UNL     1      -8.896   8.797  65.785  1.00  0.00    -0.172 OA 
BRANCH  26  28
HETATM   28  C   UNL     1     -10.464  10.595  65.268  1.00  0.00    -0.264 C  
HETATM   29  C   UNL     1      -9.830  10.755  63.893  1.00  0.00    -0.389 C  
ENDBRANCH  26  28
ENDBRANCH  25  26
ENDBRANCH   5  25
BRANCH   5  30
HETATM   30  C   UNL     1      -8.842  10.890  68.618  1.00  0.00    -0.158 C  
HETATM   31  O   UNL     1      -7.663  11.266  68.767  1.00  0.00    -0.127 OA 
BRANCH  30  32
HETATM   32  C   UNL     1      -9.852  12.027  68.363  1.00  0.00    -0.204 C  
BRANCH  32  33
HETATM   33  O   UNL     1      -9.233  13.093  67.593  1.00  0.00    -0.189 OA 
BRANCH  33  34
HETATM   34  C   UNL     1     -10.098  13.968  67.000  1.00  0.00    -0.255 C  
HETATM   35  O   UNL     1      -9.738  14.937  66.348  1.00  0.00    -0.254 OA 
BRANCH  34  36
HETATM   36  C   UNL     1     -11.544  13.575  67.245  1.00  0.00    -0.398 C  
HETATM   37  C   UNL     1     -12.375  13.650  65.968  1.00  0.00    -0.493 C  
ENDBRANCH  34  36
ENDBRANCH  33  34
ENDBRANCH  32  33
ENDBRANCH  30  32
ENDBRANCH   5  30
TORSDOF 8
ENDMDL
MODEL       68
REMARK 921   NORMALIZED FREE ENERGY PREDICTED BY IDOCK:   -3.98 KCAL/MOL
REMARK 922        TOTAL FREE ENERGY PREDICTED BY IDOCK:   -5.58 KCAL/MOL
REMARK 923 INTER-LIGAND FREE ENERGY PREDICTED BY IDOCK:   -5.45 KCAL/MOL
REMARK 924 INTRA-LIGAND FREE ENERGY PREDICTED BY IDOCK:   -0.13 KCAL/MOL
REMARK 927      BINDING AFFINITY PREDICTED BY RF-SCORE:    0.00 PKD
ROOT
HETATM    1  C   UNL     1      -8.282  10.449  68.629  1.00  0.00    -0.121 C  
HETATM    2  C   UNL     1      -7.475  11.234  69.489  1.00  0.00     0.073 C  
HETATM    3  C   UNL     1      -6.828  10.087  68.760  1.00  0.00    -0.057 C  
HETATM    4  C   UNL     1      -5.142  10.342  69.159  1.00  0.00    -0.035 C  
HETATM    5  C   UNL     1      -7.838   9.437  67.065  1.00  0.00    -0.098 C  
HETATM    6  C   UNL     1      -9.738   7.500  71.871  1.00  0.00    -0.191 C  
HETATM    7 CL   UNL     1      -7.022   8.925  71.558  1.00  0.00    -0.095 Cl 
HETATM    8  C   UNL     1      -6.720  10.094  67.459  1.00  0.00    -0.072 C  
HETATM    9  C   UNL     1      -6.090   8.298  67.751  1.00  0.00    -0.048 C  
HETATM   10  C   UNL     1      -6.147  11.346  66.694  1.00  0.00    -0.140 C  
HETATM   11  C   UNL     1     -10.757   8.217  70.996  1.00  0.00    -0.256 C  
HETATM   12  O   UNL     1     -11.769   5.186  73.272  1.00  0.00    -0.264 OA 
HETATM   13  C   UNL     1     -10.132   9.424  70.312  1.00  0.00    -0.288 C  
HETATM   14  C   UNL     1     -10.268   4.919  71.420  1.00  0.00    -0.257 C  
HETATM   15  C   UNL     1      -8.978   8.996  69.403  1.00  0.00    -0.145 C  
HETATM   16  C   UNL     1      -6.923   7.330  68.925  1.00  0.00    -0.078 C  
HETATM   17  C   UNL     1     -10.839   5.640  72.621  1.00  0.00    -0.256 C  
HETATM   18  C   UNL     1      -7.971   7.909  70.118  1.00  0.00    -0.107 C  
HETATM   19  C   UNL     1      -7.450   6.198  72.003  1.00  0.00    -0.095 C  
HETATM   20  C   UNL     1     -10.173   6.935  73.014  1.00  0.00    -0.243 C  
HETATM   21  O   UNL     1      -7.622   6.326  68.162  1.00  0.00    -0.098 OA 
HETATM   22  H   UNL     1      -8.078   5.796  68.804  1.00  0.00     0.000 HD 
HETATM   23  C   UNL     1      -8.614   6.775  71.082  1.00  0.00    -0.132 C  
HETATM   24  C   UNL     1      -9.285   5.462  70.656  1.00  0.00    -0.183 C  
ENDROOT
BRANCH   5  25
HETATM   25  O   UNL     1      -8.773  10.461  66.413  1.00  0.00    -0.136 OA 
BRANCH  25  26
HETATM   26  C   UNL     1      -9.971  10.047  65.887  1.00  0.00    -0.269 C  
HETATM   27  O   UNL     1     -10.559   9.041  66.257  1.00  0.00    -0.083 OA 
BRANCH  26  28
HETATM   28  C   UNL     1     -10.419  10.980  64.782  1.00  0.00    -0.384 C  
HETATM   29  C   UNL     1     -10.452  12.447  65.189  1.00  0.00    -0.321 C  
ENDBRANCH  26  28
ENDBRANCH  25  26
ENDBRANCH   5  25
BRANCH   5  30
HETATM   30  C   UNL     1      -7.171   9.089  65.505  1.00  0.00    -0.085 C  
HETATM   31  O   UNL     1      -6.657   9.920  64.729  1.00  0.00    -0.107 OA 
BRANCH  30  32
HETATM   32  C   UNL     1      -7.117   7.630  65.012  1.00  0.00    -0.063 C  
BRANCH  32  33
HETATM   33  O   UNL     1      -8.277   6.891  65.484  1.00  0.00    -0.126 OA 
BRANCH  33  34
HETATM   34  C   UNL     1      -8.513   5.704  64.852  1.00  0.00    -0.122 C  
HETATM   35  O   UNL     1      -7.976   5.377  63.803  1.00  0.00    -0.094 OA 
BRANCH  34  36
HETATM   36  C   UNL     1      -9.508   4.851  65.619  1.00  0.00    -0.168 C  
HETATM   37  C   UNL     1     -10.414   5.698  66.507  1.00  0.00    -0.309 C  
ENDBRANCH  34  36
ENDBRANCH  33  34
ENDBRANCH  32  33
ENDBRANCH  30  32
ENDBRANCH   5  30
TORSDOF 8
ENDMDL
MODEL       69
REMARK 921   NORMALIZED FREE ENERGY PREDICTED BY IDOCK:   -3.93 KCAL/MOL
REMARK 922        TOTAL FREE ENERGY PREDICTED BY IDOCK:   -5.51 KCAL/MOL
REMARK 923 INTER-LIGAND FREE ENERGY PREDICTED BY IDOCK:   -5.66 KCAL/MOL
REMARK 924 INTRA-LIGAND FREE ENERGY PREDICTED BY IDOCK:    0.15 KCAL/MOL
REMARK 927      BINDING AFFINITY PREDICTED BY RF-SCORE:    0.00 PKD
ROOT
HETATM    1  C   UNL     1      -7.078   7.684  68.150  1.00  0.00    -0.081 C  
HETATM    2  C   UNL     1      -6.677   7.757  69.507  1.00  0.00    -0.043 C  
HETATM    3  C   UNL     1      -7.979   7.074  69.187  1.00  0.00    -0.119 C  
HETATM    4  C   UNL     1      -8.406   6.412  70.751  1.00  0.00    -0.126 C  
HETATM    5  C   UNL     1      -8.169   6.410  67.228  1.00  0.00    -0.113 C  
HETATM    6  C   UNL     1      -9.251  11.758  68.056  1.00  0.00    -0.181 C  
HETATM    7 CL   UNL     1      -8.998   9.694  70.333  1.00  0.00    -0.280 Cl 
HETATM    8  C   UNL     1      -8.004   5.965  68.498  1.00  0.00    -0.102 C  
HETATM    9  C   UNL     1      -9.906   6.259  68.564  1.00  0.00    -0.152 C  
HETATM   10  C   UNL     1      -7.069   4.752  68.867  1.00  0.00    -0.053 C  
HETATM   11  C   UNL     1      -8.186  11.451  67.013  1.00  0.00    -0.160 C  
HETATM   12  O   UNL     1     -10.601  14.521  66.648  1.00  0.00    -0.277 OA 
HETATM   13  C   UNL     1      -7.313  10.285  67.454  1.00  0.00    -0.093 C  
HETATM   14  C   UNL     1     -11.416  12.267  66.573  1.00  0.00    -0.438 C  
HETATM   15  C   UNL     1      -8.150   9.017  67.631  1.00  0.00    -0.109 C  
HETATM   16  C   UNL     1     -10.482   7.880  68.335  1.00  0.00    -0.166 C  
HETATM   17  C   UNL     1     -10.540  13.384  67.094  1.00  0.00    -0.259 C  
HETATM   18  C   UNL     1      -9.550   9.284  68.453  1.00  0.00    -0.158 C  
HETATM   19  C   UNL     1     -11.345  10.901  69.411  1.00  0.00    -0.347 C  
HETATM   20  C   UNL     1      -9.612  13.043  68.232  1.00  0.00    -0.213 C  
HETATM   21  O   UNL     1     -11.126   7.875  67.046  1.00  0.00    -0.419 OA 
HETATM   22  H   UNL     1     -11.442   8.762  66.920  1.00  0.00     0.000 HD 
HETATM   23  C   UNL     1     -10.351  10.669  68.188  1.00  0.00    -0.203 C  
HETATM   24  C   UNL     1     -11.294  10.989  67.020  1.00  0.00    -0.164 C  
ENDROOT
BRANCH   5  25
HETATM   25  O   UNL     1      -6.856   6.166  66.477  1.00  0.00    -0.058 OA 
BRANCH  25  26
HETATM   26  C   UNL     1      -6.786   6.431  65.132  1.00  0.00    -0.046 C  
HETATM   27  O   UNL     1      -6.045   5.836  64.364  1.00  0.00    -0.024 OA 
BRANCH  26  28
HETATM   28  C   UNL     1      -7.713   7.571  64.765  1.00  0.00    -0.117 C  
HETATM   29  C   UNL     1      -7.018   8.733  64.069  1.00  0.00    -0.086 C  
ENDBRANCH  26  28
ENDBRANCH  25  26
ENDBRANCH   5  25
BRANCH   5  30
HETATM   30  C   UNL     1      -8.736   4.865  66.684  1.00  0.00    -0.108 C  
HETATM   31  O   UNL     1      -8.269   3.758  67.017  1.00  0.00    -0.094 OA 
BRANCH  30  32
HETATM   32  C   UNL     1      -9.970   4.793  65.764  1.00  0.00    -0.207 C  
BRANCH  32  33
HETATM   33  O   UNL     1     -10.159   3.437  65.273  1.00  0.00    -0.013 OA 
BRANCH  33  34
HETATM   34  C   UNL     1     -10.240   3.311  63.916  1.00  0.00    -0.207 C  
HETATM   35  O   UNL     1     -11.266   3.003  63.325  1.00  0.00    -0.242 OA 
BRANCH  34  36
HETATM   36  C   UNL     1      -8.910   3.610  63.246  1.00  0.00    -0.097 C  
HETATM   37  C   UNL     1      -8.990   4.847  62.358  1.00  0.00    -0.104 C  
ENDBRANCH  34  36
ENDBRANCH  33  34
ENDBRANCH  32  33
ENDBRANCH  30  32
ENDBRANCH   5  30
TORSDOF 8
ENDMDL
MODEL       70
REMARK 921   NORMALIZED FREE ENERGY PREDICTED BY IDOCK:   -3.89 KCAL/MOL
REMARK 922        TOTAL FREE ENERGY PREDICTED BY IDOCK:   -5.44 KCAL/MOL
REMARK 923 INTER-LIGAND FREE ENERGY PREDICTED BY IDOCK:   -5.86 KCAL/MOL
REMARK 924 INTRA-LIGAND FREE ENERGY PREDICTED BY IDOCK:    0.42 KCAL/MOL
REMARK 927      BINDING AFFINITY PREDICTED BY RF-SCORE:    0.00 PKD
ROOT
HETATM    1  C   UNL     1      -7.874   9.520  67.652  1.00  0.00    -0.102 C  
HETATM    2  C   UNL     1      -8.228   8.617  66.619  1.00  0.00    -0.107 C  
HETATM    3  C   UNL     1      -9.259   9.615  67.073  1.00  0.00    -0.167 C  
HETATM    4  C   UNL     1     -10.523   9.357  65.889  1.00  0.00     0.231 C  
HETATM    5  C   UNL     1      -8.500  11.285  68.047  1.00  0.00    -0.138 C  
HETATM    6  C   UNL     1      -9.076   6.761  71.155  1.00  0.00    -0.151 C  
HETATM    7 CL   UNL     1     -10.335   7.085  68.359  1.00  0.00    -0.202 Cl 
HETATM    8  C   UNL     1      -9.082  10.895  66.887  1.00  0.00    -0.164 C  
HETATM    9  C   UNL     1     -10.679  11.018  67.956  1.00  0.00    -0.260 C  
HETATM   10  C   UNL     1      -8.657  11.465  65.481  1.00  0.00     0.100 C  
HETATM   11  C   UNL     1      -7.681   7.371  71.123  1.00  0.00    -0.090 C  
HETATM   12  O   UNL     1      -9.091   5.618  74.338  1.00  0.00    -0.120 OA 
HETATM   13  C   UNL     1      -7.340   7.875  69.729  1.00  0.00    -0.078 C  
HETATM   14  C   UNL     1     -10.063   7.636  73.480  1.00  0.00    -0.345 C  
HETATM   15  C   UNL     1      -8.319   8.966  69.292  1.00  0.00    -0.119 C  
HETATM   16  C   UNL     1     -10.814   9.968  69.330  1.00  0.00    -0.239 C  
HETATM   17  C   UNL     1      -9.433   6.266  73.359  1.00  0.00    -0.139 C  
HETATM   18  C   UNL     1      -9.888   8.582  69.609  1.00  0.00    -0.183 C  
HETATM   19  C   UNL     1     -11.666   7.123  70.818  1.00  0.00    -0.363 C  
HETATM   20  C   UNL     1      -9.288   5.707  71.966  1.00  0.00    -0.165 C  
HETATM   21  O   UNL     1     -10.691  10.829  70.479  1.00  0.00    -0.381 OA 
HETATM   22  H   UNL     1     -10.766  10.255  71.232  1.00  0.00     0.000 HD 
HETATM   23  C   UNL     1     -10.228   7.788  70.981  1.00  0.00    -0.210 C  
HETATM   24  C   UNL     1     -10.374   8.383  72.389  1.00  0.00    -0.399 C  
ENDROOT
BRANCH   5  25
HETATM   25  O   UNL     1      -7.039  11.629  67.742  1.00  0.00    -0.082 OA 
BRANCH  25  26
HETATM   26  C   UNL     1      -6.290  12.299  68.677  1.00  0.00    -0.071 C  
HETATM   27  O   UNL     1      -5.652  13.312  68.432  1.00  0.00    -0.072 OA 
BRANCH  26  28
HETATM   28  C   UNL     1      -6.344  11.586  70.012  1.00  0.00    -0.116 C  
HETATM   29  C   UNL     1      -5.214  11.964  70.960  1.00  0.00    -0.128 C  
ENDBRANCH  26  28
ENDBRANCH  25  26
ENDBRANCH   5  25
BRANCH   5  30
HETATM   30  C   UNL     1      -8.919  12.946  67.782  1.00  0.00    -0.191 C  
HETATM   31  O   UNL     1      -9.132  13.477  66.674  1.00  0.00    -0.234 OA 
BRANCH  30  32
HETATM   32  C   UNL     1      -9.130  13.877  68.993  1.00  0.00     0.220 C  
BRANCH  32  33
HETATM   33  O   UNL     1      -9.620  15.174  68.556  1.00  0.00    -0.201 OA 
BRANCH  33  34
HETATM   34  C   UNL     1     -10.809  15.566  69.102  1.00  0.00    -0.251 C  
HETATM   35  O   UNL     1     -11.575  16.352  68.562  1.00  0.00    -0.302 OA 
BRANCH  34  36
HETATM   36  C   UNL     1     -11.055  14.898  70.443  1.00  0.00    -0.212 C  
HETATM   37  C   UNL     1     -12.337  14.071  70.435  1.00  0.00    -0.429 C  
ENDBRANCH  34  36
ENDBRANCH  33  34
ENDBRANCH  32  33
ENDBRANCH  30  32
ENDBRANCH   5  30
TORSDOF 8
ENDMDL
MODEL       71
REMARK 921   NORMALIZED FREE ENERGY PREDICTED BY IDOCK:   -3.84 KCAL/MOL
REMARK 922        TOTAL FREE ENERGY PREDICTED BY IDOCK:   -5.37 KCAL/MOL
REMARK 923 INTER-LIGAND FREE ENERGY PREDICTED BY IDOCK:   -5.15 KCAL/MOL
REMARK 924 INTRA-LIGAND FREE ENERGY PREDICTED BY IDOCK:   -0.22 KCAL/MOL
REMARK 927      BINDING AFFINITY PREDICTED BY RF-SCORE:    0.00 PKD
ROOT
HETATM    1  C   UNL     1      -8.355   7.217  65.343  1.00  0.00    -0.122 C  
HETATM    2  C   UNL     1      -7.650   8.292  64.749  1.00  0.00    -0.103 C  
HETATM    3  C   UNL     1      -6.908   7.400  65.707  1.00  0.00    -0.056 C  
HETATM    4  C   UNL     1      -5.270   7.993  65.522  1.00  0.00    -0.028 C  
HETATM    5  C   UNL     1      -7.748   5.522  65.995  1.00  0.00    -0.095 C  
HETATM    6  C   UNL     1      -9.992   9.622  68.929  1.00  0.00    -0.186 C  
HETATM    7 CL   UNL     1      -7.304   9.862  67.438  1.00  0.00    -0.090 Cl 
HETATM    8  C   UNL     1      -6.688   6.144  65.423  1.00  0.00    -0.047 C  
HETATM    9  C   UNL     1      -6.030   6.108  67.232  1.00  0.00    -0.017 C  
HETATM   10  C   UNL     1      -6.091   5.714  64.031  1.00  0.00    -0.025 C  
HETATM   11  C   UNL     1     -10.954   8.829  68.055  1.00  0.00     0.066 C  
HETATM   12  O   UNL     1     -12.063  10.317  71.513  1.00  0.00    -0.370 OA 
HETATM   13  C   UNL     1     -10.310   8.474  66.724  1.00  0.00    -0.346 C  
HETATM   14  C   UNL     1     -10.401   8.593  71.362  1.00  0.00    -0.331 C  
HETATM   15  C   UNL     1      -9.070   7.603  66.935  1.00  0.00    -0.171 C  
HETATM   16  C   UNL     1      -6.931   6.972  68.438  1.00  0.00    -0.076 C  
HETATM   17  C   UNL     1     -11.095   9.862  70.920  1.00  0.00    -0.348 C  
HETATM   18  C   UNL     1      -8.094   8.161  68.137  1.00  0.00    -0.128 C  
HETATM   19  C   UNL     1      -7.684   9.684  70.203  1.00  0.00    -0.179 C  
HETATM   20  C   UNL     1     -10.505  10.577  69.730  1.00  0.00    -0.245 C  
HETATM   21  O   UNL     1      -7.531   5.955  69.265  1.00  0.00    -0.080 OA 
HETATM   22  H   UNL     1      -8.024   6.428  69.925  1.00  0.00     0.000 HD 
HETATM   23  C   UNL     1      -8.782   8.804  69.457  1.00  0.00    -0.138 C  
HETATM   24  C   UNL     1      -9.373   8.052  70.658  1.00  0.00    -0.162 C  
ENDROOT
BRANCH   5  25
HETATM   25  O   UNL     1      -8.654   5.017  64.867  1.00  0.00    -0.141 OA 
BRANCH  25  26
HETATM   26  C   UNL     1      -9.859   4.437  65.175  1.00  0.00    -0.182 C  
HETATM   27  O   UNL     1     -10.441   4.609  66.236  1.00  0.00    -0.284 OA 
BRANCH  26  28
HETATM   28  C   UNL     1     -10.324   3.543  64.044  1.00  0.00    -0.242 C  
HETATM   29  C   UNL     1      -9.190   2.853  63.297  1.00  0.00    -0.094 C  
ENDBRANCH  26  28
ENDBRANCH  25  26
ENDBRANCH   5  25
BRANCH   5  30
HETATM   30  C   UNL     1      -6.939   3.990  65.996  1.00  0.00    -0.065 C  
HETATM   31  O   UNL     1      -6.026   3.646  65.220  1.00  0.00    -0.021 OA 
BRANCH  30  32
HETATM   32  C   UNL     1      -7.291   2.948  67.076  1.00  0.00    -0.062 C  
BRANCH  32  33
HETATM   33  O   UNL     1      -8.097   3.555  68.124  1.00  0.00    -0.077 OA 
BRANCH  33  34
HETATM   34  C   UNL     1      -8.937   2.705  68.784  1.00  0.00    -0.123 C  
HETATM   35  O   UNL     1      -9.680   1.914  68.220  1.00  0.00    -0.174 OA 
BRANCH  34  36
HETATM   36  C   UNL     1      -8.819   2.861  70.290  1.00  0.00    -0.147 C  
HETATM   37  C   UNL     1      -9.775   3.922  70.825  1.00  0.00    -0.255 C  
ENDBRANCH  34  36
ENDBRANCH  33  34
ENDBRANCH  32  33
ENDBRANCH  30  32
ENDBRANCH   5  30
TORSDOF 8
ENDMDL
MODEL       72
REMARK 921   NORMALIZED FREE ENERGY PREDICTED BY IDOCK:   -3.75 KCAL/MOL
REMARK 922        TOTAL FREE ENERGY PREDICTED BY IDOCK:   -5.24 KCAL/MOL
REMARK 923 INTER-LIGAND FREE ENERGY PREDICTED BY IDOCK:   -6.33 KCAL/MOL
REMARK 924 INTRA-LIGAND FREE ENERGY PREDICTED BY IDOCK:    1.09 KCAL/MOL
REMARK 927      BINDING AFFINITY PREDICTED BY RF-SCORE:    0.00 PKD
ROOT
HETATM    1  C   UNL     1      -8.326   9.430  69.270  1.00  0.00    -0.131 C  
HETATM    2  C   UNL     1      -9.100   9.525  70.452  1.00  0.00    -0.296 C  
HETATM    3  C   UNL     1      -9.680   8.778  69.282  1.00  0.00    -0.172 C  
HETATM    4  C   UNL     1     -11.126   8.098  69.998  1.00  0.00    -0.146 C  
HETATM    5  C   UNL     1      -8.294   8.103  67.891  1.00  0.00    -0.129 C  
HETATM    6  C   UNL     1      -9.790  13.393  67.404  1.00  0.00    -0.227 C  
HETATM    7 CL   UNL     1     -11.293  11.346  69.153  1.00  0.00    -0.319 Cl 
HETATM    8  C   UNL     1      -9.138   7.669  68.857  1.00  0.00    -0.140 C  
HETATM    9  C   UNL     1     -10.432   7.869  67.445  1.00  0.00    -0.360 C  
HETATM   10  C   UNL     1      -8.775   6.504  69.853  1.00  0.00    -0.140 C  
HETATM   11  C   UNL     1      -8.296  13.137  67.547  1.00  0.00    -0.185 C  
HETATM   12  O   UNL     1      -9.680  16.086  65.359  1.00  0.00    -0.427 OA 
HETATM   13  C   UNL     1      -8.030  12.017  68.541  1.00  0.00    -0.132 C  
HETATM   14  C   UNL     1     -10.083  13.794  64.777  1.00  0.00    -0.259 C  
HETATM   15  C   UNL     1      -8.668  10.709  68.068  1.00  0.00    -0.126 C  
HETATM   16  C   UNL     1     -10.681   9.460  66.797  1.00  0.00    -0.059 C  
HETATM   17  C   UNL     1      -9.945  14.953  65.738  1.00  0.00    -0.347 C  
HETATM   18  C   UNL     1     -10.210  10.908  67.529  1.00  0.00    -0.224 C  
HETATM   19  C   UNL     1     -12.152  12.437  66.726  1.00  0.00    -0.118 C  
HETATM   20  C   UNL     1     -10.198  14.659  67.195  1.00  0.00    -0.256 C  
HETATM   21  O   UNL     1     -10.118   9.422  65.471  1.00  0.00    -0.397 OA 
HETATM   22  H   UNL     1     -10.255  10.292  65.116  1.00  0.00     0.000 HD 
HETATM   23  C   UNL     1     -10.571  12.252  66.695  1.00  0.00    -0.257 C  
HETATM   24  C   UNL     1     -10.304  12.524  65.208  1.00  0.00    -0.310 C  
ENDROOT
BRANCH   5  25
HETATM   25  O   UNL     1      -6.863   7.923  68.409  1.00  0.00    -0.067 OA 
BRANCH  25  26
HETATM   26  C   UNL     1      -5.853   8.698  67.895  1.00  0.00    -0.043 C  
HETATM   27  O   UNL     1      -5.291   9.582  68.526  1.00  0.00    -0.034 OA 
BRANCH  26  28
HETATM   28  C   UNL     1      -5.578   8.325  66.453  1.00  0.00    -0.032 C  
HETATM   29  C   UNL     1      -5.647   9.501  65.488  1.00  0.00    -0.049 C  
ENDBRANCH  26  28
ENDBRANCH  25  26
ENDBRANCH   5  25
BRANCH   5  30
HETATM   30  C   UNL     1      -8.200   6.533  67.165  1.00  0.00    -0.113 C  
HETATM   31  O   UNL     1      -7.853   5.483  67.741  1.00  0.00    -0.095 OA 
BRANCH  30  32
HETATM   32  C   UNL     1      -8.643   6.347  65.701  1.00  0.00    -0.133 C  
BRANCH  32  33
HETATM   33  O   UNL     1      -9.219   5.026  65.508  1.00  0.00    -0.156 OA 
BRANCH  33  34
HETATM   34  C   UNL     1      -8.543   4.211  64.645  1.00  0.00    -0.120 C  
HETATM   35  O   UNL     1      -7.356   3.940  64.760  1.00  0.00    -0.066 OA 
BRANCH  34  36
HETATM   36  C   UNL     1      -9.450   3.686  63.547  1.00  0.00    -0.127 C  
HETATM   37  C   UNL     1     -10.900   3.591  64.008  1.00  0.00    -0.147 C  
ENDBRANCH  34  36
ENDBRANCH  33  34
ENDBRANCH  32  33
ENDBRANCH  30  32
ENDBRANCH   5  30
TORSDOF 8
ENDMDL
MODEL       73
REMARK 921   NORMALIZED FREE ENERGY PREDICTED BY IDOCK:   -3.75 KCAL/MOL
REMARK 922        TOTAL FREE ENERGY PREDICTED BY IDOCK:   -5.24 KCAL/MOL
REMARK 923 INTER-LIGAND FREE ENERGY PREDICTED BY IDOCK:   -6.23 KCAL/MOL
REMARK 924 INTRA-LIGAND FREE ENERGY PREDICTED BY IDOCK:    0.99 KCAL/MOL
REMARK 927      BINDING AFFINITY PREDICTED BY RF-SCORE:    0.00 PKD
ROOT
HETATM    1  C   UNL     1      -8.080   8.577  67.358  1.00  0.00    -0.106 C  
HETATM    2  C   UNL     1      -6.817   8.812  66.762  1.00  0.00    -0.069 C  
HETATM    3  C   UNL     1      -7.079   9.395  68.125  1.00  0.00    -0.076 C  
HETATM    4  C   UNL     1      -5.494  10.014  68.539  1.00  0.00    -0.039 C  
HETATM    5  C   UNL     1      -8.606   8.480  69.196  1.00  0.00    -0.133 C  
HETATM    6  C   UNL     1     -10.209  12.205  65.452  1.00  0.00    -0.299 C  
HETATM    7 CL   UNL     1      -7.295  11.888  66.407  1.00  0.00     0.173 Cl 
HETATM    8  C   UNL     1      -7.259   8.623  69.162  1.00  0.00    -0.064 C  
HETATM    9  C   UNL     1      -7.680  10.294  70.021  1.00  0.00    -0.090 C  
HETATM   10  C   UNL     1      -6.264   7.444  69.485  1.00  0.00    -0.031 C  
HETATM   11  C   UNL     1     -10.818  10.817  65.309  1.00  0.00    -0.064 C  
HETATM   12  O   UNL     1     -12.835  14.054  64.390  1.00  0.00    -0.626 OA 
HETATM   13  C   UNL     1      -9.789   9.738  65.615  1.00  0.00    -0.371 C  
HETATM   14  C   UNL     1     -12.156  13.596  66.644  1.00  0.00    -0.459 C  
HETATM   15  C   UNL     1      -9.284   9.863  67.054  1.00  0.00    -0.164 C  
HETATM   16  C   UNL     1      -8.644  11.435  69.139  1.00  0.00     0.185 C  
HETATM   17  C   UNL     1     -11.969  13.634  65.144  1.00  0.00    -0.372 C  
HETATM   18  C   UNL     1      -8.921  11.413  67.471  1.00  0.00    -0.150 C  
HETATM   19  C   UNL     1      -9.053  13.971  67.032  1.00  0.00    -0.256 C  
HETATM   20  C   UNL     1     -10.634  13.171  64.616  1.00  0.00    -0.410 C  
HETATM   21  O   UNL     1      -9.921  11.451  69.807  1.00  0.00    -0.174 OA 
HETATM   22  H   UNL     1     -10.448  12.076  69.324  1.00  0.00     0.000 HD 
HETATM   23  C   UNL     1      -9.866  12.607  66.913  1.00  0.00    -0.234 C  
HETATM   24  C   UNL     1     -11.221  13.060  67.472  1.00  0.00    -0.320 C  
ENDROOT
BRANCH   5  25
HETATM   25  O   UNL     1      -8.931   7.038  68.794  1.00  0.00    -0.132 OA 
BRANCH  25  26
HETATM   26  C   UNL     1     -10.240   6.630  68.734  1.00  0.00    -0.171 C  
HETATM   27  O   UNL     1     -10.866   6.224  69.703  1.00  0.00    -0.265 OA 
BRANCH  26  28
HETATM   28  C   UNL     1     -10.763   6.721  67.315  1.00  0.00    -0.423 C  
HETATM   29  C   UNL     1     -10.385   5.533  66.441  1.00  0.00    -0.272 C  
ENDBRANCH  26  28
ENDBRANCH  25  26
ENDBRANCH   5  25
BRANCH   5  30
HETATM   30  C   UNL     1      -8.585   7.985  70.856  1.00  0.00    -0.133 C  
HETATM   31  O   UNL     1      -9.227   8.515  71.784  1.00  0.00    -0.198 OA 
BRANCH  30  32
HETATM   32  C   UNL     1      -7.773   6.740  71.265  1.00  0.00    -0.093 C  
BRANCH  32  33
HETATM   33  O   UNL     1      -8.521   5.936  72.218  1.00  0.00    -0.121 OA 
BRANCH  33  34
HETATM   34  C   UNL     1      -7.815   5.507  73.305  1.00  0.00    -0.104 C  
HETATM   35  O   UNL     1      -8.338   5.105  74.335  1.00  0.00    -0.104 OA 
BRANCH  34  36
HETATM   36  C   UNL     1      -6.318   5.582  73.065  1.00  0.00    -0.060 C  
HETATM   37  C   UNL     1      -5.558   4.564  73.908  1.00  0.00    -0.009 C  
ENDBRANCH  34  36
ENDBRANCH  33  34
ENDBRANCH  32  33
ENDBRANCH  30  32
ENDBRANCH   5  30
TORSDOF 8
ENDMDL
MODEL       74
REMARK 921   NORMALIZED FREE ENERGY PREDICTED BY IDOCK:   -3.74 KCAL/MOL
REMARK 922        TOTAL FREE ENERGY PREDICTED BY IDOCK:   -5.23 KCAL/MOL
REMARK 923 INTER-LIGAND FREE ENERGY PREDICTED BY IDOCK:   -5.54 KCAL/MOL
REMARK 924 INTRA-LIGAND FREE ENERGY PREDICTED BY IDOCK:    0.31 KCAL/MOL
REMARK 927      BINDING AFFINITY PREDICTED BY RF-SCORE:    0.00 PKD
ROOT
HETATM    1  C   UNL     1      -6.778   8.632  67.890  1.00  0.00    -0.066 C  
HETATM    2  C   UNL     1      -6.486   8.615  69.276  1.00  0.00    -0.042 C  
HETATM    3  C   UNL     1      -7.631   7.773  68.782  1.00  0.00    -0.101 C  
HETATM    4  C   UNL     1      -8.044   6.879  70.230  1.00  0.00    -0.120 C  
HETATM    5  C   UNL     1      -7.577   7.312  66.757  1.00  0.00    -0.100 C  
HETATM    6  C   UNL     1      -9.592  12.292  68.023  1.00  0.00    -0.206 C  
HETATM    7 CL   UNL     1      -9.147  10.051  70.095  1.00  0.00    -0.158 Cl 
HETATM    8  C   UNL     1      -7.424   6.759  67.985  1.00  0.00    -0.099 C  
HETATM    9  C   UNL     1      -9.349   6.737  67.921  1.00  0.00    -0.113 C  
HETATM   10  C   UNL     1      -6.326   5.677  68.308  1.00  0.00    -0.041 C  
HETATM   11  C   UNL     1      -8.423  12.278  67.047  1.00  0.00    -0.181 C  
HETATM   12  O   UNL     1     -11.289  14.945  66.790  1.00  0.00    -0.344 OA 
HETATM   13  C   UNL     1      -7.399  11.224  67.441  1.00  0.00    -0.115 C  
HETATM   14  C   UNL     1     -11.709  12.612  66.423  1.00  0.00    -0.466 C  
HETATM   15  C   UNL     1      -8.021   9.827  67.419  1.00  0.00    -0.102 C  
HETATM   16  C   UNL     1     -10.172   8.260  67.808  1.00  0.00    -0.223 C  
HETATM   17  C   UNL     1     -11.069  13.790  67.124  1.00  0.00    -0.302 C  
HETATM   18  C   UNL     1      -9.498   9.773  68.144  1.00  0.00    -0.146 C  
HETATM   19  C   UNL     1     -11.598  10.965  69.105  1.00  0.00    -0.389 C  
HETATM   20  C   UNL     1     -10.174  13.475  68.296  1.00  0.00    -0.250 C  
HETATM   21  O   UNL     1     -10.719   8.298  66.475  1.00  0.00    -0.284 OA 
HETATM   22  H   UNL     1     -11.170   9.132  66.413  1.00  0.00     0.000 HD 
HETATM   23  C   UNL     1     -10.500  11.033  67.953  1.00  0.00    -0.223 C  
HETATM   24  C   UNL     1     -11.404  11.329  66.748  1.00  0.00    -0.187 C  
ENDROOT
BRANCH   5  25
HETATM   25  O   UNL     1      -6.195   7.367  66.098  1.00  0.00    -0.039 OA 
BRANCH  25  26
HETATM   26  C   UNL     1      -6.095   7.632  64.755  1.00  0.00    -0.038 C  
HETATM   27  O   UNL     1      -5.533   6.892  63.960  1.00  0.00    -0.027 OA 
BRANCH  26  28
HETATM   28  C   UNL     1      -6.737   8.963  64.425  1.00  0.00    -0.078 C  
HETATM   29  C   UNL     1      -8.014   8.846  63.603  1.00  0.00    -0.154 C  
ENDBRANCH  26  28
ENDBRANCH  25  26
ENDBRANCH   5  25
BRANCH   5  30
HETATM   30  C   UNL     1      -7.840   5.768  66.016  1.00  0.00    -0.101 C  
HETATM   31  O   UNL     1      -8.720   5.504  65.172  1.00  0.00    -0.154 OA 
BRANCH  30  32
HETATM   32  C   UNL     1      -6.886   4.601  66.337  1.00  0.00    -0.058 C  
BRANCH  32  33
HETATM   33  O   UNL     1      -7.553   3.327  66.122  1.00  0.00    -0.076 OA 
BRANCH  33  34
HETATM   34  C   UNL     1      -7.817   2.605  67.251  1.00  0.00    -0.069 C  
HETATM   35  O   UNL     1      -7.030   1.812  67.746  1.00  0.00    -0.035 OA 
BRANCH  34  36
HETATM   36  C   UNL     1      -9.193   2.924  67.808  1.00  0.00    -0.250 C  
HETATM   37  C   UNL     1      -9.142   3.225  69.302  1.00  0.00    -0.200 C  
ENDBRANCH  34  36
ENDBRANCH  33  34
ENDBRANCH  32  33
ENDBRANCH  30  32
ENDBRANCH   5  30
TORSDOF 8
ENDMDL
MODEL       75
REMARK 921   NORMALIZED FREE ENERGY PREDICTED BY IDOCK:   -3.71 KCAL/MOL
REMARK 922        TOTAL FREE ENERGY PREDICTED BY IDOCK:   -5.18 KCAL/MOL
REMARK 923 INTER-LIGAND FREE ENERGY PREDICTED BY IDOCK:   -5.12 KCAL/MOL
REMARK 924 INTRA-LIGAND FREE ENERGY PREDICTED BY IDOCK:   -0.06 KCAL/MOL
REMARK 927      BINDING AFFINITY PREDICTED BY RF-SCORE:    0.00 PKD
ROOT
HETATM    1  C   UNL     1      -8.781   7.998  70.517  1.00  0.00    -0.135 C  
HETATM    2  C   UNL     1      -8.036   8.623  71.547  1.00  0.00    -0.188 C  
HETATM    3  C   UNL     1      -7.307   7.715  70.595  1.00  0.00    -0.067 C  
HETATM    4  C   UNL     1      -5.644   7.986  71.075  1.00  0.00    -0.033 C  
HETATM    5  C   UNL     1      -8.259   7.394  68.777  1.00  0.00    -0.129 C  
HETATM    6  C   UNL     1     -10.045   4.308  72.990  1.00  0.00    -0.207 C  
HETATM    7 CL   UNL     1      -7.433   5.946  73.059  1.00  0.00    -0.094 Cl 
HETATM    8  C   UNL     1      -7.192   8.020  69.331  1.00  0.00    -0.071 C  
HETATM    9  C   UNL     1      -6.439   6.250  69.229  1.00  0.00    -0.043 C  
HETATM   10  C   UNL     1      -6.703   9.447  68.876  1.00  0.00    -0.051 C  
HETATM   11  C   UNL     1     -11.107   5.133  72.275  1.00  0.00    -0.176 C  
HETATM   12  O   UNL     1     -11.917   1.608  73.797  1.00  0.00    -0.184 OA 
HETATM   13  C   UNL     1     -10.564   6.502  71.891  1.00  0.00    -0.239 C  
HETATM   14  C   UNL     1     -10.391   1.864  71.963  1.00  0.00    -0.135 C  
HETATM   15  C   UNL     1      -9.378   6.366  70.934  1.00  0.00    -0.168 C  
HETATM   16  C   UNL     1      -7.209   4.990  70.139  1.00  0.00    -0.058 C  
HETATM   17  C   UNL     1     -11.017   2.258  73.282  1.00  0.00    -0.174 C  
HETATM   18  C   UNL     1      -8.301   5.216  71.409  1.00  0.00    -0.119 C  
HETATM   19  C   UNL     1      -7.672   3.166  72.876  1.00  0.00    -0.056 C  
HETATM   20  C   UNL     1     -10.445   3.474  73.968  1.00  0.00    -0.258 C  
HETATM   21  O   UNL     1      -7.832   4.139  69.157  1.00  0.00    -0.057 OA 
HETATM   22  H   UNL     1      -8.254   3.449  69.656  1.00  0.00     0.000 HD 
HETATM   23  C   UNL     1      -8.868   3.855  72.083  1.00  0.00    -0.130 C  
HETATM   24  C   UNL     1      -9.444   2.629  71.360  1.00  0.00    -0.215 C  
ENDROOT
BRANCH   5  25
HETATM   25  O   UNL     1      -9.259   8.473  68.350  1.00  0.00    -0.136 OA 
BRANCH  25  26
HETATM   26  C   UNL     1     -10.338   8.128  67.575  1.00  0.00    -0.261 C  
HETATM   27  O   UNL     1     -10.966   7.089  67.716  1.00  0.00    -0.218 OA 
BRANCH  26  28
HETATM   28  C   UNL     1     -10.600   9.187  66.524  1.00  0.00    -0.096 C  
HETATM   29  C   UNL     1     -10.766  10.591  67.090  1.00  0.00    -0.323 C  
ENDBRANCH  26  28
ENDBRANCH  25  26
ENDBRANCH   5  25
BRANCH   5  30
HETATM   30  C   UNL     1      -7.561   7.450  67.193  1.00  0.00    -0.107 C  
HETATM   31  O   UNL     1      -7.106   8.466  66.631  1.00  0.00    -0.071 OA 
BRANCH  30  32
HETATM   32  C   UNL     1      -7.397   6.144  66.390  1.00  0.00    -0.085 C  
BRANCH  32  33
HETATM   33  O   UNL     1      -8.523   5.957  65.489  1.00  0.00    -0.146 OA 
BRANCH  33  34
HETATM   34  C   UNL     1      -9.172   4.761  65.601  1.00  0.00    -0.152 C  
HETATM   35  O   UNL     1      -9.615   4.328  66.656  1.00  0.00    -0.173 OA 
BRANCH  34  36
HETATM   36  C   UNL     1      -9.280   4.056  64.261  1.00  0.00    -0.147 C  
HETATM   37  C   UNL     1     -10.683   3.509  64.021  1.00  0.00    -0.220 C  
ENDBRANCH  34  36
ENDBRANCH  33  34
ENDBRANCH  32  33
ENDBRANCH  30  32
ENDBRANCH   5  30
TORSDOF 8
ENDMDL
MODEL       76
REMARK 921   NORMALIZED FREE ENERGY PREDICTED BY IDOCK:   -3.67 KCAL/MOL
REMARK 922        TOTAL FREE ENERGY PREDICTED BY IDOCK:   -5.12 KCAL/MOL
REMARK 923 INTER-LIGAND FREE ENERGY PREDICTED BY IDOCK:   -6.55 KCAL/MOL
REMARK 924 INTRA-LIGAND FREE ENERGY PREDICTED BY IDOCK:    1.43 KCAL/MOL
REMARK 927      BINDING AFFINITY PREDICTED BY RF-SCORE:    0.00 PKD
ROOT
HETATM    1  C   UNL     1      -7.744  11.785  67.994  1.00  0.00    -0.123 C  
HETATM    2  C   UNL     1      -8.242  11.650  69.313  1.00  0.00     0.360 C  
HETATM    3  C   UNL     1      -9.220  11.964  68.213  1.00  0.00    -0.187 C  
HETATM    4  C   UNL     1     -10.744  11.821  69.066  1.00  0.00    -0.209 C  
HETATM    5  C   UNL     1      -8.578  11.483  66.298  1.00  0.00    -0.133 C  
HETATM    6  C   UNL     1      -6.731  16.280  68.307  1.00  0.00    -0.134 C  
HETATM    7 CL   UNL     1      -9.034  14.670  69.576  1.00  0.00     0.120 Cl 
HETATM    8  C   UNL     1      -9.455  11.105  67.258  1.00  0.00    -0.178 C  
HETATM    9  C   UNL     1     -10.473  12.569  66.532  1.00  0.00    -0.258 C  
HETATM   10  C   UNL     1      -9.780   9.597  67.577  1.00  0.00    -0.195 C  
HETATM   11  C   UNL     1      -5.662  15.300  67.844  1.00  0.00    -0.154 C  
HETATM   12  O   UNL     1      -5.197  19.179  67.479  1.00  0.00    -0.164 OA 
HETATM   13  C   UNL     1      -6.039  13.872  68.209  1.00  0.00    -0.112 C  
HETATM   14  C   UNL     1      -6.898  17.999  66.267  1.00  0.00    -0.291 C  
HETATM   15  C   UNL     1      -7.349  13.466  67.530  1.00  0.00    -0.165 C  
HETATM   16  C   UNL     1      -9.787  14.160  66.634  1.00  0.00    -0.283 C  
HETATM   17  C   UNL     1      -6.049  18.302  67.482  1.00  0.00    -0.169 C  
HETATM   18  C   UNL     1      -8.514  14.623  67.645  1.00  0.00    -0.187 C  
HETATM   19  C   UNL     1      -9.244  17.065  68.149  1.00  0.00    -0.244 C  
HETATM   20  C   UNL     1      -6.335  17.497  68.725  1.00  0.00    -0.197 C  
HETATM   21  O   UNL     1      -9.436  14.509  65.280  1.00  0.00    -0.474 OA 
HETATM   22  H   UNL     1      -9.060  15.380  65.336  1.00  0.00     0.000 HD 
HETATM   23  C   UNL     1      -8.073  16.179  67.532  1.00  0.00    -0.164 C  
HETATM   24  C   UNL     1      -7.791  16.975  66.250  1.00  0.00    -0.346 C  
ENDROOT
BRANCH   5  25
HETATM   25  O   UNL     1      -7.493  10.405  66.209  1.00  0.00    -0.114 OA 
BRANCH  25  26
HETATM   26  C   UNL     1      -6.391  10.617  65.419  1.00  0.00    -0.052 C  
HETATM   27  O   UNL     1      -5.440  11.308  65.756  1.00  0.00    -0.212 OA 
BRANCH  26  28
HETATM   28  C   UNL     1      -6.547   9.913  64.087  1.00  0.00    -0.126 C  
HETATM   29  C   UNL     1      -5.267   9.856  63.265  1.00  0.00    -0.086 C  
ENDBRANCH  26  28
ENDBRANCH  25  26
ENDBRANCH   5  25
BRANCH   5  30
HETATM   30  C   UNL     1      -9.465  10.656  65.060  1.00  0.00    -0.243 C  
HETATM   31  O   UNL     1      -9.633   9.423  64.984  1.00  0.00    -0.228 OA 
BRANCH  30  32
HETATM   32  C   UNL     1     -10.191  11.472  63.973  1.00  0.00    -0.345 C  
BRANCH  32  33
HETATM   33  O   UNL     1     -11.607  11.142  63.951  1.00  0.00    -0.038 OA 
BRANCH  33  34
HETATM   34  C   UNL     1     -12.416  12.070  63.360  1.00  0.00    -0.509 C  
HETATM   35  O   UNL     1     -13.486  11.797  62.834  1.00  0.00    -0.186 OA 
BRANCH  34  36
HETATM   36  C   UNL     1     -11.826  13.466  63.452  1.00  0.00    -0.325 C  
HETATM   37  C   UNL     1     -12.658  14.373  64.353  1.00  0.00    -0.196 C  
ENDBRANCH  34  36
ENDBRANCH  33  34
ENDBRANCH  32  33
ENDBRANCH  30  32
ENDBRANCH   5  30
TORSDOF 8
ENDMDL
MODEL       77
REMARK 921   NORMALIZED FREE ENERGY PREDICTED BY IDOCK:   -3.58 KCAL/MOL
REMARK 922        TOTAL FREE ENERGY PREDICTED BY IDOCK:   -4.99 KCAL/MOL
REMARK 923 INTER-LIGAND FREE ENERGY PREDICTED BY IDOCK:   -5.74 KCAL/MOL
REMARK 924 INTRA-LIGAND FREE ENERGY PREDICTED BY IDOCK:    0.76 KCAL/MOL
REMARK 927      BINDING AFFINITY PREDICTED BY RF-SCORE:    0.00 PKD
ROOT
HETATM    1  C   UNL     1      -9.253   7.991  68.633  1.00  0.00    -0.143 C  
HETATM    2  C   UNL     1      -8.801   7.362  69.819  1.00  0.00    -0.141 C  
HETATM    3  C   UNL     1      -7.770   7.895  68.861  1.00  0.00    -0.105 C  
HETATM    4  C   UNL     1      -6.301   7.677  69.790  1.00  0.00    -0.031 C  
HETATM    5  C   UNL     1      -8.455   9.352  67.549  1.00  0.00    -0.122 C  
HETATM    6  C   UNL     1      -9.533   4.136  66.105  1.00  0.00    -0.187 C  
HETATM    7 CL   UNL     1      -7.536   4.917  68.321  1.00  0.00    -0.077 Cl 
HETATM    8  C   UNL     1      -7.663   9.177  68.635  1.00  0.00    -0.092 C  
HETATM    9  C   UNL     1      -6.413   8.583  67.296  1.00  0.00    -0.058 C  
HETATM   10  C   UNL     1      -7.590  10.212  69.820  1.00  0.00    -0.175 C  
HETATM   11  C   UNL     1     -10.739   5.060  66.202  1.00  0.00    -0.264 C  
HETATM   12  O   UNL     1     -10.568   2.165  63.558  1.00  0.00    -0.170 OA 
HETATM   13  C   UNL     1     -10.602   6.010  67.382  1.00  0.00    -0.355 C  
HETATM   14  C   UNL     1      -9.064   4.032  63.475  1.00  0.00    -0.128 C  
HETATM   15  C   UNL     1      -9.366   6.898  67.223  1.00  0.00    -0.152 C  
HETATM   16  C   UNL     1      -6.836   7.185  66.358  1.00  0.00    -0.061 C  
HETATM   17  C   UNL     1      -9.869   2.959  64.172  1.00  0.00    -0.148 C  
HETATM   18  C   UNL     1      -8.031   6.057  66.753  1.00  0.00    -0.102 C  
HETATM   19  C   UNL     1      -6.925   3.915  65.783  1.00  0.00    -0.062 C  
HETATM   20  C   UNL     1      -9.733   2.877  65.672  1.00  0.00     0.192 C  
HETATM   21  O   UNL     1      -7.108   7.684  65.034  1.00  0.00    -0.060 OA 
HETATM   22  H   UNL     1      -7.339   6.919  64.521  1.00  0.00     0.000 HD 
HETATM   23  C   UNL     1      -8.214   4.845  65.691  1.00  0.00    -0.115 C  
HETATM   24  C   UNL     1      -8.347   4.957  64.166  1.00  0.00    -0.131 C  
ENDROOT
BRANCH   5  25
HETATM   25  O   UNL     1      -9.699  10.125  68.002  1.00  0.00    -0.141 OA 
BRANCH  25  26
HETATM   26  C   UNL     1     -10.671  10.440  67.086  1.00  0.00    -0.256 C  
HETATM   27  O   UNL     1     -11.715  11.007  67.376  1.00  0.00    -0.539 OA 
BRANCH  26  28
HETATM   28  C   UNL     1     -10.280   9.954  65.706  1.00  0.00    -0.251 C  
HETATM   29  C   UNL     1     -10.334  11.034  64.634  1.00  0.00    -0.410 C  
ENDBRANCH  26  28
ENDBRANCH  25  26
ENDBRANCH   5  25
BRANCH   5  30
HETATM   30  C   UNL     1      -7.697  10.858  67.150  1.00  0.00    -0.123 C  
HETATM   31  O   UNL     1      -6.896  11.046  66.213  1.00  0.00    -0.133 OA 
BRANCH  30  32
HETATM   32  C   UNL     1      -8.063  12.126  67.947  1.00  0.00    -0.153 C  
BRANCH  32  33
HETATM   33  O   UNL     1      -7.890  13.311  67.122  1.00  0.00    -0.136 OA 
BRANCH  33  34
HETATM   34  C   UNL     1      -8.957  14.162  67.086  1.00  0.00    -0.225 C  
HETATM   35  O   UNL     1     -10.068  13.837  66.690  1.00  0.00    -0.265 OA 
BRANCH  34  36
HETATM   36  C   UNL     1      -8.591  15.540  67.607  1.00  0.00    -0.175 C  
HETATM   37  C   UNL     1      -8.790  15.647  69.115  1.00  0.00    -0.251 C  
ENDBRANCH  34  36
ENDBRANCH  33  34
ENDBRANCH  32  33
ENDBRANCH  30  32
ENDBRANCH   5  30
TORSDOF 8
ENDMDL
MODEL       78
REMARK 921   NORMALIZED FREE ENERGY PREDICTED BY IDOCK:   -3.50 KCAL/MOL
REMARK 922        TOTAL FREE ENERGY PREDICTED BY IDOCK:   -4.88 KCAL/MOL
REMARK 923 INTER-LIGAND FREE ENERGY PREDICTED BY IDOCK:   -5.40 KCAL/MOL
REMARK 924 INTRA-LIGAND FREE ENERGY PREDICTED BY IDOCK:    0.53 KCAL/MOL
REMARK 927      BINDING AFFINITY PREDICTED BY RF-SCORE:    0.00 PKD
ROOT
HETATM    1  C   UNL     1      -9.188   6.172  68.233  1.00  0.00    -0.114 C  
HETATM    2  C   UNL     1      -8.992   5.271  67.158  1.00  0.00    -0.112 C  
HETATM    3  C   UNL     1      -7.778   5.897  67.789  1.00  0.00    -0.097 C  
HETATM    4  C   UNL     1      -6.491   5.017  66.991  1.00  0.00    -0.045 C  
HETATM    5  C   UNL     1      -8.061   6.627  69.713  1.00  0.00    -0.126 C  
HETATM    6  C   UNL     1      -9.716   9.947  65.626  1.00  0.00    -0.346 C  
HETATM    7 CL   UNL     1      -7.928   7.471  65.198  1.00  0.00    -0.122 Cl 
HETATM    8  C   UNL     1      -7.452   5.631  69.025  1.00  0.00    -0.083 C  
HETATM    9  C   UNL     1      -6.143   7.009  68.713  1.00  0.00    -0.027 C  
HETATM   10  C   UNL     1      -7.378   4.148  69.550  1.00  0.00    -0.050 C  
HETATM   11  C   UNL     1     -10.772   9.599  66.666  1.00  0.00    -0.102 C  
HETATM   12  O   UNL     1     -10.699  13.100  64.897  1.00  0.00    -0.312 OA 
HETATM   13  C   UNL     1     -10.646   8.147  67.102  1.00  0.00    -0.355 C  
HETATM   14  C   UNL     1      -8.933  12.395  66.359  1.00  0.00    -0.101 C  
HETATM   15  C   UNL     1      -9.281   7.888  67.742  1.00  0.00    -0.144 C  
HETATM   16  C   UNL     1      -6.647   8.418  67.835  1.00  0.00    -0.061 C  
HETATM   17  C   UNL     1      -9.973  12.194  65.281  1.00  0.00    -0.237 C  
HETATM   18  C   UNL     1      -8.039   8.544  66.885  1.00  0.00    -0.099 C  
HETATM   19  C   UNL     1      -7.151  10.153  65.048  1.00  0.00    -0.135 C  
HETATM   20  C   UNL     1     -10.046  10.822  64.657  1.00  0.00    -0.410 C  
HETATM   21  O   UNL     1      -6.667   9.483  68.805  1.00  0.00    -0.051 OA 
HETATM   22  H   UNL     1      -6.942  10.255  68.324  1.00  0.00     0.000 HD 
HETATM   23  C   UNL     1      -8.263   9.984  66.175  1.00  0.00    -0.121 C  
HETATM   24  C   UNL     1      -8.180  11.369  66.834  1.00  0.00    -0.157 C  
ENDROOT
BRANCH   5  25
HETATM   25  O   UNL     1      -9.222   6.007  70.497  1.00  0.00    -0.153 OA 
BRANCH  25  26
HETATM   26  C   UNL     1     -10.187   6.820  71.037  1.00  0.00    -0.197 C  
HETATM   27  O   UNL     1     -10.043   8.023  71.199  1.00  0.00    -0.186 OA 
BRANCH  26  28
HETATM   28  C   UNL     1     -11.408   6.013  71.425  1.00  0.00    -0.301 C  
HETATM   29  C   UNL     1     -12.716   6.788  71.329  1.00  0.00    -0.299 C  
ENDBRANCH  26  28
ENDBRANCH  25  26
ENDBRANCH   5  25
BRANCH   5  30
HETATM   30  C   UNL     1      -7.040   6.397  71.093  1.00  0.00    -0.077 C  
HETATM   31  O   UNL     1      -6.345   7.275  71.641  1.00  0.00    -0.037 OA 
BRANCH  30  32
HETATM   32  C   UNL     1      -7.005   5.022  71.790  1.00  0.00    -0.057 C  
BRANCH  32  33
HETATM   33  O   UNL     1      -7.538   5.122  73.139  1.00  0.00    -0.093 OA 
BRANCH  33  34
HETATM   34  C   UNL     1      -8.708   4.454  73.358  1.00  0.00    -0.099 C  
HETATM   35  O   UNL     1      -9.058   3.474  72.717  1.00  0.00    -0.094 OA 
BRANCH  34  36
HETATM   36  C   UNL     1      -9.500   5.074  74.496  1.00  0.00    -0.143 C  
HETATM   37  C   UNL     1      -9.393   6.595  74.497  1.00  0.00    -0.256 C  
ENDBRANCH  34  36
ENDBRANCH  33  34
ENDBRANCH  32  33
ENDBRANCH  30  32
ENDBRANCH   5  30
TORSDOF 8
ENDMDL
MODEL       79
REMARK 921   NORMALIZED FREE ENERGY PREDICTED BY IDOCK:   -3.47 KCAL/MOL
REMARK 922        TOTAL FREE ENERGY PREDICTED BY IDOCK:   -4.82 KCAL/MOL
REMARK 923 INTER-LIGAND FREE ENERGY PREDICTED BY IDOCK:   -5.58 KCAL/MOL
REMARK 924 INTRA-LIGAND FREE ENERGY PREDICTED BY IDOCK:    0.76 KCAL/MOL
REMARK 927      BINDING AFFINITY PREDICTED BY RF-SCORE:    0.00 PKD
ROOT
HETATM    1  C   UNL     1      -7.353   9.612  66.474  1.00  0.00    -0.090 C  
HETATM    2  C   UNL     1      -7.505  10.069  65.143  1.00  0.00    -0.139 C  
HETATM    3  C   UNL     1      -8.732   9.598  65.875  1.00  0.00    -0.163 C  
HETATM    4  C   UNL     1      -9.992  10.039  64.742  1.00  0.00    -0.248 C  
HETATM    5  C   UNL     1      -8.577   9.598  67.947  1.00  0.00    -0.122 C  
HETATM    6  C   UNL     1      -6.384   5.230  65.383  1.00  0.00    -0.035 C  
HETATM    7 CL   UNL     1      -8.267   7.249  64.010  1.00  0.00    -0.008 Cl 
HETATM    8  C   UNL     1      -9.180  10.243  66.919  1.00  0.00    -0.171 C  
HETATM    9  C   UNL     1     -10.375   8.737  67.025  1.00  0.00    -0.353 C  
HETATM   10  C   UNL     1      -9.385  11.805  66.888  1.00  0.00    -0.197 C  
HETATM   11  C   UNL     1      -5.445   6.001  66.301  1.00  0.00    -0.010 C  
HETATM   12  O   UNL     1      -5.162   2.112  65.861  1.00  0.00    -0.004 OA 
HETATM   13  C   UNL     1      -5.691   7.499  66.195  1.00  0.00    -0.036 C  
HETATM   14  C   UNL     1      -7.087   3.125  66.873  1.00  0.00    -0.058 C  
HETATM   15  C   UNL     1      -7.119   7.845  66.618  1.00  0.00    -0.076 C  
HETATM   16  C   UNL     1      -9.717   7.160  66.726  1.00  0.00    -0.192 C  
HETATM   17  C   UNL     1      -5.969   3.031  65.859  1.00  0.00    -0.023 C  
HETATM   18  C   UNL     1      -8.242   6.834  65.968  1.00  0.00    -0.129 C  
HETATM   19  C   UNL     1      -8.872   4.623  64.755  1.00  0.00    -0.152 C  
HETATM   20  C   UNL     1      -5.921   4.107  64.803  1.00  0.00    -0.022 C  
HETATM   21  O   UNL     1      -9.721   6.498  68.006  1.00  0.00    -0.119 OA 
HETATM   22  H   UNL     1      -9.360   5.634  67.842  1.00  0.00     0.000 HD 
HETATM   23  C   UNL     1      -7.875   5.261  65.820  1.00  0.00    -0.099 C  
HETATM   24  C   UNL     1      -7.935   4.185  66.913  1.00  0.00    -0.097 C  
ENDROOT
BRANCH   5  25
HETATM   25  O   UNL     1      -7.526  10.545  68.536  1.00  0.00    -0.084 OA 
BRANCH  25  26
HETATM   26  C   UNL     1      -6.589  10.057  69.412  1.00  0.00    -0.053 C  
HETATM   27  O   UNL     1      -6.770   9.074  70.116  1.00  0.00    -0.041 OA 
BRANCH  26  28
HETATM   28  C   UNL     1      -5.347  10.923  69.401  1.00  0.00    -0.041 C  
HETATM   29  C   UNL     1      -5.538  12.285  70.055  1.00  0.00    -0.125 C  
ENDBRANCH  26  28
ENDBRANCH  25  26
ENDBRANCH   5  25
BRANCH   5  30
HETATM   30  C   UNL     1      -9.727  10.201  69.094  1.00  0.00    -0.215 C  
HETATM   31  O   UNL     1     -10.380  11.257  68.986  1.00  0.00    -0.205 OA 
BRANCH  30  32
HETATM   32  C   UNL     1     -10.063   9.361  70.342  1.00  0.00    -0.255 C  
BRANCH  32  33
HETATM   33  O   UNL     1     -11.159   9.967  71.082  1.00  0.00    -0.350 OA 
BRANCH  33  34
HETATM   34  C   UNL     1     -12.008   9.091  71.694  1.00  0.00    -0.356 C  
HETATM   35  O   UNL     1     -11.633   8.166  72.401  1.00  0.00    -0.350 OA 
BRANCH  34  36
HETATM   36  C   UNL     1     -13.460   9.420  71.396  1.00  0.00    -0.403 C  
HETATM   37  C   UNL     1     -14.405   8.354  71.941  1.00  0.00    -0.561 C  
ENDBRANCH  34  36
ENDBRANCH  33  34
ENDBRANCH  32  33
ENDBRANCH  30  32
ENDBRANCH   5  30
TORSDOF 8
ENDMDL
MODEL       80
REMARK 921   NORMALIZED FREE ENERGY PREDICTED BY IDOCK:   -3.45 KCAL/MOL
REMARK 922        TOTAL FREE ENERGY PREDICTED BY IDOCK:   -4.80 KCAL/MOL
REMARK 923 INTER-LIGAND FREE ENERGY PREDICTED BY IDOCK:   -4.55 KCAL/MOL
REMARK 924 INTRA-LIGAND FREE ENERGY PREDICTED BY IDOCK:   -0.25 KCAL/MOL
REMARK 927      BINDING AFFINITY PREDICTED BY RF-SCORE:    0.00 PKD
ROOT
HETATM    1  C   UNL     1      -9.108   8.530  68.679  1.00  0.00    -0.139 C  
HETATM    2  C   UNL     1      -9.280   9.751  69.376  1.00  0.00    -0.214 C  
HETATM    3  C   UNL     1      -7.921   9.105  69.401  1.00  0.00    -0.097 C  
HETATM    4  C   UNL     1      -6.971  10.348  70.189  1.00  0.00    -0.146 C  
HETATM    5  C   UNL     1      -7.558   7.755  67.865  1.00  0.00    -0.116 C  
HETATM    6  C   UNL     1     -10.418   5.786  72.154  1.00  0.00    -0.258 C  
HETATM    7 CL   UNL     1      -8.888   8.463  72.205  1.00  0.00    -0.274 Cl 
HETATM    8  C   UNL     1      -7.214   8.988  68.309  1.00  0.00    -0.078 C  
HETATM    9  C   UNL     1      -6.065   7.959  69.462  1.00  0.00    -0.033 C  
HETATM   10  C   UNL     1      -6.987  10.214  67.347  1.00  0.00    -0.082 C  
HETATM   11  C   UNL     1     -11.083   5.642  70.792  1.00  0.00    -0.196 C  
HETATM   12  O   UNL     1     -11.556   2.951  73.609  1.00  0.00    -0.197 OA 
HETATM   13  C   UNL     1     -10.836   6.874  69.934  1.00  0.00    -0.294 C  
HETATM   14  C   UNL     1      -9.417   3.347  72.596  1.00  0.00    -0.165 C  
HETATM   15  C   UNL     1      -9.339   7.072  69.687  1.00  0.00    -0.149 C  
HETATM   16  C   UNL     1      -6.813   6.866  70.583  1.00  0.00    -0.058 C  
HETATM   17  C   UNL     1     -10.753   3.763  73.169  1.00  0.00    -0.176 C  
HETATM   18  C   UNL     1      -8.437   6.891  71.051  1.00  0.00    -0.131 C  
HETATM   19  C   UNL     1      -8.178   6.094  73.511  1.00  0.00    -0.111 C  
HETATM   20  C   UNL     1     -11.037   5.244  73.220  1.00  0.00    -0.376 C  
HETATM   21  O   UNL     1      -6.507   5.547  70.089  1.00  0.00    -0.032 OA 
HETATM   22  H   UNL     1      -6.917   4.949  70.703  1.00  0.00     0.000 HD 
HETATM   23  C   UNL     1      -8.866   5.747  72.117  1.00  0.00    -0.137 C  
HETATM   24  C   UNL     1      -8.561   4.244  72.042  1.00  0.00    -0.116 C  
ENDROOT
BRANCH   5  25
HETATM   25  O   UNL     1      -8.407   7.937  66.602  1.00  0.00    -0.118 OA 
BRANCH  25  26
HETATM   26  C   UNL     1      -8.636   6.863  65.779  1.00  0.00    -0.131 C  
HETATM   27  O   UNL     1      -8.203   6.782  64.639  1.00  0.00    -0.114 OA 
BRANCH  26  28
HETATM   28  C   UNL     1      -9.517   5.842  66.468  1.00  0.00    -0.168 C  
HETATM   29  C   UNL     1      -9.912   4.669  65.581  1.00  0.00    -0.228 C  
ENDBRANCH  26  28
ENDBRANCH  25  26
ENDBRANCH   5  25
BRANCH   5  30
HETATM   30  C   UNL     1      -6.146   7.642  66.867  1.00  0.00    -0.048 C  
HETATM   31  O   UNL     1      -5.680   8.553  66.156  1.00  0.00    -0.042 OA 
BRANCH  30  32
HETATM   32  C   UNL     1      -5.313   6.344  66.877  1.00  0.00    -0.012 C  
BRANCH  32  33
HETATM   33  O   UNL     1      -6.097   5.241  67.408  1.00  0.00    -0.028 OA 
BRANCH  33  34
HETATM   34  C   UNL     1      -5.546   4.002  67.253  1.00  0.00    -0.021 C  
HETATM   35  O   UNL     1      -5.309   3.246  68.184  1.00  0.00    -0.012 OA 
BRANCH  34  36
HETATM   36  C   UNL     1      -5.283   3.687  65.791  1.00  0.00    -0.009 C  
HETATM   37  C   UNL     1      -6.572   3.376  65.038  1.00  0.00    -0.040 C  
ENDBRANCH  34  36
ENDBRANCH  33  34
ENDBRANCH  32  33
ENDBRANCH  30  32
ENDBRANCH   5  30
TORSDOF 8
ENDMDL
MODEL       81
REMARK 921   NORMALIZED FREE ENERGY PREDICTED BY IDOCK:   -3.40 KCAL/MOL
REMARK 922        TOTAL FREE ENERGY PREDICTED BY IDOCK:   -4.73 KCAL/MOL
REMARK 923 INTER-LIGAND FREE ENERGY PREDICTED BY IDOCK:   -4.38 KCAL/MOL
REMARK 924 INTRA-LIGAND FREE ENERGY PREDICTED BY IDOCK:   -0.35 KCAL/MOL
REMARK 927      BINDING AFFINITY PREDICTED BY RF-SCORE:    0.00 PKD
ROOT
HETATM    1  C   UNL     1      -8.518   7.763  65.346  1.00  0.00    -0.124 C  
HETATM    2  C   UNL     1      -8.405   9.175  65.308  1.00  0.00    -0.152 C  
HETATM    3  C   UNL     1      -7.235   8.383  65.827  1.00  0.00    -0.072 C  
HETATM    4  C   UNL     1      -6.027   9.639  66.001  1.00  0.00    -0.063 C  
HETATM    5  C   UNL     1      -7.186   6.392  65.237  1.00  0.00    -0.070 C  
HETATM    6  C   UNL     1     -10.465   7.534  69.527  1.00  0.00    -0.227 C  
HETATM    7 CL   UNL     1      -8.351   9.489  68.425  1.00  0.00    -0.117 Cl 
HETATM    8  C   UNL     1      -6.566   7.581  65.044  1.00  0.00    -0.044 C  
HETATM    9  C   UNL     1      -5.700   7.095  66.694  1.00  0.00    -0.023 C  
HETATM   10  C   UNL     1      -6.049   8.060  63.635  1.00  0.00    -0.063 C  
HETATM   11  C   UNL     1     -11.134   6.840  68.348  1.00  0.00    -0.214 C  
HETATM   12  O   UNL     1     -12.249   6.151  72.046  1.00  0.00    -0.312 OA 
HETATM   13  C   UNL     1     -10.597   7.374  67.028  1.00  0.00    -0.414 C  
HETATM   14  C   UNL     1     -10.069   5.536  71.257  1.00  0.00    -0.266 C  
HETATM   15  C   UNL     1      -9.094   7.117  66.909  1.00  0.00    -0.159 C  
HETATM   16  C   UNL     1      -6.694   6.913  68.105  1.00  0.00    -0.068 C  
HETATM   17  C   UNL     1     -11.275   6.442  71.366  1.00  0.00    -0.288 C  
HETATM   18  C   UNL     1      -8.270   7.495  68.283  1.00  0.00    -0.125 C  
HETATM   19  C   UNL     1      -8.228   8.053  70.821  1.00  0.00    -0.113 C  
HETATM   20  C   UNL     1     -11.203   7.756  70.631  1.00  0.00    -0.278 C  
HETATM   21  O   UNL     1      -6.702   5.498  68.382  1.00  0.00    -0.050 OA 
HETATM   22  H   UNL     1      -7.246   5.398  69.155  1.00  0.00     0.000 HD 
HETATM   23  C   UNL     1      -8.965   7.178  69.714  1.00  0.00    -0.142 C  
HETATM   24  C   UNL     1      -9.021   5.828  70.443  1.00  0.00    -0.154 C  
ENDROOT
BRANCH   5  25
HETATM   25  O   UNL     1      -7.958   6.057  63.956  1.00  0.00    -0.116 OA 
BRANCH  25  26
HETATM   26  C   UNL     1      -8.486   4.801  63.792  1.00  0.00    -0.128 C  
HETATM   27  O   UNL     1      -8.334   4.131  62.781  1.00  0.00    -0.079 OA 
BRANCH  26  28
HETATM   28  C   UNL     1      -9.296   4.401  65.008  1.00  0.00    -0.164 C  
HETATM   29  C   UNL     1     -10.769   4.151  64.712  1.00  0.00    -0.151 C  
ENDBRANCH  26  28
ENDBRANCH  25  26
ENDBRANCH   5  25
BRANCH   5  30
HETATM   30  C   UNL     1      -5.832   5.504  64.622  1.00  0.00    -0.021 C  
HETATM   31  O   UNL     1      -5.243   5.725  63.546  1.00  0.00    -0.013 OA 
BRANCH  30  32
HETATM   32  C   UNL     1      -5.215   4.376  65.473  1.00  0.00    -0.009 C  
BRANCH  32  33
HETATM   33  O   UNL     1      -6.256   3.644  66.176  1.00  0.00    -0.030 OA 
BRANCH  33  34
HETATM   34  C   UNL     1      -6.060   2.296  66.275  1.00  0.00    -0.023 C  
HETATM   35  O   UNL     1      -5.420   1.644  65.462  1.00  0.00    -0.005 OA 
BRANCH  34  36
HETATM   36  C   UNL     1      -6.722   1.725  67.516  1.00  0.00    -0.032 C  
HETATM   37  C   UNL     1      -8.117   2.303  67.731  1.00  0.00    -0.069 C  
ENDBRANCH  34  36
ENDBRANCH  33  34
ENDBRANCH  32  33
ENDBRANCH  30  32
ENDBRANCH   5  30
TORSDOF 8
ENDMDL
MODEL       82
REMARK 921   NORMALIZED FREE ENERGY PREDICTED BY IDOCK:   -3.39 KCAL/MOL
REMARK 922        TOTAL FREE ENERGY PREDICTED BY IDOCK:   -4.70 KCAL/MOL
REMARK 923 INTER-LIGAND FREE ENERGY PREDICTED BY IDOCK:   -5.33 KCAL/MOL
REMARK 924 INTRA-LIGAND FREE ENERGY PREDICTED BY IDOCK:    0.63 KCAL/MOL
REMARK 927      BINDING AFFINITY PREDICTED BY RF-SCORE:    0.00 PKD
ROOT
HETATM    1  C   UNL     1     -10.524   7.144  69.714  1.00  0.00    -0.238 C  
HETATM    2  C   UNL     1     -11.410   6.044  69.812  1.00  0.00    -0.344 C  
HETATM    3  C   UNL     1     -10.074   5.942  70.496  1.00  0.00    -0.254 C  
HETATM    4  C   UNL     1     -10.262   4.444  71.383  1.00  0.00    -0.153 C  
HETATM    5  C   UNL     1      -9.144   7.756  70.891  1.00  0.00    -0.148 C  
HETATM    6  C   UNL     1      -8.542   5.830  65.755  1.00  0.00    -0.149 C  
HETATM    7 CL   UNL     1      -9.608   4.136  68.101  1.00  0.00    -0.212 Cl 
HETATM    8  C   UNL     1      -9.772   6.721  71.499  1.00  0.00    -0.168 C  
HETATM    9  C   UNL     1      -8.042   5.899  71.293  1.00  0.00    -0.118 C  
HETATM   10  C   UNL     1     -10.758   6.909  72.713  1.00  0.00    -0.286 C  
HETATM   11  C   UNL     1      -9.126   7.231  65.873  1.00  0.00    -0.064 C  
HETATM   12  O   UNL     1      -6.802   6.215  62.880  1.00  0.00    -0.039 OA 
HETATM   13  C   UNL     1     -10.083   7.322  67.053  1.00  0.00    -0.316 C  
HETATM   14  C   UNL     1      -5.984   6.296  65.133  1.00  0.00    -0.026 C  
HETATM   15  C   UNL     1      -9.356   7.024  68.366  1.00  0.00    -0.130 C  
HETATM   16  C   UNL     1      -7.448   5.661  69.680  1.00  0.00    -0.075 C  
HETATM   17  C   UNL     1      -7.009   5.992  64.064  1.00  0.00    -0.050 C  
HETATM   18  C   UNL     1      -8.377   5.705  68.269  1.00  0.00    -0.102 C  
HETATM   19  C   UNL     1      -7.106   3.921  66.871  1.00  0.00    -0.063 C  
HETATM   20  C   UNL     1      -8.295   5.350  64.521  1.00  0.00    -0.138 C  
HETATM   21  O   UNL     1      -6.362   6.598  69.534  1.00  0.00    -0.039 OA 
HETATM   22  H   UNL     1      -6.037   6.467  68.651  1.00  0.00     0.000 HD 
HETATM   23  C   UNL     1      -7.557   5.448  66.894  1.00  0.00    -0.089 C  
HETATM   24  C   UNL     1      -6.246   6.115  66.454  1.00  0.00    -0.037 C  
ENDROOT
BRANCH   5  25
HETATM   25  O   UNL     1     -10.070   8.975  70.977  1.00  0.00    -0.232 OA 
BRANCH  25  26
HETATM   26  C   UNL     1     -10.008   9.942  70.005  1.00  0.00    -0.254 C  
HETATM   27  O   UNL     1     -10.973  10.601  69.646  1.00  0.00    -0.244 OA 
BRANCH  26  28
HETATM   28  C   UNL     1      -8.608  10.037  69.436  1.00  0.00    -0.182 C  
HETATM   29  C   UNL     1      -8.482  11.001  68.264  1.00  0.00    -0.138 C  
ENDBRANCH  26  28
ENDBRANCH  25  26
ENDBRANCH   5  25
BRANCH   5  30
HETATM   30  C   UNL     1      -8.389   8.259  72.367  1.00  0.00    -0.170 C  
HETATM   31  O   UNL     1      -8.980   8.575  73.419  1.00  0.00    -0.263 OA 
BRANCH  30  32
HETATM   32  C   UNL     1      -6.850   8.265  72.468  1.00  0.00    -0.089 C  
BRANCH  32  33
HETATM   33  O   UNL     1      -6.273   9.032  71.375  1.00  0.00    -0.061 OA 
BRANCH  33  34
HETATM   34  C   UNL     1      -5.636  10.183  71.738  1.00  0.00     0.117 C  
HETATM   35  O   UNL     1      -5.384  10.480  72.898  1.00  0.00    -0.309 OA 
BRANCH  34  36
HETATM   36  C   UNL     1      -5.276  11.028  70.529  1.00  0.00    -0.094 C  
HETATM   37  C   UNL     1      -5.482  12.515  70.796  1.00  0.00    -0.172 C  
ENDBRANCH  34  36
ENDBRANCH  33  34
ENDBRANCH  32  33
ENDBRANCH  30  32
ENDBRANCH   5  30
TORSDOF 8
ENDMDL
MODEL       83
REMARK 921   NORMALIZED FREE ENERGY PREDICTED BY IDOCK:   -3.29 KCAL/MOL
REMARK 922        TOTAL FREE ENERGY PREDICTED BY IDOCK:   -4.56 KCAL/MOL
REMARK 923 INTER-LIGAND FREE ENERGY PREDICTED BY IDOCK:   -4.72 KCAL/MOL
REMARK 924 INTRA-LIGAND FREE ENERGY PREDICTED BY IDOCK:    0.16 KCAL/MOL
REMARK 927      BINDING AFFINITY PREDICTED BY RF-SCORE:    0.00 PKD
ROOT
HETATM    1  C   UNL     1      -7.859   8.458  67.022  1.00  0.00    -0.096 C  
HETATM    2  C   UNL     1      -7.110   9.644  67.220  1.00  0.00    -0.086 C  
HETATM    3  C   UNL     1      -6.663   8.395  67.931  1.00  0.00    -0.066 C  
HETATM    4  C   UNL     1      -5.141   8.923  68.618  1.00  0.00    -0.034 C  
HETATM    5  C   UNL     1      -7.342   6.617  67.100  1.00  0.00    -0.083 C  
HETATM    6  C   UNL     1     -10.911   9.230  70.401  1.00  0.00    -0.302 C  
HETATM    7 CL   UNL     1      -7.911   9.927  70.236  1.00  0.00    -0.190 Cl 
HETATM    8  C   UNL     1      -6.223   7.364  67.263  1.00  0.00    -0.051 C  
HETATM    9  C   UNL     1      -6.248   6.540  69.004  1.00  0.00    -0.030 C  
HETATM   10  C   UNL     1      -5.128   7.523  66.142  1.00  0.00    -0.024 C  
HETATM   11  C   UNL     1     -11.408   8.927  68.995  1.00  0.00     0.421 C  
HETATM   12  O   UNL     1     -13.824   8.892  72.087  1.00  0.00    -0.421 OA 
HETATM   13  C   UNL     1     -10.300   9.126  67.972  1.00  0.00    -0.272 C  
HETATM   14  C   UNL     1     -12.040   7.302  71.868  1.00  0.00    -0.349 C  
HETATM   15  C   UNL     1      -9.129   8.182  68.249  1.00  0.00    -0.135 C  
HETATM   16  C   UNL     1      -7.606   6.868  70.034  1.00  0.00    -0.099 C  
HETATM   17  C   UNL     1     -12.665   8.675  71.760  1.00  0.00    -0.359 C  
HETATM   18  C   UNL     1      -8.709   8.134  69.839  1.00  0.00    -0.138 C  
HETATM   19  C   UNL     1      -9.224   8.631  72.338  1.00  0.00    -0.257 C  
HETATM   20  C   UNL     1     -11.773   9.789  71.271  1.00  0.00    -0.472 C  
HETATM   21  O   UNL     1      -8.345   5.633  70.092  1.00  0.00    -0.114 OA 
HETATM   22  H   UNL     1      -9.088   5.812  70.656  1.00  0.00     0.000 HD 
HETATM   23  C   UNL     1      -9.885   8.202  70.954  1.00  0.00    -0.203 C  
HETATM   24  C   UNL     1     -10.778   7.051  71.436  1.00  0.00    -0.241 C  
ENDROOT
BRANCH   5  25
HETATM   25  O   UNL     1      -7.730   6.678  65.619  1.00  0.00    -0.085 OA 
BRANCH  25  26
HETATM   26  C   UNL     1      -8.683   5.819  65.132  1.00  0.00    -0.066 C  
HETATM   27  O   UNL     1      -9.663   5.464  65.771  1.00  0.00    -0.121 OA 
BRANCH  26  28
HETATM   28  C   UNL     1      -8.321   5.360  63.734  1.00  0.00    -0.102 C  
HETATM   29  C   UNL     1      -6.926   5.777  63.290  1.00  0.00    -0.041 C  
ENDBRANCH  26  28
ENDBRANCH  25  26
ENDBRANCH   5  25
BRANCH   5  30
HETATM   30  C   UNL     1      -6.425   5.183  66.774  1.00  0.00    -0.041 C  
HETATM   31  O   UNL     1      -5.241   5.147  66.387  1.00  0.00    -0.008 OA 
BRANCH  30  32
HETATM   32  C   UNL     1      -7.058   3.803  67.038  1.00  0.00    -0.063 C  
BRANCH  32  33
HETATM   33  O   UNL     1      -8.153   3.919  67.987  1.00  0.00    -0.086 OA 
BRANCH  33  34
HETATM   34  C   UNL     1      -8.883   2.782  68.183  1.00  0.00    -0.125 C  
HETATM   35  O   UNL     1      -9.214   2.026  67.280  1.00  0.00    -0.136 OA 
BRANCH  34  36
HETATM   36  C   UNL     1      -9.213   2.576  69.651  1.00  0.00    -0.195 C  
HETATM   37  C   UNL     1      -7.991   2.136  70.450  1.00  0.00    -0.051 C  
ENDBRANCH  34  36
ENDBRANCH  33  34
ENDBRANCH  32  33
ENDBRANCH  30  32
ENDBRANCH   5  30
TORSDOF 8
ENDMDL
MODEL       84
REMARK 921   NORMALIZED FREE ENERGY PREDICTED BY IDOCK:   -3.29 KCAL/MOL
REMARK 922        TOTAL FREE ENERGY PREDICTED BY IDOCK:   -4.56 KCAL/MOL
REMARK 923 INTER-LIGAND FREE ENERGY PREDICTED BY IDOCK:   -5.07 KCAL/MOL
REMARK 924 INTRA-LIGAND FREE ENERGY PREDICTED BY IDOCK:    0.51 KCAL/MOL
REMARK 927      BINDING AFFINITY PREDICTED BY RF-SCORE:    0.00 PKD
ROOT
HETATM    1  C   UNL     1      -7.755   7.485  67.872  1.00  0.00    -0.116 C  
HETATM    2  C   UNL     1      -7.583   8.642  67.074  1.00  0.00    -0.084 C  
HETATM    3  C   UNL     1      -8.938   7.988  67.094  1.00  0.00    -0.150 C  
HETATM    4  C   UNL     1      -9.888   9.152  66.194  1.00  0.00    -0.363 C  
HETATM    5  C   UNL     1      -9.307   6.773  68.737  1.00  0.00    -0.132 C  
HETATM    6  C   UNL     1      -6.396   4.461  64.657  1.00  0.00    -0.034 C  
HETATM    7 CL   UNL     1      -7.941   7.114  64.363  1.00  0.00    -0.124 Cl 
HETATM    8  C   UNL     1      -9.654   7.960  68.185  1.00  0.00    -0.163 C  
HETATM    9  C   UNL     1     -10.787   6.829  67.114  1.00  0.00    -0.462 C  
HETATM   10  C   UNL     1      -9.897   9.263  69.036  1.00  0.00    -0.168 C  
HETATM   11  C   UNL     1      -5.743   4.439  66.032  1.00  0.00    -0.022 C  
HETATM   12  O   UNL     1      -5.229   1.520  63.461  1.00  0.00    -0.003 OA 
HETATM   13  C   UNL     1      -6.005   5.739  66.779  1.00  0.00    -0.018 C  
HETATM   14  C   UNL     1      -7.379   1.987  64.417  1.00  0.00    -0.058 C  
HETATM   15  C   UNL     1      -7.505   5.948  66.995  1.00  0.00    -0.084 C  
HETATM   16  C   UNL     1     -10.022   5.649  66.098  1.00  0.00    -0.058 C  
HETATM   17  C   UNL     1      -6.040   2.361  63.822  1.00  0.00    -0.014 C  
HETATM   18  C   UNL     1      -8.394   5.644  65.644  1.00  0.00    -0.135 C  
HETATM   19  C   UNL     1      -8.625   4.638  63.259  1.00  0.00    -0.123 C  
HETATM   20  C   UNL     1      -5.765   3.834  63.647  1.00  0.00    -0.014 C  
HETATM   21  O   UNL     1     -10.325   4.376  66.701  1.00  0.00    -0.296 OA 
HETATM   22  H   UNL     1      -9.906   3.729  66.144  1.00  0.00     0.000 HD 
HETATM   23  C   UNL     1      -7.949   4.416  64.684  1.00  0.00    -0.090 C  
HETATM   24  C   UNL     1      -8.246   2.923  64.884  1.00  0.00    -0.087 C  
ENDROOT
BRANCH   5  25
HETATM   25  O   UNL     1      -8.470   7.068  69.986  1.00  0.00    -0.136 OA 
BRANCH  25  26
HETATM   26  C   UNL     1      -7.825   6.041  70.628  1.00  0.00    -0.106 C  
HETATM   27  O   UNL     1      -8.308   4.928  70.778  1.00  0.00    -0.098 OA 
BRANCH  26  28
HETATM   28  C   UNL     1      -6.475   6.498  71.141  1.00  0.00    -0.049 C  
HETATM   29  C   UNL     1      -5.433   5.390  71.208  1.00  0.00    -0.009 C  
ENDBRANCH  26  28
ENDBRANCH  25  26
ENDBRANCH   5  25
BRANCH   5  30
HETATM   30  C   UNL     1     -10.727   6.736  69.728  1.00  0.00    -0.249 C  
HETATM   31  O   UNL     1     -11.733   6.024  69.537  1.00  0.00    -0.160 OA 
BRANCH  30  32
HETATM   32  C   UNL     1     -10.776   7.585  71.014  1.00  0.00    -0.231 C  
BRANCH  32  33
HETATM   33  O   UNL     1     -11.029   6.742  72.170  1.00  0.00    -0.225 OA 
BRANCH  33  34
HETATM   34  C   UNL     1     -10.258   7.002  73.267  1.00  0.00    -0.275 C  
HETATM   35  O   UNL     1      -9.496   7.955  73.346  1.00  0.00    -0.271 OA 
BRANCH  34  36
HETATM   36  C   UNL     1     -10.479   5.975  74.362  1.00  0.00    -0.171 C  
HETATM   37  C   UNL     1     -10.534   4.556  73.804  1.00  0.00    -0.292 C  
ENDBRANCH  34  36
ENDBRANCH  33  34
ENDBRANCH  32  33
ENDBRANCH  30  32
ENDBRANCH   5  30
TORSDOF 8
ENDMDL
MODEL       85
REMARK 921   NORMALIZED FREE ENERGY PREDICTED BY IDOCK:   -3.28 KCAL/MOL
REMARK 922        TOTAL FREE ENERGY PREDICTED BY IDOCK:   -4.55 KCAL/MOL
REMARK 923 INTER-LIGAND FREE ENERGY PREDICTED BY IDOCK:   -5.50 KCAL/MOL
REMARK 924 INTRA-LIGAND FREE ENERGY PREDICTED BY IDOCK:    0.95 KCAL/MOL
REMARK 927      BINDING AFFINITY PREDICTED BY RF-SCORE:    0.00 PKD
ROOT
HETATM    1  C   UNL     1      -8.540   8.912  69.583  1.00  0.00    -0.131 C  
HETATM    2  C   UNL     1      -9.307   9.017  70.769  1.00  0.00    -0.305 C  
HETATM    3  C   UNL     1      -9.965   8.434  69.547  1.00  0.00    -0.190 C  
HETATM    4  C   UNL     1     -11.490   7.889  70.213  1.00  0.00    -0.097 C  
HETATM    5  C   UNL     1      -8.660   7.694  68.111  1.00  0.00    -0.123 C  
HETATM    6  C   UNL     1      -9.485  13.150  68.009  1.00  0.00    -0.220 C  
HETATM    7 CL   UNL     1     -11.246  11.185  69.605  1.00  0.00    -0.323 Cl 
HETATM    8  C   UNL     1      -9.560   7.300  69.044  1.00  0.00    -0.147 C  
HETATM    9  C   UNL     1     -10.806   7.760  67.649  1.00  0.00    -0.149 C  
HETATM   10  C   UNL     1      -9.353   6.030  69.952  1.00  0.00    -0.165 C  
HETATM   11  C   UNL     1      -8.036  12.701  68.134  1.00  0.00    -0.158 C  
HETATM   12  O   UNL     1      -9.024  15.948  66.165  1.00  0.00    -0.317 OA 
HETATM   13  C   UNL     1      -7.919  11.487  69.044  1.00  0.00     0.013 C  
HETATM   14  C   UNL     1      -9.702  13.772  65.418  1.00  0.00    -0.073 C  
HETATM   15  C   UNL     1      -8.710  10.306  68.477  1.00  0.00    -0.130 C  
HETATM   16  C   UNL     1     -10.851   9.412  67.119  1.00  0.00    -0.062 C  
HETATM   17  C   UNL     1      -9.430  14.833  66.461  1.00  0.00    -0.293 C  
HETATM   18  C   UNL     1     -10.210  10.734  67.953  1.00  0.00    -0.203 C  
HETATM   19  C   UNL     1     -11.941  12.546  67.263  1.00  0.00    -0.286 C  
HETATM   20  C   UNL     1      -9.731  14.469  67.893  1.00  0.00    -0.218 C  
HETATM   21  O   UNL     1     -10.285   9.400  65.793  1.00  0.00    -0.317 OA 
HETATM   22  H   UNL     1     -10.310  10.304  65.502  1.00  0.00     0.000 HD 
HETATM   23  C   UNL     1     -10.394  12.169  67.220  1.00  0.00    -0.230 C  
HETATM   24  C   UNL     1     -10.083  12.512  65.757  1.00  0.00    -0.278 C  
ENDROOT
BRANCH   5  25
HETATM   25  O   UNL     1      -7.267   7.301  68.615  1.00  0.00    -0.085 OA 
BRANCH  25  26
HETATM   26  C   UNL     1      -6.183   7.437  67.785  1.00  0.00    -0.044 C  
HETATM   27  O   UNL     1      -6.107   8.282  66.905  1.00  0.00    -0.051 OA 
BRANCH  26  28
HETATM   28  C   UNL     1      -5.140   6.383  68.094  1.00  0.00    -0.007 C  
HETATM   29  C   UNL     1      -5.601   5.334  69.098  1.00  0.00    -0.008 C  
ENDBRANCH  26  28
ENDBRANCH  25  26
ENDBRANCH   5  25
BRANCH   5  30
HETATM   30  C   UNL     1      -8.755   6.180  67.274  1.00  0.00    -0.108 C  
HETATM   31  O   UNL     1      -8.618   6.016  66.046  1.00  0.00    -0.136 OA 
BRANCH  30  32
HETATM   32  C   UNL     1      -8.953   4.880  68.078  1.00  0.00    -0.110 C  
BRANCH  32  33
HETATM   33  O   UNL     1      -8.385   3.749  67.363  1.00  0.00    -0.093 OA 
BRANCH  33  34
HETATM   34  C   UNL     1      -9.013   2.553  67.563  1.00  0.00    -0.161 C  
HETATM   35  O   UNL     1      -9.689   2.301  68.551  1.00  0.00    -0.129 OA 
BRANCH  34  36
HETATM   36  C   UNL     1      -8.775   1.597  66.409  1.00  0.00    -0.120 C  
HETATM   37  C   UNL     1      -9.329   2.143  65.097  1.00  0.00    -0.041 C  
ENDBRANCH  34  36
ENDBRANCH  33  34
ENDBRANCH  32  33
ENDBRANCH  30  32
ENDBRANCH   5  30
TORSDOF 8
ENDMDL
MODEL       86
REMARK 921   NORMALIZED FREE ENERGY PREDICTED BY IDOCK:   -3.26 KCAL/MOL
REMARK 922        TOTAL FREE ENERGY PREDICTED BY IDOCK:   -4.52 KCAL/MOL
REMARK 923 INTER-LIGAND FREE ENERGY PREDICTED BY IDOCK:   -5.20 KCAL/MOL
REMARK 924 INTRA-LIGAND FREE ENERGY PREDICTED BY IDOCK:    0.68 KCAL/MOL
REMARK 927      BINDING AFFINITY PREDICTED BY RF-SCORE:    0.00 PKD
ROOT
HETATM    1  C   UNL     1      -8.280   8.027  71.390  1.00  0.00    -0.127 C  
HETATM    2  C   UNL     1      -7.314   8.336  72.379  1.00  0.00    -0.140 C  
HETATM    3  C   UNL     1      -6.865   7.572  71.162  1.00  0.00    -0.050 C  
HETATM    4  C   UNL     1      -5.130   7.552  71.397  1.00  0.00    -0.027 C  
HETATM    5  C   UNL     1      -8.105   7.747  69.505  1.00  0.00    -0.126 C  
HETATM    6  C   UNL     1      -9.688   4.063  73.297  1.00  0.00    -0.151 C  
HETATM    7 CL   UNL     1      -6.887   5.351  73.231  1.00  0.00    -0.077 Cl 
HETATM    8  C   UNL     1      -6.891   8.121  69.978  1.00  0.00    -0.040 C  
HETATM    9  C   UNL     1      -6.420   6.341  69.416  1.00  0.00    -0.043 C  
HETATM   10  C   UNL     1      -6.275   9.549  69.726  1.00  0.00    -0.040 C  
HETATM   11  C   UNL     1     -10.713   5.131  72.942  1.00  0.00    -0.300 C  
HETATM   12  O   UNL     1     -11.789   1.477  73.882  1.00  0.00    -0.166 OA 
HETATM   13  C   UNL     1     -10.042   6.481  72.737  1.00  0.00    -0.193 C  
HETATM   14  C   UNL     1     -10.521   1.942  71.899  1.00  0.00     0.051 C  
HETATM   15  C   UNL     1      -9.037   6.420  71.585  1.00  0.00    -0.144 C  
HETATM   16  C   UNL     1      -7.223   5.010  70.188  1.00  0.00    -0.058 C  
HETATM   17  C   UNL     1     -10.889   2.117  73.356  1.00  0.00    -0.171 C  
HETATM   18  C   UNL     1      -8.078   5.084  71.645  1.00  0.00    -0.114 C  
HETATM   19  C   UNL     1      -7.542   2.715  72.568  1.00  0.00    -0.052 C  
HETATM   20  C   UNL     1     -10.058   3.091  74.152  1.00  0.00    -0.183 C  
HETATM   21  O   UNL     1      -8.095   4.458  69.183  1.00  0.00    -0.068 OA 
HETATM   22  H   UNL     1      -8.534   3.729  69.605  1.00  0.00     0.000 HD 
HETATM   23  C   UNL     1      -8.730   3.683  72.134  1.00  0.00    -0.113 C  
HETATM   24  C   UNL     1      -9.572   2.707  71.300  1.00  0.00    -0.226 C  
ENDROOT
BRANCH   5  25
HETATM   25  O   UNL     1      -8.992   8.996  69.465  1.00  0.00    -0.139 OA 
BRANCH  25  26
HETATM   26  C   UNL     1     -10.357   8.856  69.413  1.00  0.00    -0.213 C  
HETATM   27  O   UNL     1     -10.927   8.073  68.666  1.00  0.00     0.010 OA 
BRANCH  26  28
HETATM   28  C   UNL     1     -11.028   9.821  70.367  1.00  0.00    -0.371 C  
HETATM   29  C   UNL     1     -12.020   9.161  71.316  1.00  0.00    -0.394 C  
ENDBRANCH  26  28
ENDBRANCH  25  26
ENDBRANCH   5  25
BRANCH   5  30
HETATM   30  C   UNL     1      -7.641   8.057  67.864  1.00  0.00    -0.112 C  
HETATM   31  O   UNL     1      -7.083   7.247  67.099  1.00  0.00    -0.082 OA 
BRANCH  30  32
HETATM   32  C   UNL     1      -7.990   9.414  67.221  1.00  0.00    -0.106 C  
BRANCH  32  33
HETATM   33  O   UNL     1      -9.017   9.245  66.206  1.00  0.00    -0.144 OA 
BRANCH  33  34
HETATM   34  C   UNL     1      -9.063  10.219  65.250  1.00  0.00    -0.191 C  
HETATM   35  O   UNL     1      -8.131  10.477  64.502  1.00  0.00    -0.143 OA 
BRANCH  34  36
HETATM   36  C   UNL     1     -10.409  10.921  65.233  1.00  0.00    -0.334 C  
HETATM   37  C   UNL     1     -10.586  11.775  63.982  1.00  0.00    -0.425 C  
ENDBRANCH  34  36
ENDBRANCH  33  34
ENDBRANCH  32  33
ENDBRANCH  30  32
ENDBRANCH   5  30
TORSDOF 8
ENDMDL
MODEL       87
REMARK 921   NORMALIZED FREE ENERGY PREDICTED BY IDOCK:   -3.26 KCAL/MOL
REMARK 922        TOTAL FREE ENERGY PREDICTED BY IDOCK:   -4.52 KCAL/MOL
REMARK 923 INTER-LIGAND FREE ENERGY PREDICTED BY IDOCK:   -4.50 KCAL/MOL
REMARK 924 INTRA-LIGAND FREE ENERGY PREDICTED BY IDOCK:   -0.01 KCAL/MOL
REMARK 927      BINDING AFFINITY PREDICTED BY RF-SCORE:    0.00 PKD
ROOT
HETATM    1  C   UNL     1      -6.930   6.952  67.605  1.00  0.00    -0.083 C  
HETATM    2  C   UNL     1      -6.364   5.982  66.742  1.00  0.00    -0.041 C  
HETATM    3  C   UNL     1      -7.844   6.237  66.650  1.00  0.00    -0.104 C  
HETATM    4  C   UNL     1      -8.264   5.283  65.243  1.00  0.00    -0.130 C  
HETATM    5  C   UNL     1      -8.473   8.067  67.404  1.00  0.00    -0.126 C  
HETATM    6  C   UNL     1      -7.695   4.081  71.141  1.00  0.00    -0.059 C  
HETATM    7 CL   UNL     1      -7.832   3.572  68.103  1.00  0.00    -0.067 Cl 
HETATM    8  C   UNL     1      -8.304   7.389  66.243  1.00  0.00    -0.132 C  
HETATM    9  C   UNL     1      -9.991   6.617  66.757  1.00  0.00    -0.238 C  
HETATM   10  C   UNL     1      -7.763   8.065  64.927  1.00  0.00    -0.118 C  
HETATM   11  C   UNL     1      -6.918   5.370  71.374  1.00  0.00    -0.065 C  
HETATM   12  O   UNL     1      -8.262   3.205  74.359  1.00  0.00    -0.068 OA 
HETATM   13  C   UNL     1      -6.412   5.944  70.060  1.00  0.00    -0.039 C  
HETATM   14  C   UNL     1      -9.752   4.304  72.834  1.00  0.00    -0.172 C  
HETATM   15  C   UNL     1      -7.580   6.284  69.131  1.00  0.00    -0.099 C  
HETATM   16  C   UNL     1     -10.048   5.707  68.233  1.00  0.00    -0.169 C  
HETATM   17  C   UNL     1      -8.510   3.524  73.205  1.00  0.00    -0.082 C  
HETATM   18  C   UNL     1      -8.711   5.091  69.064  1.00  0.00    -0.101 C  
HETATM   19  C   UNL     1      -9.770   2.913  70.008  1.00  0.00    -0.008 C  
HETATM   20  C   UNL     1      -7.606   3.111  72.071  1.00  0.00    -0.053 C  
HETATM   21  O   UNL     1     -10.813   6.515  69.148  1.00  0.00    -0.244 OA 
HETATM   22  H   UNL     1     -10.844   6.017  69.957  1.00  0.00     0.000 HD 
HETATM   23  C   UNL     1      -9.058   4.276  70.423  1.00  0.00    -0.171 C  
HETATM   24  C   UNL     1      -9.987   4.720  71.562  1.00  0.00    -0.263 C  
ENDROOT
BRANCH   5  25
HETATM   25  O   UNL     1      -7.408   9.167  67.460  1.00  0.00    -0.083 OA 
BRANCH  25  26
HETATM   26  C   UNL     1      -7.501  10.154  68.409  1.00  0.00    -0.086 C  
HETATM   27  O   UNL     1      -7.351  11.342  68.165  1.00  0.00    -0.084 OA 
BRANCH  26  28
HETATM   28  C   UNL     1      -7.774   9.556  69.774  1.00  0.00    -0.123 C  
HETATM   29  C   UNL     1      -6.727   9.908  70.822  1.00  0.00    -0.053 C  
ENDBRANCH  26  28
ENDBRANCH  25  26
ENDBRANCH   5  25
BRANCH   5  30
HETATM   30  C   UNL     1      -9.563   9.197  66.670  1.00  0.00    -0.203 C  
HETATM   31  O   UNL     1      -9.289   9.969  65.730  1.00  0.00    -0.163 OA 
BRANCH  30  32
HETATM   32  C   UNL     1     -11.033   9.242  67.132  1.00  0.00     0.118 C  
BRANCH  32  33
HETATM   33  O   UNL     1     -11.293  10.463  67.877  1.00  0.00    -0.324 OA 
BRANCH  33  34
HETATM   34  C   UNL     1     -11.258  10.339  69.237  1.00  0.00    -0.228 C  
HETATM   35  O   UNL     1     -10.979   9.297  69.814  1.00  0.00    -0.234 OA 
BRANCH  34  36
HETATM   36  C   UNL     1     -11.594  11.649  69.926  1.00  0.00    -0.366 C  
HETATM   37  C   UNL     1     -10.877  12.829  69.278  1.00  0.00    -0.044 C  
ENDBRANCH  34  36
ENDBRANCH  33  34
ENDBRANCH  32  33
ENDBRANCH  30  32
ENDBRANCH   5  30
TORSDOF 8
ENDMDL
MODEL       88
REMARK 921   NORMALIZED FREE ENERGY PREDICTED BY IDOCK:   -3.24 KCAL/MOL
REMARK 922        TOTAL FREE ENERGY PREDICTED BY IDOCK:   -4.49 KCAL/MOL
REMARK 923 INTER-LIGAND FREE ENERGY PREDICTED BY IDOCK:   -5.32 KCAL/MOL
REMARK 924 INTRA-LIGAND FREE ENERGY PREDICTED BY IDOCK:    0.82 KCAL/MOL
REMARK 927      BINDING AFFINITY PREDICTED BY RF-SCORE:    0.00 PKD
ROOT
HETATM    1  C   UNL     1     -11.007  10.298  67.372  1.00  0.00    -0.317 C  
HETATM    2  C   UNL     1     -12.095  10.273  68.279  1.00  0.00     1.099 C  
HETATM    3  C   UNL     1     -10.792  10.859  68.750  1.00  0.00    -0.251 C  
HETATM    4  C   UNL     1     -11.259  11.513  70.306  1.00  0.00     0.130 C  
HETATM    5  C   UNL     1      -9.507  11.479  67.241  1.00  0.00    -0.169 C  
HETATM    6  C   UNL     1      -9.420   6.082  68.390  1.00  0.00    -0.124 C  
HETATM    7 CL   UNL     1     -10.754   8.192  70.199  1.00  0.00    -0.242 Cl 
HETATM    8  C   UNL     1     -10.317  11.953  68.219  1.00  0.00    -0.211 C  
HETATM    9  C   UNL     1      -8.794  11.529  69.318  1.00  0.00     0.423 C  
HETATM   10  C   UNL     1     -11.217  13.233  68.040  1.00  0.00    -0.307 C  
HETATM   11  C   UNL     1      -9.707   6.446  66.940  1.00  0.00    -0.190 C  
HETATM   12  O   UNL     1      -7.703   3.210  67.892  1.00  0.00    -0.063 OA 
HETATM   13  C   UNL     1     -10.599   7.676  66.855  1.00  0.00    -0.359 C  
HETATM   14  C   UNL     1      -6.835   5.402  68.339  1.00  0.00    -0.056 C  
HETATM   15  C   UNL     1      -9.918   8.886  67.498  1.00  0.00    -0.258 C  
HETATM   16  C   UNL     1      -8.296   9.869  69.404  1.00  0.00    -0.156 C  
HETATM   17  C   UNL     1      -7.925   4.355  68.259  1.00  0.00    -0.079 C  
HETATM   18  C   UNL     1      -9.228   8.534  68.950  1.00  0.00    -0.146 C  
HETATM   19  C   UNL     1      -8.375   6.811  70.698  1.00  0.00    -0.129 C  
HETATM   20  C   UNL     1      -9.303   4.777  68.703  1.00  0.00    -0.187 C  
HETATM   21  O   UNL     1      -7.047   9.810  68.686  1.00  0.00    -0.069 OA 
HETATM   22  H   UNL     1      -6.774   8.901  68.733  1.00  0.00     0.000 HD 
HETATM   23  C   UNL     1      -8.508   7.093  69.136  1.00  0.00    -0.133 C  
HETATM   24  C   UNL     1      -7.100   6.691  68.677  1.00  0.00    -0.083 C  
ENDROOT
BRANCH   5  25
HETATM   25  O   UNL     1     -10.165  11.802  65.895  1.00  0.00    -0.221 OA 
BRANCH  25  26
HETATM   26  C   UNL     1      -9.620  11.304  64.738  1.00  0.00    -0.235 C  
HETATM   27  O   UNL     1      -8.563  10.691  64.698  1.00  0.00    -0.175 OA 
BRANCH  26  28
HETATM   28  C   UNL     1     -10.488  11.655  63.547  1.00  0.00    -0.498 C  
HETATM   29  C   UNL     1     -11.545  12.710  63.844  1.00  0.00    -0.521 C  
ENDBRANCH  26  28
ENDBRANCH  25  26
ENDBRANCH   5  25
BRANCH   5  30
HETATM   30  C   UNL     1      -8.632  12.972  67.142  1.00  0.00    -0.195 C  
HETATM   31  O   UNL     1      -7.392  13.093  67.155  1.00  0.00    -0.093 OA 
BRANCH  30  32
HETATM   32  C   UNL     1      -9.405  14.291  66.946  1.00  0.00    -0.257 C  
BRANCH  32  33
HETATM   33  O   UNL     1      -8.517  15.332  66.456  1.00  0.00    -0.265 OA 
BRANCH  33  34
HETATM   34  C   UNL     1      -8.604  16.531  67.103  1.00  0.00    -0.186 C  
HETATM   35  O   UNL     1      -7.700  17.002  67.779  1.00  0.00    -0.167 OA 
BRANCH  34  36
HETATM   36  C   UNL     1      -9.947  17.198  66.866  1.00  0.00    -0.288 C  
HETATM   37  C   UNL     1      -9.907  18.685  67.200  1.00  0.00    -0.340 C  
ENDBRANCH  34  36
ENDBRANCH  33  34
ENDBRANCH  32  33
ENDBRANCH  30  32
ENDBRANCH   5  30
TORSDOF 8
ENDMDL
MODEL       89
REMARK 921   NORMALIZED FREE ENERGY PREDICTED BY IDOCK:   -3.22 KCAL/MOL
REMARK 922        TOTAL FREE ENERGY PREDICTED BY IDOCK:   -4.45 KCAL/MOL
REMARK 923 INTER-LIGAND FREE ENERGY PREDICTED BY IDOCK:   -4.55 KCAL/MOL
REMARK 924 INTRA-LIGAND FREE ENERGY PREDICTED BY IDOCK:    0.09 KCAL/MOL
REMARK 927      BINDING AFFINITY PREDICTED BY RF-SCORE:    0.00 PKD
ROOT
HETATM    1  C   UNL     1      -9.348   5.482  66.990  1.00  0.00    -0.118 C  
HETATM    2  C   UNL     1      -9.448   5.006  65.660  1.00  0.00    -0.153 C  
HETATM    3  C   UNL     1      -8.074   5.202  66.243  1.00  0.00    -0.108 C  
HETATM    4  C   UNL     1      -7.072   4.505  64.987  1.00  0.00    -0.063 C  
HETATM    5  C   UNL     1      -7.992   5.230  68.318  1.00  0.00    -0.088 C  
HETATM    6  C   UNL     1      -9.480   9.972  65.919  1.00  0.00    -0.260 C  
HETATM    7 CL   UNL     1      -8.236   7.601  64.390  1.00  0.00    -0.083 Cl 
HETATM    8  C   UNL     1      -7.659   4.474  67.244  1.00  0.00    -0.085 C  
HETATM    9  C   UNL     1      -6.167   5.689  67.185  1.00  0.00    -0.034 C  
HETATM   10  C   UNL     1      -7.796   2.904  67.225  1.00  0.00    -0.074 C  
HETATM   11  C   UNL     1     -10.452   9.418  66.951  1.00  0.00    -0.281 C  
HETATM   12  O   UNL     1      -9.949  13.278  66.461  1.00  0.00    -0.266 OA 
HETATM   13  C   UNL     1     -10.544   7.902  66.851  1.00  0.00    -0.333 C  
HETATM   14  C   UNL     1      -8.182  11.875  67.277  1.00  0.00    -0.170 C  
HETATM   15  C   UNL     1      -9.183   7.257  67.121  1.00  0.00    -0.156 C  
HETATM   16  C   UNL     1      -6.504   7.371  66.926  1.00  0.00    -0.056 C  
HETATM   17  C   UNL     1      -9.361  12.208  66.390  1.00  0.00    -0.224 C  
HETATM   18  C   UNL     1      -7.951   8.007  66.329  1.00  0.00    -0.105 C  
HETATM   19  C   UNL     1      -7.006  10.035  65.007  1.00  0.00    -0.135 C  
HETATM   20  C   UNL     1      -9.756  11.170  65.369  1.00  0.00    -0.275 C  
HETATM   21  O   UNL     1      -6.216   8.014  68.184  1.00  0.00    -0.044 OA 
HETATM   22  H   UNL     1      -6.400   8.935  68.042  1.00  0.00     0.000 HD 
HETATM   23  C   UNL     1      -7.990   9.622  66.189  1.00  0.00    -0.108 C  
HETATM   24  C   UNL     1      -7.580  10.658  67.245  1.00  0.00    -0.100 C  
ENDROOT
BRANCH   5  25
HETATM   25  O   UNL     1      -9.147   4.528  69.040  1.00  0.00    -0.106 OA 
BRANCH  25  26
HETATM   26  C   UNL     1      -9.586   5.013  70.246  1.00  0.00    -0.187 C  
HETATM   27  O   UNL     1      -9.680   6.205  70.502  1.00  0.00    -0.170 OA 
BRANCH  26  28
HETATM   28  C   UNL     1      -9.892   3.875  71.199  1.00  0.00    -0.223 C  
HETATM   29  C   UNL     1     -10.525   4.321  72.510  1.00  0.00    -0.222 C  
ENDBRANCH  26  28
ENDBRANCH  25  26
ENDBRANCH   5  25
BRANCH   5  30
HETATM   30  C   UNL     1      -6.875   4.392  69.344  1.00  0.00    -0.046 C  
HETATM   31  O   UNL     1      -6.719   3.156  69.397  1.00  0.00    -0.033 OA 
BRANCH  30  32
HETATM   32  C   UNL     1      -5.915   5.201  70.239  1.00  0.00    -0.018 C  
BRANCH  32  33
HETATM   33  O   UNL     1      -6.483   5.376  71.566  1.00  0.00    -0.036 OA 
BRANCH  33  34
HETATM   34  C   UNL     1      -6.072   6.492  72.237  1.00  0.00    -0.039 C  
HETATM   35  O   UNL     1      -5.241   6.473  73.134  1.00  0.00    -0.035 OA 
BRANCH  34  36
HETATM   36  C   UNL     1      -6.765   7.741  71.722  1.00  0.00    -0.050 C  
HETATM   37  C   UNL     1      -5.851   8.960  71.781  1.00  0.00    -0.062 C  
ENDBRANCH  34  36
ENDBRANCH  33  34
ENDBRANCH  32  33
ENDBRANCH  30  32
ENDBRANCH   5  30
TORSDOF 8
ENDMDL
MODEL       90
REMARK 921   NORMALIZED FREE ENERGY PREDICTED BY IDOCK:   -3.17 KCAL/MOL
REMARK 922        TOTAL FREE ENERGY PREDICTED BY IDOCK:   -4.39 KCAL/MOL
REMARK 923 INTER-LIGAND FREE ENERGY PREDICTED BY IDOCK:   -4.64 KCAL/MOL
REMARK 924 INTRA-LIGAND FREE ENERGY PREDICTED BY IDOCK:    0.25 KCAL/MOL
REMARK 927      BINDING AFFINITY PREDICTED BY RF-SCORE:    0.00 PKD
ROOT
HETATM    1  C   UNL     1     -10.813   6.650  69.846  1.00  0.00    -0.329 C  
HETATM    2  C   UNL     1     -11.357   5.602  70.629  1.00  0.00     0.051 C  
HETATM    3  C   UNL     1      -9.910   5.961  70.831  1.00  0.00    -0.224 C  
HETATM    4  C   UNL     1      -9.510   4.977  72.224  1.00  0.00    -0.169 C  
HETATM    5  C   UNL     1      -9.376   7.865  70.197  1.00  0.00    -0.156 C  
HETATM    6  C   UNL     1      -9.604   4.008  66.256  1.00  0.00    -0.211 C  
HETATM    7 CL   UNL     1      -9.625   3.371  69.273  1.00  0.00    -0.208 Cl 
HETATM    8  C   UNL     1      -9.568   7.124  71.315  1.00  0.00    -0.163 C  
HETATM    9  C   UNL     1      -7.796   6.503  70.886  1.00  0.00    -0.106 C  
HETATM   10  C   UNL     1     -10.242   7.697  72.618  1.00  0.00    -0.321 C  
HETATM   11  C   UNL     1     -10.461   5.244  66.023  1.00  0.00    -0.187 C  
HETATM   12  O   UNL     1      -8.766   3.324  63.051  1.00  0.00    -0.088 OA 
HETATM   13  C   UNL     1     -11.093   5.720  67.323  1.00  0.00    -0.010 C  
HETATM   14  C   UNL     1      -7.465   4.459  64.717  1.00  0.00    -0.072 C  
HETATM   15  C   UNL     1     -10.017   6.101  68.342  1.00  0.00    -0.162 C  
HETATM   16  C   UNL     1      -7.575   5.668  69.381  1.00  0.00    -0.083 C  
HETATM   17  C   UNL     1      -8.617   3.607  64.231  1.00  0.00    -0.094 C  
HETATM   18  C   UNL     1      -8.804   4.993  68.436  1.00  0.00    -0.111 C  
HETATM   19  C   UNL     1      -7.523   2.945  67.479  1.00  0.00    -0.057 C  
HETATM   20  C   UNL     1      -9.559   3.077  65.284  1.00  0.00    -0.022 C  
HETATM   21  O   UNL     1      -6.817   6.571  68.553  1.00  0.00    -0.065 OA 
HETATM   22  H   UNL     1      -6.695   6.114  67.729  1.00  0.00     0.000 HD 
HETATM   23  C   UNL     1      -8.308   4.270  67.073  1.00  0.00    -0.101 C  
HETATM   24  C   UNL     1      -7.345   4.832  66.018  1.00  0.00    -0.077 C  
ENDROOT
BRANCH   5  25
HETATM   25  O   UNL     1     -10.517   8.884  70.114  1.00  0.00    -0.200 OA 
BRANCH  25  26
HETATM   26  C   UNL     1     -10.470   9.879  69.169  1.00  0.00    -0.217 C  
HETATM   27  O   UNL     1     -10.747  11.046  69.402  1.00  0.00    -0.229 OA 
BRANCH  26  28
HETATM   28  C   UNL     1     -10.070   9.314  67.821  1.00  0.00    -0.253 C  
HETATM   29  C   UNL     1     -10.191  10.310  66.675  1.00  0.00    -0.294 C  
ENDBRANCH  26  28
ENDBRANCH  25  26
ENDBRANCH   5  25
BRANCH   5  30
HETATM   30  C   UNL     1      -8.426   9.037  71.049  1.00  0.00    -0.203 C  
HETATM   31  O   UNL     1      -8.601   9.400  72.228  1.00  0.00     0.157 OA 
BRANCH  30  32
HETATM   32  C   UNL     1      -7.198   9.664  70.359  1.00  0.00    -0.142 C  
BRANCH  32  33
HETATM   33  O   UNL     1      -7.407  11.087  70.145  1.00  0.00     0.002 OA 
BRANCH  33  34
HETATM   34  C   UNL     1      -7.387  11.494  68.842  1.00  0.00    -0.116 C  
HETATM   35  O   UNL     1      -6.903  10.833  67.934  1.00  0.00    -0.070 OA 
BRANCH  34  36
HETATM   36  C   UNL     1      -8.046  12.851  68.670  1.00  0.00    -0.007 C  
HETATM   37  C   UNL     1      -7.105  13.989  69.050  1.00  0.00    -0.106 C  
ENDBRANCH  34  36
ENDBRANCH  33  34
ENDBRANCH  32  33
ENDBRANCH  30  32
ENDBRANCH   5  30
TORSDOF 8
ENDMDL
MODEL       91
REMARK 921   NORMALIZED FREE ENERGY PREDICTED BY IDOCK:   -3.13 KCAL/MOL
REMARK 922        TOTAL FREE ENERGY PREDICTED BY IDOCK:   -4.33 KCAL/MOL
REMARK 923 INTER-LIGAND FREE ENERGY PREDICTED BY IDOCK:   -5.43 KCAL/MOL
REMARK 924 INTRA-LIGAND FREE ENERGY PREDICTED BY IDOCK:    1.10 KCAL/MOL
REMARK 927      BINDING AFFINITY PREDICTED BY RF-SCORE:    0.00 PKD
ROOT
HETATM    1  C   UNL     1      -8.044  10.887  66.027  1.00  0.00    -0.142 C  
HETATM    2  C   UNL     1      -8.004  10.656  64.631  1.00  0.00     0.050 C  
HETATM    3  C   UNL     1      -9.317  10.476  65.342  1.00  0.00    -0.255 C  
HETATM    4  C   UNL     1     -10.403  10.225  63.991  1.00  0.00     0.293 C  
HETATM    5  C   UNL     1      -9.473  11.455  67.167  1.00  0.00    -0.175 C  
HETATM    6  C   UNL     1      -6.840   6.606  67.273  1.00  0.00    -0.072 C  
HETATM    7 CL   UNL     1      -8.535   7.579  64.887  1.00  0.00    -0.037 Cl 
HETATM    8  C   UNL     1      -9.928  11.491  65.891  1.00  0.00    -0.267 C  
HETATM    9  C   UNL     1     -11.097  10.111  66.552  1.00  0.00     0.211 C  
HETATM   10  C   UNL     1     -10.155  12.833  65.099  1.00  0.00    -0.246 C  
HETATM   11  C   UNL     1      -6.063   7.794  67.822  1.00  0.00    -0.046 C  
HETATM   12  O   UNL     1      -5.645   4.191  69.317  1.00  0.00    -0.015 OA 
HETATM   13  C   UNL     1      -6.319   9.042  66.990  1.00  0.00    -0.060 C  
HETATM   14  C   UNL     1      -7.718   5.387  69.484  1.00  0.00    -0.077 C  
HETATM   15  C   UNL     1      -7.801   9.420  67.019  1.00  0.00    -0.098 C  
HETATM   16  C   UNL     1     -10.372   8.640  67.119  1.00  0.00    -0.299 C  
HETATM   17  C   UNL     1      -6.460   4.928  68.781  1.00  0.00    -0.037 C  
HETATM   18  C   UNL     1      -8.795   8.128  66.794  1.00  0.00    -0.156 C  
HETATM   19  C   UNL     1      -9.195   5.562  66.708  1.00  0.00    -0.129 C  
HETATM   20  C   UNL     1      -6.274   5.387  67.356  1.00  0.00    -0.034 C  
HETATM   21  O   UNL     1     -10.554   8.654  68.549  1.00  0.00    -0.317 OA 
HETATM   22  H   UNL     1     -10.157   7.849  68.860  1.00  0.00     0.000 HD 
HETATM   23  C   UNL     1      -8.380   6.707  67.456  1.00  0.00    -0.121 C  
HETATM   24  C   UNL     1      -8.583   6.264  68.912  1.00  0.00    -0.125 C  
ENDROOT
BRANCH   5  25
HETATM   25  O   UNL     1      -8.540  12.656  67.361  1.00  0.00    -0.170 OA 
BRANCH  25  26
HETATM   26  C   UNL     1      -7.612  12.636  68.372  1.00  0.00    -0.132 C  
HETATM   27  O   UNL     1      -7.519  11.729  69.186  1.00  0.00    -0.072 OA 
BRANCH  26  28
HETATM   28  C   UNL     1      -6.769  13.894  68.345  1.00  0.00    -0.099 C  
HETATM   29  C   UNL     1      -5.862  14.055  69.558  1.00  0.00    -0.097 C  
ENDBRANCH  26  28
ENDBRANCH  25  26
ENDBRANCH   5  25
BRANCH   5  30
HETATM   30  C   UNL     1     -10.792  12.421  67.741  1.00  0.00    -0.225 C  
HETATM   31  O   UNL     1     -11.839  11.990  68.262  1.00  0.00    -0.339 OA 
BRANCH  30  32
HETATM   32  C   UNL     1     -10.683  13.958  67.694  1.00  0.00    -0.249 C  
BRANCH  32  33
HETATM   33  O   UNL     1     -11.825  14.569  68.356  1.00  0.00    -0.323 OA 
BRANCH  33  34
HETATM   34  C   UNL     1     -11.528  15.349  69.436  1.00  0.00    -0.324 C  
HETATM   35  O   UNL     1     -10.496  15.996  69.540  1.00  0.00    -0.244 OA 
BRANCH  34  36
HETATM   36  C   UNL     1     -12.639  15.318  70.470  1.00  0.00    -0.450 C  
HETATM   37  C   UNL     1     -12.146  15.756  71.845  1.00  0.00    -0.548 C  
ENDBRANCH  34  36
ENDBRANCH  33  34
ENDBRANCH  32  33
ENDBRANCH  30  32
ENDBRANCH   5  30
TORSDOF 8
ENDMDL
MODEL       92
REMARK 921   NORMALIZED FREE ENERGY PREDICTED BY IDOCK:   -3.05 KCAL/MOL
REMARK 922        TOTAL FREE ENERGY PREDICTED BY IDOCK:   -4.21 KCAL/MOL
REMARK 923 INTER-LIGAND FREE ENERGY PREDICTED BY IDOCK:   -4.77 KCAL/MOL
REMARK 924 INTRA-LIGAND FREE ENERGY PREDICTED BY IDOCK:    0.57 KCAL/MOL
REMARK 927      BINDING AFFINITY PREDICTED BY RF-SCORE:    0.00 PKD
ROOT
HETATM    1  C   UNL     1      -8.904   8.113  70.954  1.00  0.00    -0.156 C  
HETATM    2  C   UNL     1      -8.220   8.753  72.016  1.00  0.00    -0.079 C  
HETATM    3  C   UNL     1      -7.420   7.903  71.066  1.00  0.00    -0.073 C  
HETATM    4  C   UNL     1      -5.787   8.248  71.598  1.00  0.00    -0.038 C  
HETATM    5  C   UNL     1      -8.306   7.574  69.217  1.00  0.00    -0.132 C  
HETATM    6  C   UNL     1     -10.043   4.311  73.315  1.00  0.00    -0.199 C  
HETATM    7 CL   UNL     1      -7.521   6.077  73.489  1.00  0.00    -0.092 Cl 
HETATM    8  C   UNL     1      -7.287   8.241  69.812  1.00  0.00    -0.065 C  
HETATM    9  C   UNL     1      -6.442   6.515  69.695  1.00  0.00    -0.047 C  
HETATM   10  C   UNL     1      -6.861   9.700  69.400  1.00  0.00    -0.054 C  
HETATM   11  C   UNL     1     -11.126   5.097  72.589  1.00  0.00    -0.298 C  
HETATM   12  O   UNL     1     -11.794   1.503  74.016  1.00  0.00    -0.126 OA 
HETATM   13  C   UNL     1     -10.644   6.499  72.247  1.00  0.00    -0.238 C  
HETATM   14  C   UNL     1     -10.235   1.876  72.230  1.00  0.00    -0.231 C  
HETATM   15  C   UNL     1      -9.428   6.444  71.320  1.00  0.00    -0.175 C  
HETATM   16  C   UNL     1      -7.171   5.198  70.558  1.00  0.00    -0.061 C  
HETATM   17  C   UNL     1     -10.915   2.209  73.540  1.00  0.00    -0.186 C  
HETATM   18  C   UNL     1      -8.306   5.341  71.802  1.00  0.00    -0.119 C  
HETATM   19  C   UNL     1      -7.611   3.293  73.244  1.00  0.00    -0.057 C  
HETATM   20  C   UNL     1     -10.425   3.437  74.265  1.00  0.00    -0.258 C  
HETATM   21  O   UNL     1      -7.723   4.337  69.542  1.00  0.00    -0.054 OA 
HETATM   22  H   UNL     1      -8.121   3.616  70.015  1.00  0.00     0.000 HD 
HETATM   23  C   UNL     1      -8.820   3.938  72.432  1.00  0.00    -0.123 C  
HETATM   24  C   UNL     1      -9.313   2.700  71.669  1.00  0.00    -0.194 C  
ENDROOT
BRANCH   5  25
HETATM   25  O   UNL     1      -9.349   8.610  68.784  1.00  0.00    -0.142 OA 
BRANCH  25  26
HETATM   26  C   UNL     1     -10.209   8.317  67.755  1.00  0.00    -0.223 C  
HETATM   27  O   UNL     1     -10.307   8.994  66.742  1.00  0.00    -0.261 OA 
BRANCH  26  28
HETATM   28  C   UNL     1     -11.022   7.081  68.078  1.00  0.00    -0.185 C  
HETATM   29  C   UNL     1     -10.984   6.016  66.989  1.00  0.00    -0.364 C  
ENDBRANCH  26  28
ENDBRANCH  25  26
ENDBRANCH   5  25
BRANCH   5  30
HETATM   30  C   UNL     1      -7.570   7.700  67.653  1.00  0.00    -0.109 C  
HETATM   31  O   UNL     1      -7.166   8.752  67.119  1.00  0.00    -0.078 OA 
BRANCH  30  32
HETATM   32  C   UNL     1      -7.301   6.420  66.838  1.00  0.00    -0.079 C  
BRANCH  32  33
HETATM   33  O   UNL     1      -7.253   6.724  65.417  1.00  0.00    -0.071 OA 
BRANCH  33  34
HETATM   34  C   UNL     1      -7.108   5.646  64.591  1.00  0.00    -0.057 C  
HETATM   35  O   UNL     1      -7.766   4.620  64.695  1.00  0.00    -0.075 OA 
BRANCH  34  36
HETATM   36  C   UNL     1      -6.046   5.891  63.534  1.00  0.00    -0.025 C  
HETATM   37  C   UNL     1      -6.227   7.245  62.854  1.00  0.00    -0.053 C  
ENDBRANCH  34  36
ENDBRANCH  33  34
ENDBRANCH  32  33
ENDBRANCH  30  32
ENDBRANCH   5  30
TORSDOF 8
ENDMDL
MODEL       93
REMARK 921   NORMALIZED FREE ENERGY PREDICTED BY IDOCK:   -2.99 KCAL/MOL
REMARK 922        TOTAL FREE ENERGY PREDICTED BY IDOCK:   -4.12 KCAL/MOL
REMARK 923 INTER-LIGAND FREE ENERGY PREDICTED BY IDOCK:   -5.39 KCAL/MOL
REMARK 924 INTRA-LIGAND FREE ENERGY PREDICTED BY IDOCK:    1.26 KCAL/MOL
REMARK 927      BINDING AFFINITY PREDICTED BY RF-SCORE:    0.00 PKD
ROOT
HETATM    1  C   UNL     1      -7.265   7.978  68.545  1.00  0.00    -0.085 C  
HETATM    2  C   UNL     1      -6.396   8.958  68.005  1.00  0.00    -0.056 C  
HETATM    3  C   UNL     1      -7.861   9.047  67.672  1.00  0.00    -0.101 C  
HETATM    4  C   UNL     1      -7.925  10.585  66.838  1.00  0.00    -0.121 C  
HETATM    5  C   UNL     1      -9.126   8.053  68.985  1.00  0.00    -0.144 C  
HETATM    6  C   UNL     1      -6.725   4.909  65.137  1.00  0.00    -0.048 C  
HETATM    7 CL   UNL     1      -6.759   7.991  65.048  1.00  0.00    -0.051 Cl 
HETATM    8  C   UNL     1      -8.747   9.295  68.598  1.00  0.00    -0.132 C  
HETATM    9  C   UNL     1      -9.981   8.936  67.164  1.00  0.00    -0.289 C  
HETATM   10  C   UNL     1      -8.559  10.488  69.609  1.00  0.00     0.022 C  
HETATM   11  C   UNL     1      -6.504   4.476  66.580  1.00  0.00    -0.041 C  
HETATM   12  O   UNL     1      -6.792   1.863  63.666  1.00  0.00    -0.029 OA 
HETATM   13  C   UNL     1      -6.309   5.683  67.486  1.00  0.00    -0.042 C  
HETATM   14  C   UNL     1      -8.645   3.249  64.298  1.00  0.00    -0.093 C  
HETATM   15  C   UNL     1      -7.548   6.580  67.469  1.00  0.00    -0.105 C  
HETATM   16  C   UNL     1      -9.626   7.607  66.106  1.00  0.00    -0.006 C  
HETATM   17  C   UNL     1      -7.186   2.965  64.022  1.00  0.00    -0.057 C  
HETATM   18  C   UNL     1      -8.127   6.842  65.951  1.00  0.00    -0.119 C  
HETATM   19  C   UNL     1      -8.219   6.244  63.424  1.00  0.00     0.019 C  
HETATM   20  C   UNL     1      -6.232   4.126  64.159  1.00  0.00    -0.026 C  
HETATM   21  O   UNL     1     -10.613   6.603  66.414  1.00  0.00    -0.487 OA 
HETATM   22  H   UNL     1     -10.419   5.875  65.834  1.00  0.00     0.000 HD 
HETATM   23  C   UNL     1      -8.081   5.623  64.883  1.00  0.00    -0.127 C  
HETATM   24  C   UNL     1      -9.068   4.453  64.763  1.00  0.00    -0.152 C  
ENDROOT
BRANCH   5  25
HETATM   25  O   UNL     1      -8.572   7.816  70.394  1.00  0.00    -0.134 OA 
BRANCH  25  26
HETATM   26  C   UNL     1      -8.777   6.606  71.008  1.00  0.00    -0.138 C  
HETATM   27  O   UNL     1      -9.125   5.596  70.413  1.00  0.00    -0.140 OA 
BRANCH  26  28
HETATM   28  C   UNL     1      -8.549   6.721  72.501  1.00  0.00    -0.127 C  
HETATM   29  C   UNL     1      -8.798   8.116  73.057  1.00  0.00    -0.316 C  
ENDBRANCH  26  28
ENDBRANCH  25  26
ENDBRANCH   5  25
BRANCH   5  30
HETATM   30  C   UNL     1     -10.595   8.643  69.690  1.00  0.00    -0.218 C  
HETATM   31  O   UNL     1     -11.302   8.035  70.518  1.00  0.00    -0.269 OA 
BRANCH  30  32
HETATM   32  C   UNL     1     -11.077  10.068  69.356  1.00  0.00    -0.223 C  
BRANCH  32  33
HETATM   33  O   UNL     1     -12.251  10.405  70.144  1.00  0.00    -0.273 OA 
BRANCH  33  34
HETATM   34  C   UNL     1     -12.316  11.699  70.576  1.00  0.00    -0.321 C  
HETATM   35  O   UNL     1     -12.923  12.048  71.579  1.00  0.00    -0.397 OA 
BRANCH  34  36
HETATM   36  C   UNL     1     -11.537  12.631  69.666  1.00  0.00    -0.321 C  
HETATM   37  C   UNL     1     -12.316  13.907  69.362  1.00  0.00    -0.240 C  
ENDBRANCH  34  36
ENDBRANCH  33  34
ENDBRANCH  32  33
ENDBRANCH  30  32
ENDBRANCH   5  30
TORSDOF 8
ENDMDL
MODEL       94
REMARK 921   NORMALIZED FREE ENERGY PREDICTED BY IDOCK:   -2.84 KCAL/MOL
REMARK 922        TOTAL FREE ENERGY PREDICTED BY IDOCK:   -3.91 KCAL/MOL
REMARK 923 INTER-LIGAND FREE ENERGY PREDICTED BY IDOCK:   -5.16 KCAL/MOL
REMARK 924 INTRA-LIGAND FREE ENERGY PREDICTED BY IDOCK:    1.25 KCAL/MOL
REMARK 927      BINDING AFFINITY PREDICTED BY RF-SCORE:    0.00 PKD
ROOT
HETATM    1  C   UNL     1      -9.477   9.096  66.604  1.00  0.00    -0.242 C  
HETATM    2  C   UNL     1      -9.694   9.142  65.206  1.00  0.00     0.016 C  
HETATM    3  C   UNL     1      -8.351   9.572  65.729  1.00  0.00    -0.132 C  
HETATM    4  C   UNL     1      -7.458   9.780  64.237  1.00  0.00    -0.132 C  
HETATM    5  C   UNL     1      -7.872   8.859  67.621  1.00  0.00    -0.101 C  
HETATM    6  C   UNL     1     -11.120  13.319  67.497  1.00  0.00    -0.292 C  
HETATM    7 CL   UNL     1      -9.567  12.268  65.049  1.00  0.00    -0.060 Cl 
HETATM    8  C   UNL     1      -7.552   8.718  66.311  1.00  0.00    -0.091 C  
HETATM    9  C   UNL     1      -6.521  10.305  66.667  1.00  0.00    -0.076 C  
HETATM   10  C   UNL     1      -7.227   7.324  65.654  1.00  0.00    -0.070 C  
HETATM   11  C   UNL     1     -11.665  12.124  68.266  1.00  0.00    -0.401 C  
HETATM   12  O   UNL     1     -12.415  15.809  69.386  1.00  0.00    -0.162 OA 
HETATM   13  C   UNL     1     -11.329  10.821  67.554  1.00  0.00    -0.283 C  
HETATM   14  C   UNL     1     -10.192  14.909  69.435  1.00  0.00    -0.180 C  
HETATM   15  C   UNL     1      -9.814  10.636  67.447  1.00  0.00    -0.198 C  
HETATM   16  C   UNL     1      -7.378  11.735  67.149  1.00  0.00    -0.146 C  
HETATM   17  C   UNL     1     -11.567  15.115  68.841  1.00  0.00    -0.341 C  
HETATM   18  C   UNL     1      -9.036  12.002  66.960  1.00  0.00    -0.198 C  
HETATM   19  C   UNL     1      -9.003  14.566  66.538  1.00  0.00    -0.211 C  
HETATM   20  C   UNL     1     -11.836  14.460  67.510  1.00  0.00    -0.418 C  
HETATM   21  O   UNL     1      -7.047  11.925  68.538  1.00  0.00    -0.077 OA 
HETATM   22  H   UNL     1      -7.516  12.708  68.802  1.00  0.00     0.000 HD 
HETATM   23  C   UNL     1      -9.570  13.434  67.503  1.00  0.00    -0.221 C  
HETATM   24  C   UNL     1      -9.279  14.080  68.865  1.00  0.00     0.039 C  
ENDROOT
BRANCH   5  25
HETATM   25  O   UNL     1      -8.606   7.587  68.059  1.00  0.00    -0.123 OA 
BRANCH  25  26
HETATM   26  C   UNL     1      -9.619   7.673  68.981  1.00  0.00    -0.151 C  
HETATM   27  O   UNL     1     -10.783   7.394  68.733  1.00  0.00    -0.194 OA 
BRANCH  26  28
HETATM   28  C   UNL     1      -9.093   8.190  70.304  1.00  0.00    -0.151 C  
HETATM   29  C   UNL     1      -9.230   9.697  70.475  1.00  0.00    -0.212 C  
ENDBRANCH  26  28
ENDBRANCH  25  26
ENDBRANCH   5  25
BRANCH   5  30
HETATM   30  C   UNL     1      -6.380   8.145  68.136  1.00  0.00    -0.055 C  
HETATM   31  O   UNL     1      -5.751   7.254  67.533  1.00  0.00    -0.027 OA 
BRANCH  30  32
HETATM   32  C   UNL     1      -5.688   8.671  69.409  1.00  0.00    -0.034 C  
BRANCH  32  33
HETATM   33  O   UNL     1      -5.171   7.566  70.200  1.00  0.00    -0.023 OA 
BRANCH  33  34
HETATM   34  C   UNL     1      -5.958   7.174  71.245  1.00  0.00    -0.036 C  
HETATM   35  O   UNL     1      -6.521   6.090  71.298  1.00  0.00    -0.046 OA 
BRANCH  34  36
HETATM   36  C   UNL     1      -6.029   8.242  72.322  1.00  0.00    -0.053 C  
HETATM   37  C   UNL     1      -6.473   7.665  73.662  1.00  0.00    -0.078 C  
ENDBRANCH  34  36
ENDBRANCH  33  34
ENDBRANCH  32  33
ENDBRANCH  30  32
ENDBRANCH   5  30
TORSDOF 8
ENDMDL
MODEL       95
REMARK 921   NORMALIZED FREE ENERGY PREDICTED BY IDOCK:   -2.75 KCAL/MOL
REMARK 922        TOTAL FREE ENERGY PREDICTED BY IDOCK:   -3.77 KCAL/MOL
REMARK 923 INTER-LIGAND FREE ENERGY PREDICTED BY IDOCK:   -4.92 KCAL/MOL
REMARK 924 INTRA-LIGAND FREE ENERGY PREDICTED BY IDOCK:    1.15 KCAL/MOL
REMARK 927      BINDING AFFINITY PREDICTED BY RF-SCORE:    0.00 PKD
ROOT
HETATM    1  C   UNL     1     -10.298  15.446  66.456  1.00  0.00    -0.293 C  
HETATM    2  C   UNL     1     -11.709  15.449  66.581  1.00  0.00     0.170 C  
HETATM    3  C   UNL     1     -10.885  15.367  67.838  1.00  0.00    -0.300 C  
HETATM    4  C   UNL     1     -12.124  15.526  69.065  1.00  0.00    -0.246 C  
HETATM    5  C   UNL     1      -8.928  16.039  67.654  1.00  0.00    -0.190 C  
HETATM    6  C   UNL     1      -9.857  10.879  65.930  1.00  0.00    -0.285 C  
HETATM    7 CL   UNL     1     -11.857  12.499  67.628  1.00  0.00    -0.419 Cl 
HETATM    8  C   UNL     1     -10.123  16.361  68.206  1.00  0.00    -0.248 C  
HETATM    9  C   UNL     1      -9.546  15.097  69.540  1.00  0.00    -0.158 C  
HETATM   10  C   UNL     1     -10.672  17.836  68.259  1.00  0.00    -0.255 C  
HETATM   11  C   UNL     1      -9.229  11.816  64.908  1.00  0.00     0.137 C  
HETATM   12  O   UNL     1      -8.351   7.993  65.009  1.00  0.00    -0.147 OA 
HETATM   13  C   UNL     1      -9.830  13.211  65.009  1.00  0.00    -0.064 C  
HETATM   14  C   UNL     1      -7.768   9.464  66.813  1.00  0.00    -0.098 C  
HETATM   15  C   UNL     1      -9.572  13.813  66.392  1.00  0.00    -0.285 C  
HETATM   16  C   UNL     1      -9.293  13.455  69.042  1.00  0.00     0.378 C  
HETATM   17  C   UNL     1      -8.672   8.933  65.724  1.00  0.00    -0.176 C  
HETATM   18  C   UNL     1      -9.873  12.756  67.616  1.00  0.00    -0.214 C  
HETATM   19  C   UNL     1     -10.296  10.339  68.474  1.00  0.00    -0.200 C  
HETATM   20  C   UNL     1     -10.024   9.588  65.586  1.00  0.00    -0.269 C  
HETATM   21  O   UNL     1      -7.867  13.258  69.092  1.00  0.00    -0.321 OA 
HETATM   22  H   UNL     1      -7.728  12.358  68.819  1.00  0.00     0.000 HD 
HETATM   23  C   UNL     1      -9.484  11.196  67.405  1.00  0.00    -0.176 C  
HETATM   24  C   UNL     1      -8.098  10.554  67.554  1.00  0.00    -0.107 C  
ENDROOT
BRANCH   5  25
HETATM   25  O   UNL     1      -8.665  17.022  66.509  1.00  0.00    -0.228 OA 
BRANCH  25  26
HETATM   26  C   UNL     1      -7.375  17.275  66.116  1.00  0.00    -0.281 C  
HETATM   27  O   UNL     1      -6.528  16.405  65.976  1.00  0.00     0.329 OA 
BRANCH  26  28
HETATM   28  C   UNL     1      -7.158  18.763  65.926  1.00  0.00    -0.290 C  
HETATM   29  C   UNL     1      -6.099  19.354  66.847  1.00  0.00    -0.169 C  
ENDBRANCH  26  28
ENDBRANCH  25  26
ENDBRANCH   5  25
BRANCH   5  30
HETATM   30  C   UNL     1      -8.067  17.095  68.724  1.00  0.00    -0.252 C  
HETATM   31  O   UNL     1      -8.541  18.092  69.304  1.00  0.00     0.056 OA 
BRANCH  30  32
HETATM   32  C   UNL     1      -6.601  16.780  69.083  1.00  0.00    -0.214 C  
BRANCH  32  33
HETATM   33  O   UNL     1      -6.539  15.751  70.109  1.00  0.00    -0.092 OA 
BRANCH  33  34
HETATM   34  C   UNL     1      -5.661  14.734  69.867  1.00  0.00    -0.105 C  
HETATM   35  O   UNL     1      -5.267  14.431  68.750  1.00  0.00    -0.083 OA 
BRANCH  34  36
HETATM   36  C   UNL     1      -5.235  14.047  71.152  1.00  0.00    -0.147 C  
HETATM   37  C   UNL     1      -6.023  14.557  72.355  1.00  0.00     0.326 C  
ENDBRANCH  34  36
ENDBRANCH  33  34
ENDBRANCH  32  33
ENDBRANCH  30  32
ENDBRANCH   5  30
TORSDOF 8
ENDMDL
MODEL       96
REMARK 921   NORMALIZED FREE ENERGY PREDICTED BY IDOCK:   -2.75 KCAL/MOL
REMARK 922        TOTAL FREE ENERGY PREDICTED BY IDOCK:   -3.76 KCAL/MOL
REMARK 923 INTER-LIGAND FREE ENERGY PREDICTED BY IDOCK:   -4.24 KCAL/MOL
REMARK 924 INTRA-LIGAND FREE ENERGY PREDICTED BY IDOCK:    0.48 KCAL/MOL
REMARK 927      BINDING AFFINITY PREDICTED BY RF-SCORE:    0.00 PKD
ROOT
HETATM    1  C   UNL     1     -11.054   9.701  67.975  1.00  0.00    -0.108 C  
HETATM    2  C   UNL     1     -12.122  10.344  68.648  1.00  0.00     0.416 C  
HETATM    3  C   UNL     1     -10.727  10.860  68.875  1.00  0.00    -0.252 C  
HETATM    4  C   UNL     1     -11.049  12.306  69.809  1.00  0.00     0.078 C  
HETATM    5  C   UNL     1      -9.351  10.360  67.402  1.00  0.00    -0.145 C  
HETATM    6  C   UNL     1     -10.327   6.463  71.187  1.00  0.00    -0.244 C  
HETATM    7 CL   UNL     1     -11.210   9.402  71.493  1.00  0.00    -0.449 Cl 
HETATM    8  C   UNL     1     -10.047  11.408  67.904  1.00  0.00    -0.198 C  
HETATM    9  C   UNL     1      -8.634  11.378  69.211  1.00  0.00     0.302 C  
HETATM   10  C   UNL     1     -10.678  12.531  66.997  1.00  0.00    -0.268 C  
HETATM   11  C   UNL     1     -10.542   6.049  69.738  1.00  0.00    -0.356 C  
HETATM   12  O   UNL     1      -9.212   3.520  72.428  1.00  0.00    -0.098 OA 
HETATM   13  C   UNL     1     -11.174   7.178  68.938  1.00  0.00     0.056 C  
HETATM   14  C   UNL     1      -7.927   5.432  71.758  1.00  0.00    -0.113 C  
HETATM   15  C   UNL     1     -10.265   8.409  68.925  1.00  0.00    -0.223 C  
HETATM   16  C   UNL     1      -8.473   9.958  70.195  1.00  0.00    -0.111 C  
HETATM   17  C   UNL     1      -9.202   4.705  72.123  1.00  0.00    -0.127 C  
HETATM   18  C   UNL     1      -9.652   8.767  70.409  1.00  0.00    -0.210 C  
HETATM   19  C   UNL     1      -9.148   8.113  72.873  1.00  0.00    -0.337 C  
HETATM   20  C   UNL     1     -10.468   5.524  72.141  1.00  0.00    -0.272 C  
HETATM   21  O   UNL     1      -7.263   9.318  69.743  1.00  0.00    -0.057 OA 
HETATM   22  H   UNL     1      -7.175   8.541  70.282  1.00  0.00     0.000 HD 
HETATM   23  C   UNL     1      -9.230   7.545  71.388  1.00  0.00    -0.150 C  
HETATM   24  C   UNL     1      -7.930   6.728  71.349  1.00  0.00    -0.109 C  
ENDROOT
BRANCH   5  25
HETATM   25  O   UNL     1      -9.938  10.028  66.026  1.00  0.00    -0.241 OA 
BRANCH  25  26
HETATM   26  C   UNL     1      -9.327   9.085  65.238  1.00  0.00    -0.088 C  
HETATM   27  O   UNL     1      -9.131   7.932  65.592  1.00  0.00    -0.095 OA 
BRANCH  26  28
HETATM   28  C   UNL     1      -8.910   9.689  63.912  1.00  0.00    -0.255 C  
HETATM   29  C   UNL     1      -8.345   8.677  62.925  1.00  0.00    -0.164 C  
ENDBRANCH  26  28
ENDBRANCH  25  26
ENDBRANCH   5  25
BRANCH   5  30
HETATM   30  C   UNL     1      -8.200  11.400  66.631  1.00  0.00    -0.163 C  
HETATM   31  O   UNL     1      -8.377  12.602  66.349  1.00  0.00     0.095 OA 
BRANCH  30  32
HETATM   32  C   UNL     1      -6.790  10.865  66.309  1.00  0.00    -0.123 C  
BRANCH  32  33
HETATM   33  O   UNL     1      -6.402   9.848  67.272  1.00  0.00    -0.066 OA 
BRANCH  33  34
HETATM   34  C   UNL     1      -5.985   8.662  66.738  1.00  0.00    -0.056 C  
HETATM   35  O   UNL     1      -5.139   8.577  65.858  1.00  0.00    -0.027 OA 
BRANCH  34  36
HETATM   36  C   UNL     1      -6.691   7.481  67.379  1.00  0.00    -0.067 C  
HETATM   37  C   UNL     1      -5.752   6.678  68.274  1.00  0.00    -0.016 C  
ENDBRANCH  34  36
ENDBRANCH  33  34
ENDBRANCH  32  33
ENDBRANCH  30  32
ENDBRANCH   5  30
TORSDOF 8
ENDMDL
MODEL       97
REMARK 921   NORMALIZED FREE ENERGY PREDICTED BY IDOCK:   -2.74 KCAL/MOL
REMARK 922        TOTAL FREE ENERGY PREDICTED BY IDOCK:   -3.75 KCAL/MOL
REMARK 923 INTER-LIGAND FREE ENERGY PREDICTED BY IDOCK:   -4.00 KCAL/MOL
REMARK 924 INTRA-LIGAND FREE ENERGY PREDICTED BY IDOCK:    0.25 KCAL/MOL
REMARK 927      BINDING AFFINITY PREDICTED BY RF-SCORE:    0.00 PKD
ROOT
HETATM    1  C   UNL     1      -8.239   9.518  69.043  1.00  0.00    -0.113 C  
HETATM    2  C   UNL     1      -7.578  10.300  70.021  1.00  0.00    -0.116 C  
HETATM    3  C   UNL     1      -6.748   9.374  69.174  1.00  0.00    -0.050 C  
HETATM    4  C   UNL     1      -5.129   9.836  69.656  1.00  0.00    -0.034 C  
HETATM    5  C   UNL     1      -7.621   8.800  67.379  1.00  0.00    -0.090 C  
HETATM    6  C   UNL     1      -9.245   5.981  71.837  1.00  0.00    -0.156 C  
HETATM    7 CL   UNL     1      -6.787   7.842  71.794  1.00  0.00    -0.057 Cl 
HETATM    8  C   UNL     1      -6.627   9.567  67.888  1.00  0.00    -0.062 C  
HETATM    9  C   UNL     1      -5.722   7.870  67.971  1.00  0.00    -0.033 C  
HETATM   10  C   UNL     1      -6.252  10.982  67.307  1.00  0.00    -0.068 C  
HETATM   11  C   UNL     1     -10.355   6.637  71.027  1.00  0.00    -0.234 C  
HETATM   12  O   UNL     1     -10.897   3.214  72.867  1.00  0.00    -0.126 OA 
HETATM   13  C   UNL     1      -9.922   8.006  70.522  1.00  0.00    -0.193 C  
HETATM   14  C   UNL     1      -9.351   3.430  71.045  1.00  0.00    -0.212 C  
HETATM   15  C   UNL     1      -8.704   7.886  69.604  1.00  0.00    -0.134 C  
HETATM   16  C   UNL     1      -6.404   6.638  68.985  1.00  0.00    -0.035 C  
HETATM   17  C   UNL     1     -10.043   3.890  72.308  1.00  0.00    -0.164 C  
HETATM   18  C   UNL     1      -7.544   6.886  70.207  1.00  0.00    -0.091 C  
HETATM   19  C   UNL     1      -6.779   5.047  71.876  1.00  0.00    -0.048 C  
HETATM   20  C   UNL     1      -9.597   5.210  72.883  1.00  0.00    -0.162 C  
HETATM   21  O   UNL     1      -6.925   5.646  68.079  1.00  0.00    -0.062 OA 
HETATM   22  H   UNL     1      -7.298   4.971  68.634  1.00  0.00     0.000 HD 
HETATM   23  C   UNL     1      -8.010   5.549  70.999  1.00  0.00    -0.106 C  
HETATM   24  C   UNL     1      -8.458   4.215  70.388  1.00  0.00    -0.098 C  
ENDROOT
BRANCH   5  25
HETATM   25  O   UNL     1      -8.699   9.741  66.831  1.00  0.00    -0.133 OA 
BRANCH  25  26
HETATM   26  C   UNL     1      -9.991   9.294  66.709  1.00  0.00    -0.245 C  
HETATM   27  O   UNL     1     -10.283   8.163  66.351  1.00  0.00    -0.239 OA 
BRANCH  26  28
HETATM   28  C   UNL     1     -10.971  10.400  67.041  1.00  0.00    -0.222 C  
HETATM   29  C   UNL     1     -10.358  11.794  67.022  1.00  0.00    -0.243 C  
ENDBRANCH  26  28
ENDBRANCH  25  26
ENDBRANCH   5  25
BRANCH   5  30
HETATM   30  C   UNL     1      -6.889   8.768  65.809  1.00  0.00    -0.072 C  
HETATM   31  O   UNL     1      -6.070   9.598  65.368  1.00  0.00    -0.063 OA 
BRANCH  30  32
HETATM   32  C   UNL     1      -7.186   7.590  64.859  1.00  0.00    -0.070 C  
BRANCH  32  33
HETATM   33  O   UNL     1      -7.630   6.429  65.613  1.00  0.00    -0.080 OA 
BRANCH  33  34
HETATM   34  C   UNL     1      -7.259   5.219  65.099  1.00  0.00    -0.067 C  
HETATM   35  O   UNL     1      -7.814   4.166  65.381  1.00  0.00    -0.085 OA 
BRANCH  34  36
HETATM   36  C   UNL     1      -6.093   5.355  64.136  1.00  0.00    -0.022 C  
HETATM   37  C   UNL     1      -5.508   3.997  63.761  1.00  0.00    -0.013 C  
ENDBRANCH  34  36
ENDBRANCH  33  34
ENDBRANCH  32  33
ENDBRANCH  30  32
ENDBRANCH   5  30
TORSDOF 8
ENDMDL
MODEL       98
REMARK 921   NORMALIZED FREE ENERGY PREDICTED BY IDOCK:   -2.67 KCAL/MOL
REMARK 922        TOTAL FREE ENERGY PREDICTED BY IDOCK:   -3.65 KCAL/MOL
REMARK 923 INTER-LIGAND FREE ENERGY PREDICTED BY IDOCK:   -3.45 KCAL/MOL
REMARK 924 INTRA-LIGAND FREE ENERGY PREDICTED BY IDOCK:   -0.20 KCAL/MOL
REMARK 927      BINDING AFFINITY PREDICTED BY RF-SCORE:    0.00 PKD
ROOT
HETATM    1  C   UNL     1      -9.051   9.305  65.795  1.00  0.00    -0.260 C  
HETATM    2  C   UNL     1      -8.359   9.819  64.672  1.00  0.00    -0.165 C  
HETATM    3  C   UNL     1      -7.608   9.686  65.969  1.00  0.00    -0.102 C  
HETATM    4  C   UNL     1      -5.977  10.069  65.456  1.00  0.00    -0.087 C  
HETATM    5  C   UNL     1      -8.425   8.344  67.328  1.00  0.00    -0.124 C  
HETATM    6  C   UNL     1     -10.726  13.359  67.240  1.00  0.00    -0.265 C  
HETATM    7 CL   UNL     1      -8.038  12.689  65.886  1.00  0.00     1.183 Cl 
HETATM    8  C   UNL     1      -7.372   8.512  66.491  1.00  0.00    -0.084 C  
HETATM    9  C   UNL     1      -6.717   9.573  67.959  1.00  0.00    -0.063 C  
HETATM   10  C   UNL     1      -6.766   7.341  65.629  1.00  0.00    -0.052 C  
HETATM   11  C   UNL     1     -11.676  12.190  67.019  1.00  0.00    -0.373 C  
HETATM   12  O   UNL     1     -12.811  15.438  68.906  1.00  0.00     0.422 OA 
HETATM   13  C   UNL     1     -11.025  11.116  66.161  1.00  0.00    -0.203 C  
HETATM   14  C   UNL     1     -11.128  13.985  69.807  1.00  0.00    -0.101 C  
HETATM   15  C   UNL     1      -9.775  10.558  66.845  1.00  0.00    -0.218 C  
HETATM   16  C   UNL     1      -7.631  10.976  68.413  1.00  0.00    -0.108 C  
HETATM   17  C   UNL     1     -11.836  14.729  68.697  1.00  0.00    -0.300 C  
HETATM   18  C   UNL     1      -8.809  11.736  67.468  1.00  0.00    -0.162 C  
HETATM   19  C   UNL     1      -8.422  14.196  68.210  1.00  0.00    -0.169 C  
HETATM   20  C   UNL     1     -11.253  14.597  67.313  1.00  0.00    -0.344 C  
HETATM   21  O   UNL     1      -8.220  10.649  69.687  1.00  0.00    -0.359 OA 
HETATM   22  H   UNL     1      -8.720  11.418  69.936  1.00  0.00     0.000 HD 
HETATM   23  C   UNL     1      -9.507  13.033  68.145  1.00  0.00    -0.218 C  
HETATM   24  C   UNL     1     -10.092  13.142  69.561  1.00  0.00     0.853 C  
ENDROOT
BRANCH   5  25
HETATM   25  O   UNL     1      -9.322   7.255  66.731  1.00  0.00    -0.149 OA 
BRANCH  25  26
HETATM   26  C   UNL     1     -10.487   6.910  67.371  1.00  0.00    -0.269 C  
HETATM   27  O   UNL     1     -11.210   7.717  67.938  1.00  0.00     0.149 OA 
BRANCH  26  28
HETATM   28  C   UNL     1     -10.711   5.414  67.301  1.00  0.00    -0.180 C  
HETATM   29  C   UNL     1     -10.282   4.787  65.981  1.00  0.00    -0.308 C  
ENDBRANCH  26  28
ENDBRANCH  25  26
ENDBRANCH   5  25
BRANCH   5  30
HETATM   30  C   UNL     1      -7.597   7.126  68.240  1.00  0.00    -0.115 C  
HETATM   31  O   UNL     1      -6.839   6.253  67.773  1.00  0.00    -0.062 OA 
BRANCH  30  32
HETATM   32  C   UNL     1      -7.716   7.119  69.777  1.00  0.00    -0.108 C  
BRANCH  32  33
HETATM   33  O   UNL     1      -8.843   7.932  70.203  1.00  0.00    -0.141 OA 
BRANCH  33  34
HETATM   34  C   UNL     1      -9.563   7.435  71.251  1.00  0.00    -0.161 C  
HETATM   35  O   UNL     1     -10.223   6.407  71.191  1.00  0.00    -0.187 OA 
BRANCH  34  36
HETATM   36  C   UNL     1      -9.428   8.307  72.486  1.00  0.00    -0.356 C  
HETATM   37  C   UNL     1      -8.653   7.602  73.595  1.00  0.00    -0.263 C  
ENDBRANCH  34  36
ENDBRANCH  33  34
ENDBRANCH  32  33
ENDBRANCH  30  32
ENDBRANCH   5  30
TORSDOF 8
ENDMDL
MODEL       99
REMARK 921   NORMALIZED FREE ENERGY PREDICTED BY IDOCK:   -2.60 KCAL/MOL
REMARK 922        TOTAL FREE ENERGY PREDICTED BY IDOCK:   -3.55 KCAL/MOL
REMARK 923 INTER-LIGAND FREE ENERGY PREDICTED BY IDOCK:   -5.10 KCAL/MOL
REMARK 924 INTRA-LIGAND FREE ENERGY PREDICTED BY IDOCK:    1.56 KCAL/MOL
REMARK 927      BINDING AFFINITY PREDICTED BY RF-SCORE:    0.00 PKD
ROOT
HETATM    1  C   UNL     1      -8.748  11.654  65.960  1.00  0.00    -0.055 C  
HETATM    2  C   UNL     1      -7.338  11.658  65.830  1.00  0.00     0.612 C  
HETATM    3  C   UNL     1      -7.927  11.327  67.175  1.00  0.00    -0.151 C  
HETATM    4  C   UNL     1      -6.495  10.841  68.060  1.00  0.00    -0.062 C  
HETATM    5  C   UNL     1      -9.900  10.681  67.139  1.00  0.00    -0.175 C  
HETATM    6  C   UNL     1      -9.168  16.147  66.939  1.00  0.00    -0.246 C  
HETATM    7 CL   UNL     1      -6.939  14.151  67.685  1.00  0.00    -0.192 Cl 
HETATM    8  C   UNL     1      -8.635  10.244  67.350  1.00  0.00    -0.125 C  
HETATM    9  C   UNL     1      -8.939  11.022  69.085  1.00  0.00    -0.000 C  
HETATM   10  C   UNL     1      -8.119   8.841  66.853  1.00  0.00    -0.101 C  
HETATM   11  C   UNL     1      -9.987  15.546  65.805  1.00  0.00    -0.391 C  
HETATM   12  O   UNL     1     -10.746  19.127  67.219  1.00  0.00    -0.460 OA 
HETATM   13  C   UNL     1      -9.411  14.207  65.369  1.00  0.00     0.212 C  
HETATM   14  C   UNL     1     -11.037  17.159  68.560  1.00  0.00    -0.092 C  
HETATM   15  C   UNL     1      -9.436  13.204  66.525  1.00  0.00    -0.246 C  
HETATM   16  C   UNL     1      -9.237  12.730  69.164  1.00  0.00     0.708 C  
HETATM   17  C   UNL     1     -10.325  18.025  67.545  1.00  0.00    -0.385 C  
HETATM   18  C   UNL     1      -8.901  13.848  67.941  1.00  0.00    -0.184 C  
HETATM   19  C   UNL     1      -8.277  15.901  69.408  1.00  0.00    -0.174 C  
HETATM   20  C   UNL     1      -9.034  17.487  66.981  1.00  0.00    -0.250 C  
HETATM   21  O   UNL     1     -10.628  12.857  69.519  1.00  0.00    -0.412 OA 
HETATM   22  H   UNL     1     -10.791  13.792  69.562  1.00  0.00     0.000 HD 
HETATM   23  C   UNL     1      -9.284  15.385  68.287  1.00  0.00    -0.188 C  
HETATM   24  C   UNL     1     -10.607  15.907  68.864  1.00  0.00    -0.244 C  
ENDROOT
BRANCH   5  25
HETATM   25  O   UNL     1     -10.383  10.085  65.813  1.00  0.00    -0.228 OA 
BRANCH  25  26
HETATM   26  C   UNL     1     -11.034  10.885  64.907  1.00  0.00     0.032 C  
HETATM   27  O   UNL     1     -10.767  10.911  63.714  1.00  0.00    -0.315 OA 
BRANCH  26  28
HETATM   28  C   UNL     1     -12.077  11.735  65.602  1.00  0.00     0.347 C  
HETATM   29  C   UNL     1     -12.897  12.601  64.655  1.00  0.00    -0.361 C  
ENDBRANCH  26  28
ENDBRANCH  25  26
ENDBRANCH   5  25
BRANCH   5  30
HETATM   30  C   UNL     1     -10.585   9.322  67.968  1.00  0.00    -0.208 C  
HETATM   31  O   UNL     1     -10.620   8.150  67.544  1.00  0.00    -0.253 OA 
BRANCH  30  32
HETATM   32  C   UNL     1     -11.148   9.508  69.391  1.00  0.00    -0.110 C  
BRANCH  32  33
HETATM   33  O   UNL     1     -12.182  10.531  69.398  1.00  0.00    -0.193 OA 
BRANCH  33  34
HETATM   34  C   UNL     1     -12.884  10.647  70.564  1.00  0.00    -0.279 C  
HETATM   35  O   UNL     1     -12.896  11.660  71.248  1.00  0.00    -0.391 OA 
BRANCH  34  36
HETATM   36  C   UNL     1     -13.646   9.374  70.886  1.00  0.00    -0.012 C  
HETATM   37  C   UNL     1     -13.654   9.082  72.382  1.00  0.00    -0.533 C  
ENDBRANCH  34  36
ENDBRANCH  33  34
ENDBRANCH  32  33
ENDBRANCH  30  32
ENDBRANCH   5  30
TORSDOF 8
ENDMDL
MODEL      100
REMARK 921   NORMALIZED FREE ENERGY PREDICTED BY IDOCK:   -2.50 KCAL/MOL
REMARK 922        TOTAL FREE ENERGY PREDICTED BY IDOCK:   -3.41 KCAL/MOL
REMARK 923 INTER-LIGAND FREE ENERGY PREDICTED BY IDOCK:   -4.49 KCAL/MOL
REMARK 924 INTRA-LIGAND FREE ENERGY PREDICTED BY IDOCK:    1.08 KCAL/MOL
REMARK 927      BINDING AFFINITY PREDICTED BY RF-SCORE:    0.00 PKD
ROOT
HETATM    1  C   UNL     1      -8.830  13.988  67.119  1.00  0.00    -0.239 C  
HETATM    2  C   UNL     1      -9.567  14.173  65.924  1.00  0.00    -0.208 C  
HETATM    3  C   UNL     1      -9.623  15.256  66.968  1.00  0.00    -0.233 C  
HETATM    4  C   UNL     1     -10.499  16.507  66.110  1.00  0.00    -0.301 C  
HETATM    5  C   UNL     1      -8.052  15.254  68.326  1.00  0.00    -0.137 C  
HETATM    6  C   UNL     1     -12.137  11.699  69.390  1.00  0.00    -0.328 C  
HETATM    7 CL   UNL     1     -12.357  13.990  67.338  1.00  0.00    -0.272 Cl 
HETATM    8  C   UNL     1      -8.559  15.946  67.277  1.00  0.00    -0.205 C  
HETATM    9  C   UNL     1      -9.718  16.650  68.644  1.00  0.00    -0.248 C  
HETATM   10  C   UNL     1      -7.656  16.598  66.163  1.00  0.00    -0.090 C  
HETATM   11  C   UNL     1     -10.743  11.095  69.283  1.00  0.00    -0.241 C  
HETATM   12  O   UNL     1     -13.430   9.651  71.751  1.00  0.00    -0.391 OA 
HETATM   13  C   UNL     1      -9.946  11.762  68.172  1.00  0.00    -0.196 C  
HETATM   14  C   UNL     1     -12.524  11.855  72.030  1.00  0.00     0.354 C  
HETATM   15  C   UNL     1      -9.770  13.256  68.452  1.00  0.00    -0.198 C  
HETATM   16  C   UNL     1     -10.762  15.538  69.470  1.00  0.00    -0.272 C  
HETATM   17  C   UNL     1     -13.057  10.690  71.225  1.00  0.00    -0.359 C  
HETATM   18  C   UNL     1     -11.162  13.983  68.943  1.00  0.00    -0.303 C  
HETATM   19  C   UNL     1     -13.598  13.847  69.840  1.00  0.00     1.901 C  
HETATM   20  C   UNL     1     -13.154  10.886  69.733  1.00  0.00     0.500 C  
HETATM   21  O   UNL     1     -10.230  15.437  70.806  1.00  0.00    -0.346 OA 
HETATM   22  H   UNL     1     -10.802  14.828  71.258  1.00  0.00     0.000 HD 
HETATM   23  C   UNL     1     -12.163  13.160  69.918  1.00  0.00    -0.293 C  
HETATM   24  C   UNL     1     -12.042  12.978  71.437  1.00  0.00     0.328 C  
ENDROOT
BRANCH   5  25
HETATM   25  O   UNL     1      -6.763  14.573  67.853  1.00  0.00    -0.132 OA 
BRANCH  25  26
HETATM   26  C   UNL     1      -6.211  13.570  68.609  1.00  0.00    -0.088 C  
HETATM   27  O   UNL     1      -6.322  13.500  69.825  1.00  0.00    -0.122 OA 
BRANCH  26  28
HETATM   28  C   UNL     1      -5.432  12.610  67.734  1.00  0.00    -0.116 C  
HETATM   29  C   UNL     1      -6.308  11.682  66.904  1.00  0.00    -0.142 C  
ENDBRANCH  26  28
ENDBRANCH  25  26
ENDBRANCH   5  25
BRANCH   5  30
HETATM   30  C   UNL     1      -7.110  16.608  68.857  1.00  0.00    -0.205 C  
HETATM   31  O   UNL     1      -6.530  16.707  69.956  1.00  0.00    -0.133 OA 
BRANCH  30  32
HETATM   32  C   UNL     1      -6.877  17.792  67.897  1.00  0.00    -0.192 C  
BRANCH  32  33
HETATM   33  O   UNL     1      -7.141  19.052  68.572  1.00  0.00    -0.266 OA 
BRANCH  33  34
HETATM   34  C   UNL     1      -6.826  20.175  67.862  1.00  0.00    -0.278 C  
HETATM   35  O   UNL     1      -6.013  21.007  68.238  1.00  0.00    -0.326 OA 
BRANCH  34  36
HETATM   36  C   UNL     1      -7.599  20.247  66.557  1.00  0.00    -0.288 C  
HETATM   37  C   UNL     1      -9.106  20.244  66.791  1.00  0.00    -0.424 C  
ENDBRANCH  34  36
ENDBRANCH  33  34
ENDBRANCH  32  33
ENDBRANCH  30  32
ENDBRANCH   5  30
TORSDOF 8
ENDMDL
MODEL      101
REMARK 921   NORMALIZED FREE ENERGY PREDICTED BY IDOCK:   -2.41 KCAL/MOL
REMARK 922        TOTAL FREE ENERGY PREDICTED BY IDOCK:   -3.28 KCAL/MOL
REMARK 923 INTER-LIGAND FREE ENERGY PREDICTED BY IDOCK:   -4.51 KCAL/MOL
REMARK 924 INTRA-LIGAND FREE ENERGY PREDICTED BY IDOCK:    1.23 KCAL/MOL
REMARK 927      BINDING AFFINITY PREDICTED BY RF-SCORE:    0.00 PKD
ROOT
HETATM    1  C   UNL     1      -9.191  12.648  66.283  1.00  0.00    -0.114 C  
HETATM    2  C   UNL     1      -9.472  12.905  64.919  1.00  0.00     0.387 C  
HETATM    3  C   UNL     1     -10.528  12.221  65.745  1.00  0.00    -0.287 C  
HETATM    4  C   UNL     1     -11.874  12.202  64.625  1.00  0.00    -0.400 C  
HETATM    5  C   UNL     1     -10.350  12.485  67.798  1.00  0.00    -0.222 C  
HETATM    6  C   UNL     1      -7.146   8.563  65.605  1.00  0.00    -0.079 C  
HETATM    7 CL   UNL     1      -9.501   9.878  64.111  1.00  0.00    -0.313 Cl 
HETATM    8  C   UNL     1     -11.112  12.840  66.735  1.00  0.00    -0.314 C  
HETATM    9  C   UNL     1     -11.880  11.101  67.042  1.00  0.00     0.472 C  
HETATM   10  C   UNL     1     -11.710  14.286  66.555  1.00  0.00    -0.409 C  
HETATM   11  C   UNL     1      -6.423   9.642  66.400  1.00  0.00    -0.070 C  
HETATM   12  O   UNL     1      -5.159   5.927  66.347  1.00  0.00    -0.005 OA 
HETATM   13  C   UNL     1      -7.046  11.008  66.153  1.00  0.00    -0.054 C  
HETATM   14  C   UNL     1      -7.266   6.523  67.328  1.00  0.00    -0.078 C  
HETATM   15  C   UNL     1      -8.510  11.025  66.597  1.00  0.00    -0.153 C  
HETATM   16  C   UNL     1     -10.844   9.719  66.878  1.00  0.00    -0.050 C  
HETATM   17  C   UNL     1      -6.175   6.606  66.284  1.00  0.00    -0.038 C  
HETATM   18  C   UNL     1      -9.345   9.697  66.098  1.00  0.00    -0.248 C  
HETATM   19  C   UNL     1      -9.403   7.281  65.143  1.00  0.00     0.901 C  
HETATM   20  C   UNL     1      -6.418   7.538  65.123  1.00  0.00    -0.041 C  
HETATM   21  O   UNL     1     -10.661   9.221  68.218  1.00  0.00    -0.240 OA 
HETATM   22  H   UNL     1     -10.093   8.464  68.128  1.00  0.00     0.000 HD 
HETATM   23  C   UNL     1      -8.588   8.263  66.096  1.00  0.00    -0.156 C  
HETATM   24  C   UNL     1      -8.357   7.331  67.294  1.00  0.00    -0.119 C  
ENDROOT
BRANCH   5  25
HETATM   25  O   UNL     1      -9.570  13.725  68.245  1.00  0.00    -0.211 OA 
BRANCH  25  26
HETATM   26  C   UNL     1      -8.362  13.574  68.879  1.00  0.00     0.178 C  
HETATM   27  O   UNL     1      -7.919  12.493  69.240  1.00  0.00     0.326 OA 
BRANCH  26  28
HETATM   28  C   UNL     1      -7.699  14.919  69.091  1.00  0.00    -0.164 C  
HETATM   29  C   UNL     1      -8.176  16.000  68.130  1.00  0.00    -0.152 C  
ENDBRANCH  26  28
ENDBRANCH  25  26
ENDBRANCH   5  25
BRANCH   5  30
HETATM   30  C   UNL     1     -11.601  12.897  68.924  1.00  0.00    -0.315 C  
HETATM   31  O   UNL     1     -12.339  12.090  69.523  1.00  0.00    -0.154 OA 
BRANCH  30  32
HETATM   32  C   UNL     1     -11.815  14.374  69.312  1.00  0.00    -0.325 C  
BRANCH  32  33
HETATM   33  O   UNL     1     -12.528  14.469  70.575  1.00  0.00    -0.310 OA 
BRANCH  33  34
HETATM   34  C   UNL     1     -12.378  15.649  71.246  1.00  0.00    -0.426 C  
HETATM   35  O   UNL     1     -11.429  16.403  71.084  1.00  0.00    -0.394 OA 
BRANCH  34  36
HETATM   36  C   UNL     1     -13.534  15.902  72.197  1.00  0.00    -0.348 C  
HETATM   37  C   UNL     1     -13.135  15.663  73.649  1.00  0.00    -0.582 C  
ENDBRANCH  34  36
ENDBRANCH  33  34
ENDBRANCH  32  33
ENDBRANCH  30  32
ENDBRANCH   5  30
TORSDOF 8
ENDMDL
MODEL      102
REMARK 921   NORMALIZED FREE ENERGY PREDICTED BY IDOCK:   -2.18 KCAL/MOL
REMARK 922        TOTAL FREE ENERGY PREDICTED BY IDOCK:   -2.93 KCAL/MOL
REMARK 923 INTER-LIGAND FREE ENERGY PREDICTED BY IDOCK:   -4.27 KCAL/MOL
REMARK 924 INTRA-LIGAND FREE ENERGY PREDICTED BY IDOCK:    1.34 KCAL/MOL
REMARK 927      BINDING AFFINITY PREDICTED BY RF-SCORE:    0.00 PKD
ROOT
HETATM    1  C   UNL     1     -11.073   7.110  69.661  1.00  0.00    -0.206 C  
HETATM    2  C   UNL     1     -12.156   6.845  70.534  1.00  0.00    -0.315 C  
HETATM    3  C   UNL     1     -11.122   7.848  70.971  1.00  0.00    -0.268 C  
HETATM    4  C   UNL     1     -11.860   8.481  72.427  1.00  0.00    -0.437 C  
HETATM    5  C   UNL     1      -9.994   8.675  69.436  1.00  0.00    -0.197 C  
HETATM    6  C   UNL     1      -8.353   3.711  71.202  1.00  0.00    -0.086 C  
HETATM    7 CL   UNL     1     -10.371   5.483  72.718  1.00  0.00    -0.216 Cl 
HETATM    8  C   UNL     1     -10.967   8.974  70.330  1.00  0.00    -0.274 C  
HETATM    9  C   UNL     1      -9.458   9.152  71.512  1.00  0.00    -0.239 C  
HETATM   10  C   UNL     1     -12.200   9.892  69.980  1.00  0.00     0.048 C  
HETATM   11  C   UNL     1      -8.647   3.821  69.712  1.00  0.00    -0.106 C  
HETATM   12  O   UNL     1      -5.822   1.470  71.087  1.00  0.00    -0.012 OA 
HETATM   13  C   UNL     1      -9.861   4.702  69.462  1.00  0.00    -0.286 C  
HETATM   14  C   UNL     1      -5.686   3.855  71.302  1.00  0.00    -0.013 C  
HETATM   15  C   UNL     1      -9.618   6.121  69.979  1.00  0.00    -0.185 C  
HETATM   16  C   UNL     1      -8.489   7.743  71.803  1.00  0.00    -0.112 C  
HETATM   17  C   UNL     1      -6.401   2.523  71.313  1.00  0.00    -0.019 C  
HETATM   18  C   UNL     1      -8.945   6.147  71.481  1.00  0.00    -0.143 C  
HETATM   19  C   UNL     1      -7.721   4.956  73.439  1.00  0.00    -0.096 C  
HETATM   20  C   UNL     1      -7.867   2.544  71.667  1.00  0.00    -0.048 C  
HETATM   21  O   UNL     1      -7.239   7.997  71.132  1.00  0.00    -0.052 OA 
HETATM   22  H   UNL     1      -6.708   7.225  71.291  1.00  0.00     0.000 HD 
HETATM   23  C   UNL     1      -7.836   5.024  71.852  1.00  0.00    -0.109 C  
HETATM   24  C   UNL     1      -6.347   5.028  71.481  1.00  0.00    -0.030 C  
ENDROOT
BRANCH   5  25
HETATM   25  O   UNL     1     -10.634   8.642  68.045  1.00  0.00    -0.212 OA 
BRANCH  25  26
HETATM   26  C   UNL     1      -9.891   8.234  66.966  1.00  0.00    -0.232 C  
HETATM   27  O   UNL     1     -10.362   7.641  66.006  1.00  0.00     0.368 OA 
BRANCH  26  28
HETATM   28  C   UNL     1      -8.431   8.586  67.161  1.00  0.00    -0.118 C  
HETATM   29  C   UNL     1      -7.525   8.112  66.032  1.00  0.00    -0.080 C  
ENDBRANCH  26  28
ENDBRANCH  25  26
ENDBRANCH   5  25
BRANCH   5  30
HETATM   30  C   UNL     1      -9.607  10.346  69.189  1.00  0.00    -0.213 C  
HETATM   31  O   UNL     1     -10.429  11.273  69.051  1.00  0.00    -0.212 OA 
BRANCH  30  32
HETATM   32  C   UNL     1      -8.131  10.793  69.207  1.00  0.00    -0.096 C  
BRANCH  32  33
HETATM   33  O   UNL     1      -8.037  12.239  69.092  1.00  0.00     0.193 OA 
BRANCH  33  34
HETATM   34  C   UNL     1      -7.091  12.698  68.221  1.00  0.00    -0.105 C  
HETATM   35  O   UNL     1      -6.862  13.885  68.035  1.00  0.00    -0.109 OA 
BRANCH  34  36
HETATM   36  C   UNL     1      -6.362  11.556  67.535  1.00  0.00    -0.076 C  
HETATM   37  C   UNL     1      -5.134  12.045  66.775  1.00  0.00     0.026 C  
ENDBRANCH  34  36
ENDBRANCH  33  34
ENDBRANCH  32  33
ENDBRANCH  30  32
ENDBRANCH   5  30
TORSDOF 8
ENDMDL
MODEL      103
REMARK 921   NORMALIZED FREE ENERGY PREDICTED BY IDOCK:   -1.53 KCAL/MOL
REMARK 922        TOTAL FREE ENERGY PREDICTED BY IDOCK:   -1.98 KCAL/MOL
REMARK 923 INTER-LIGAND FREE ENERGY PREDICTED BY IDOCK:   -4.46 KCAL/MOL
REMARK 924 INTRA-LIGAND FREE ENERGY PREDICTED BY IDOCK:    2.48 KCAL/MOL
REMARK 927      BINDING AFFINITY PREDICTED BY RF-SCORE:    0.00 PKD
ROOT
HETATM    1  C   UNL     1      -7.828   7.486  69.364  1.00  0.00    -0.121 C  
HETATM    2  C   UNL     1      -6.425   7.491  69.560  1.00  0.00    -0.036 C  
HETATM    3  C   UNL     1      -6.999   8.402  68.508  1.00  0.00    -0.069 C  
HETATM    4  C   UNL     1      -5.583   9.327  68.054  1.00  0.00    -0.038 C  
HETATM    5  C   UNL     1      -9.015   8.848  68.732  1.00  0.00    -0.134 C  
HETATM    6  C   UNL     1      -7.889   4.014  66.320  1.00  0.00    -0.090 C  
HETATM    7 CL   UNL     1      -5.793   6.231  66.762  1.00  0.00    -0.020 Cl 
HETATM    8  C   UNL     1      -7.779   9.396  68.834  1.00  0.00    -0.076 C  
HETATM    9  C   UNL     1      -7.977   9.541  66.924  1.00  0.00    -0.109 C  
HETATM   10  C   UNL     1      -7.382  10.407  69.975  1.00  0.00    -0.121 C  
HETATM   11  C   UNL     1      -8.782   3.948  67.551  1.00  0.00    -0.120 C  
HETATM   12  O   UNL     1      -9.235   1.467  64.545  1.00  0.00    -0.118 OA 
HETATM   13  C   UNL     1      -8.318   4.936  68.612  1.00  0.00    -0.083 C  
HETATM   14  C   UNL     1      -9.632   3.821  64.302  1.00  0.00    -0.166 C  
HETATM   15  C   UNL     1      -8.383   6.370  68.083  1.00  0.00    -0.116 C  
HETATM   16  C   UNL     1      -8.146   8.073  66.015  1.00  0.00    -0.110 C  
HETATM   17  C   UNL     1      -8.888   2.609  64.816  1.00  0.00    -0.118 C  
HETATM   18  C   UNL     1      -7.763   6.521  66.566  1.00  0.00    -0.099 C  
HETATM   19  C   UNL     1      -6.950   5.470  64.333  1.00  0.00    -0.048 C  
HETATM   20  C   UNL     1      -7.656   2.871  65.646  1.00  0.00    -0.073 C  
HETATM   21  O   UNL     1      -9.513   8.063  65.560  1.00  0.00    -0.410 OA 
HETATM   22  H   UNL     1      -9.606   7.260  65.062  1.00  0.00     0.000 HD 
HETATM   23  C   UNL     1      -8.023   5.327  65.501  1.00  0.00    -0.107 C  
HETATM   24  C   UNL     1      -9.287   5.084  64.665  1.00  0.00     0.087 C  
ENDROOT
BRANCH   5  25
HETATM   25  O   UNL     1      -9.577   8.702  70.150  1.00  0.00    -0.166 OA 
BRANCH  25  26
HETATM   26  C   UNL     1     -10.843   8.204  70.329  1.00  0.00    -0.244 C  
HETATM   27  O   UNL     1     -11.780   8.459  69.587  1.00  0.00     0.362 OA 
BRANCH  26  28
HETATM   28  C   UNL     1     -10.906   7.345  71.575  1.00  0.00    -0.247 C  
HETATM   29  C   UNL     1     -10.942   5.849  71.292  1.00  0.00    -0.325 C  
ENDBRANCH  26  28
ENDBRANCH  25  26
ENDBRANCH   5  25
BRANCH   5  30
HETATM   30  C   UNL     1      -9.773  10.402  68.620  1.00  0.00    -0.175 C  
HETATM   31  O   UNL     1     -11.001  10.613  68.584  1.00  0.00    -0.212 OA 
BRANCH  30  32
HETATM   32  C   UNL     1      -8.902  11.674  68.635  1.00  0.00    -0.082 C  
BRANCH  32  33
HETATM   33  O   UNL     1      -9.302  12.576  67.568  1.00  0.00    -0.177 OA 
BRANCH  33  34
HETATM   34  C   UNL     1      -9.119  13.905  67.823  1.00  0.00    -0.191 C  
HETATM   35  O   UNL     1      -8.434  14.328  68.743  1.00  0.00    -0.155 OA 
BRANCH  34  36
HETATM   36  C   UNL     1      -9.858  14.773  66.821  1.00  0.00    -0.263 C  
HETATM   37  C   UNL     1     -10.304  16.095  67.438  1.00  0.00    -0.294 C  
ENDBRANCH  34  36
ENDBRANCH  33  34
ENDBRANCH  32  33
ENDBRANCH  30  32
ENDBRANCH   5  30
TORSDOF 8
ENDMDL
MODEL      104
REMARK 921   NORMALIZED FREE ENERGY PREDICTED BY IDOCK:   -1.00 KCAL/MOL
REMARK 922        TOTAL FREE ENERGY PREDICTED BY IDOCK:   -1.21 KCAL/MOL
REMARK 923 INTER-LIGAND FREE ENERGY PREDICTED BY IDOCK:   -2.05 KCAL/MOL
REMARK 924 INTRA-LIGAND FREE ENERGY PREDICTED BY IDOCK:    0.84 KCAL/MOL
REMARK 927      BINDING AFFINITY PREDICTED BY RF-SCORE:    0.00 PKD
ROOT
HETATM    1  C   UNL     1      -8.774  11.605  66.731  1.00  0.00    -0.189 C  
HETATM    2  C   UNL     1      -7.781  11.249  65.787  1.00  0.00     0.221 C  
HETATM    3  C   UNL     1      -7.490  11.016  67.245  1.00  0.00    -0.107 C  
HETATM    4  C   UNL     1      -5.981  10.133  67.152  1.00  0.00    -0.051 C  
HETATM    5  C   UNL     1      -9.163  10.908  68.471  1.00  0.00    -0.181 C  
HETATM    6  C   UNL     1      -7.441  16.000  67.220  1.00  0.00    -0.236 C  
HETATM    7 CL   UNL     1      -5.766  13.459  66.722  1.00  0.00     1.314 Cl 
HETATM    8  C   UNL     1      -8.177  10.148  67.936  1.00  0.00    -0.109 C  
HETATM    9  C   UNL     1      -7.173  10.891  69.401  1.00  0.00    -0.126 C  
HETATM   10  C   UNL     1      -8.417   8.685  67.402  1.00  0.00    -0.123 C  
HETATM   11  C   UNL     1      -8.892  15.689  66.880  1.00  0.00    -0.279 C  
HETATM   12  O   UNL     1      -7.767  19.269  68.026  1.00  0.00    -0.270 OA 
HETATM   13  C   UNL     1      -9.034  14.269  66.352  1.00  0.00    -0.093 C  
HETATM   14  C   UNL     1      -7.639  17.381  69.500  1.00  0.00     0.354 C  
HETATM   15  C   UNL     1      -8.589  13.251  67.404  1.00  0.00    -0.204 C  
HETATM   16  C   UNL     1      -6.949  12.612  69.436  1.00  0.00     0.108 C  
HETATM   17  C   UNL     1      -7.510  18.081  68.166  1.00  0.00    -0.249 C  
HETATM   18  C   UNL     1      -7.171  13.663  68.132  1.00  0.00    -0.117 C  
HETATM   19  C   UNL     1      -5.325  15.408  68.678  1.00  0.00    -0.094 C  
HETATM   20  C   UNL     1      -6.998  17.255  67.013  1.00  0.00    -0.223 C  
HETATM   21  O   UNL     1      -7.760  13.078  70.533  1.00  0.00     1.952 OA 
HETATM   22  H   UNL     1      -7.637  14.020  70.552  1.00  0.00     0.000 HD 
HETATM   23  C   UNL     1      -6.891  15.228  68.450  1.00  0.00    -0.112 C  
HETATM   24  C   UNL     1      -7.423  16.046  69.635  1.00  0.00    -0.005 C  
ENDROOT
BRANCH   5  25
HETATM   25  O   UNL     1     -10.474  10.524  67.777  1.00  0.00    -0.194 OA 
BRANCH  25  26
HETATM   26  C   UNL     1     -11.473  11.457  67.653  1.00  0.00    -0.273 C  
HETATM   27  O   UNL     1     -11.957  11.789  66.581  1.00  0.00    -0.561 OA 
BRANCH  26  28
HETATM   28  C   UNL     1     -11.846  12.022  69.008  1.00  0.00    -0.372 C  
HETATM   29  C   UNL     1     -11.704  13.535  69.105  1.00  0.00    -0.374 C  
ENDBRANCH  26  28
ENDBRANCH  25  26
ENDBRANCH   5  25
BRANCH   5  30
HETATM   30  C   UNL     1      -9.500   9.734  69.700  1.00  0.00    -0.219 C  
HETATM   31  O   UNL     1      -8.924   9.646  70.802  1.00  0.00    -0.187 OA 
BRANCH  30  32
HETATM   32  C   UNL     1     -10.653   8.732  69.495  1.00  0.00    -0.219 C  
BRANCH  32  33
HETATM   33  O   UNL     1     -10.550   7.638  70.447  1.00  0.00    -0.221 OA 
BRANCH  33  34
HETATM   34  C   UNL     1      -9.889   6.530  69.998  1.00  0.00    -0.165 C  
HETATM   35  O   UNL     1     -10.263   5.858  69.047  1.00  0.00    -0.168 OA 
BRANCH  34  36
HETATM   36  C   UNL     1      -8.639   6.256  70.816  1.00  0.00    -0.135 C  
HETATM   37  C   UNL     1      -8.804   5.029  71.707  1.00  0.00    -0.144 C  
ENDBRANCH  34  36
ENDBRANCH  33  34
ENDBRANCH  32  33
ENDBRANCH  30  32
ENDBRANCH   5  30
TORSDOF 8
ENDMDL
MODEL      105
REMARK 921   NORMALIZED FREE ENERGY PREDICTED BY IDOCK:   -0.94 KCAL/MOL
REMARK 922        TOTAL FREE ENERGY PREDICTED BY IDOCK:   -1.11 KCAL/MOL
REMARK 923 INTER-LIGAND FREE ENERGY PREDICTED BY IDOCK:   -8.13 KCAL/MOL
REMARK 924 INTRA-LIGAND FREE ENERGY PREDICTED BY IDOCK:    7.02 KCAL/MOL
REMARK 927      BINDING AFFINITY PREDICTED BY RF-SCORE:    0.00 PKD
ROOT
HETATM    1  C   UNL     1     -10.066   8.449  67.961  1.00  0.00    -0.245 C  
HETATM    2  C   UNL     1      -9.272   8.195  69.106  1.00  0.00    -0.151 C  
HETATM    3  C   UNL     1      -8.624   8.872  67.929  1.00  0.00    -0.126 C  
HETATM    4  C   UNL     1      -7.059   9.287  68.596  1.00  0.00    -0.070 C  
HETATM    5  C   UNL     1      -9.936   9.805  66.616  1.00  0.00    -0.229 C  
HETATM    6  C   UNL     1      -9.344   4.359  65.941  1.00  0.00    -0.161 C  
HETATM    7 CL   UNL     1      -7.459   6.081  67.670  1.00  0.00    -0.077 Cl 
HETATM    8  C   UNL     1      -8.994  10.067  67.554  1.00  0.00    -0.141 C  
HETATM    9  C   UNL     1      -7.808   9.702  66.082  1.00  0.00    -0.101 C  
HETATM   10  C   UNL     1      -9.123  11.245  68.592  1.00  0.00    -0.153 C  
HETATM   11  C   UNL     1     -10.770   4.849  66.156  1.00  0.00    -0.243 C  
HETATM   12  O   UNL     1      -9.973   1.782  63.842  1.00  0.00    -0.133 OA 
HETATM   13  C   UNL     1     -10.810   5.968  67.186  1.00  0.00    -0.414 C  
HETATM   14  C   UNL     1      -9.225   3.995  63.296  1.00  0.00    -0.130 C  
HETATM   15  C   UNL     1      -9.986   7.169  66.716  1.00  0.00    -0.278 C  
HETATM   16  C   UNL     1      -7.847   8.112  65.387  1.00  0.00    -0.115 C  
HETATM   17  C   UNL     1      -9.512   2.845  64.235  1.00  0.00    -0.143 C  
HETATM   18  C   UNL     1      -8.520   6.738  66.105  1.00  0.00    -0.135 C  
HETATM   19  C   UNL     1      -6.887   4.939  65.183  1.00  0.00    -0.053 C  
HETATM   20  C   UNL     1      -9.157   3.050  65.686  1.00  0.00    -0.149 C  
HETATM   21  O   UNL     1      -8.448   8.281  64.088  1.00  0.00    -0.363 OA 
HETATM   22  H   UNL     1      -8.470   7.410  63.708  1.00  0.00     0.000 HD 
HETATM   23  C   UNL     1      -8.416   5.379  65.226  1.00  0.00    -0.149 C  
HETATM   24  C   UNL     1      -8.783   5.198  63.746  1.00  0.00    -0.038 C  
ENDROOT
BRANCH   5  25
HETATM   25  O   UNL     1     -11.296  10.198  67.201  1.00  0.00    -0.172 OA 
BRANCH  25  26
HETATM   26  C   UNL     1     -11.369  11.209  68.127  1.00  0.00    -0.309 C  
HETATM   27  O   UNL     1     -11.262  12.393  67.844  1.00  0.00    -0.232 OA 
BRANCH  26  28
HETATM   28  C   UNL     1     -11.559  10.643  69.519  1.00  0.00    -0.360 C  
HETATM   29  C   UNL     1     -12.360  11.545  70.448  1.00  0.00    -0.390 C  
ENDBRANCH  26  28
ENDBRANCH  25  26
ENDBRANCH   5  25
BRANCH   5  30
HETATM   30  C   UNL     1      -9.800  11.391  65.932  1.00  0.00    -0.226 C  
HETATM   31  O   UNL     1      -9.148  12.339  66.411  1.00  0.00    -0.211 OA 
BRANCH  30  32
HETATM   32  C   UNL     1     -10.465  11.690  64.574  1.00  0.00    -0.308 C  
BRANCH  32  33
HETATM   33  O   UNL     1     -11.740  12.360  64.770  1.00  0.00    -0.341 OA 
BRANCH  33  34
HETATM   34  C   UNL     1     -11.892  13.539  64.098  1.00  0.00    -0.437 C  
HETATM   35  O   UNL     1     -12.657  13.687  63.155  1.00  0.00    -0.792 OA 
BRANCH  34  36
HETATM   36  C   UNL     1     -11.009  14.630  64.677  1.00  0.00    -0.340 C  
HETATM   37  C   UNL     1     -11.575  16.020  64.407  1.00  0.00    -0.212 C  
ENDBRANCH  34  36
ENDBRANCH  33  34
ENDBRANCH  32  33
ENDBRANCH  30  32
ENDBRANCH   5  30
TORSDOF 8
ENDMDL
MODEL      106
REMARK 921   NORMALIZED FREE ENERGY PREDICTED BY IDOCK:   -0.79 KCAL/MOL
REMARK 922        TOTAL FREE ENERGY PREDICTED BY IDOCK:   -0.89 KCAL/MOL
REMARK 923 INTER-LIGAND FREE ENERGY PREDICTED BY IDOCK:   -7.14 KCAL/MOL
REMARK 924 INTRA-LIGAND FREE ENERGY PREDICTED BY IDOCK:    6.24 KCAL/MOL
REMARK 927      BINDING AFFINITY PREDICTED BY RF-SCORE:    0.00 PKD
ROOT
HETATM    1  C   UNL     1      -7.698   8.236  64.923  1.00  0.00    -0.115 C  
HETATM    2  C   UNL     1      -6.403   8.804  65.001  1.00  0.00    -0.064 C  
HETATM    3  C   UNL     1      -7.133   8.521  66.286  1.00  0.00    -0.078 C  
HETATM    4  C   UNL     1      -5.883   8.856  67.466  1.00  0.00    -0.043 C  
HETATM    5  C   UNL     1      -8.657   7.117  66.144  1.00  0.00    -0.146 C  
HETATM    6  C   UNL     1      -9.973  12.240  64.570  1.00  0.00    -0.217 C  
HETATM    7 CL   UNL     1      -7.415  11.540  66.144  1.00  0.00     0.111 Cl 
HETATM    8  C   UNL     1      -7.411   7.297  66.645  1.00  0.00    -0.080 C  
HETATM    9  C   UNL     1      -8.390   8.193  68.040  1.00  0.00    -0.129 C  
HETATM   10  C   UNL     1      -6.309   6.171  66.629  1.00  0.00    -0.045 C  
HETATM   11  C   UNL     1     -10.212  11.147  63.538  1.00  0.00    -0.446 C  
HETATM   12  O   UNL     1     -12.558  14.282  63.800  1.00  0.00    -0.821 OA 
HETATM   13  C   UNL     1      -9.094  10.115  63.571  1.00  0.00    -0.302 C  
HETATM   14  C   UNL     1     -12.415  12.668  65.569  1.00  0.00    -0.345 C  
HETATM   15  C   UNL     1      -9.024   9.434  64.939  1.00  0.00    -0.256 C  
HETATM   16  C   UNL     1      -9.308   9.600  67.608  1.00  0.00    -0.126 C  
HETATM   17  C   UNL     1     -11.852  13.541  64.470  1.00  0.00    -0.405 C  
HETATM   18  C   UNL     1      -9.125  10.500  66.189  1.00  0.00    -0.184 C  
HETATM   19  C   UNL     1      -9.678  12.864  67.115  1.00  0.00    -0.221 C  
HETATM   20  C   UNL     1     -10.358  13.494  64.266  1.00  0.00    -0.169 C  
HETATM   21  O   UNL     1     -10.688   9.200  67.711  1.00  0.00    -0.374 OA 
HETATM   22  H   UNL     1     -11.191   9.971  67.475  1.00  0.00     0.000 HD 
HETATM   23  C   UNL     1     -10.120  11.772  66.044  1.00  0.00    -0.263 C  
HETATM   24  C   UNL     1     -11.640  11.793  66.261  1.00  0.00    -0.223 C  
ENDROOT
BRANCH   5  25
HETATM   25  O   UNL     1      -8.549   6.132  64.975  1.00  0.00    -0.113 OA 
BRANCH  25  26
HETATM   26  C   UNL     1      -8.241   4.818  65.222  1.00  0.00    -0.120 C  
HETATM   27  O   UNL     1      -7.177   4.451  65.700  1.00  0.00    -0.069 OA 
BRANCH  26  28
HETATM   28  C   UNL     1      -9.375   3.914  64.785  1.00  0.00    -0.157 C  
HETATM   29  C   UNL     1      -8.958   2.468  64.555  1.00  0.00    -0.115 C  
ENDBRANCH  26  28
ENDBRANCH  25  26
ENDBRANCH   5  25
BRANCH   5  30
HETATM   30  C   UNL     1      -8.968   5.782  67.204  1.00  0.00    -0.113 C  
HETATM   31  O   UNL     1      -8.106   5.109  67.803  1.00  0.00    -0.098 OA 
BRANCH  30  32
HETATM   32  C   UNL     1     -10.425   5.396  67.529  1.00  0.00    -0.170 C  
BRANCH  32  33
HETATM   33  O   UNL     1     -10.536   4.947  68.907  1.00  0.00    -0.085 OA 
BRANCH  33  34
HETATM   34  C   UNL     1     -10.831   5.919  69.820  1.00  0.00    -0.377 C  
HETATM   35  O   UNL     1     -11.483   6.919  69.556  1.00  0.00    -0.205 OA 
BRANCH  34  36
HETATM   36  C   UNL     1     -10.262   5.591  71.189  1.00  0.00    -0.285 C  
HETATM   37  C   UNL     1     -10.955   6.382  72.294  1.00  0.00    -0.289 C  
ENDBRANCH  34  36
ENDBRANCH  33  34
ENDBRANCH  32  33
ENDBRANCH  30  32
ENDBRANCH   5  30
TORSDOF 8
ENDMDL
MODEL      107
REMARK 921   NORMALIZED FREE ENERGY PREDICTED BY IDOCK:   -0.74 KCAL/MOL
REMARK 922        TOTAL FREE ENERGY PREDICTED BY IDOCK:   -0.82 KCAL/MOL
REMARK 923 INTER-LIGAND FREE ENERGY PREDICTED BY IDOCK:   -2.68 KCAL/MOL
REMARK 924 INTRA-LIGAND FREE ENERGY PREDICTED BY IDOCK:    1.86 KCAL/MOL
REMARK 927      BINDING AFFINITY PREDICTED BY RF-SCORE:    0.00 PKD
ROOT
HETATM    1  C   UNL     1      -8.895  13.298  66.718  1.00  0.00    -0.140 C  
HETATM    2  C   UNL     1      -7.528  13.107  66.402  1.00  0.00     1.620 C  
HETATM    3  C   UNL     1      -7.940  13.030  67.848  1.00  0.00    -0.157 C  
HETATM    4  C   UNL     1      -6.452  12.486  68.594  1.00  0.00    -0.078 C  
HETATM    5  C   UNL     1      -9.954  12.640  68.171  1.00  0.00    -0.225 C  
HETATM    6  C   UNL     1      -8.682  17.898  67.077  1.00  0.00    -0.254 C  
HETATM    7 CL   UNL     1      -6.592  15.749  67.802  1.00  0.00    -0.162 Cl 
HETATM    8  C   UNL     1      -8.725  12.077  68.272  1.00  0.00    -0.178 C  
HETATM    9  C   UNL     1      -8.681  13.106  69.899  1.00  0.00     2.754 C  
HETATM   10  C   UNL     1      -8.442  10.568  67.921  1.00  0.00    -0.119 C  
HETATM   11  C   UNL     1      -9.722  17.263  66.164  1.00  0.00    -0.243 C  
HETATM   12  O   UNL     1      -9.873  21.064  67.128  1.00  0.00    -0.342 OA 
HETATM   13  C   UNL     1      -9.363  15.817  65.855  1.00  0.00    -0.356 C  
HETATM   14  C   UNL     1     -10.168  19.339  68.769  1.00  0.00    -0.389 C  
HETATM   15  C   UNL     1      -9.321  14.983  67.138  1.00  0.00    -0.225 C  
HETATM   16  C   UNL     1      -8.780  14.833  69.767  1.00  0.00     0.342 C  
HETATM   17  C   UNL     1      -9.528  19.969  67.553  1.00  0.00    -0.374 C  
HETATM   18  C   UNL     1      -8.514  15.732  68.361  1.00  0.00    -0.170 C  
HETATM   19  C   UNL     1      -7.462  17.862  69.415  1.00  0.00     0.141 C  
HETATM   20  C   UNL     1      -8.402  19.203  66.906  1.00  0.00    -0.300 C  
HETATM   21  O   UNL     1     -10.080  15.179  70.283  1.00  0.00    -0.501 OA 
HETATM   22  H   UNL     1     -10.134  16.125  70.211  1.00  0.00     0.000 HD 
HETATM   23  C   UNL     1      -8.675  17.337  68.526  1.00  0.00    -0.273 C  
HETATM   24  C   UNL     1      -9.833  18.092  69.193  1.00  0.00    -0.159 C  
ENDROOT
BRANCH   5  25
HETATM   25  O   UNL     1     -10.691  11.943  67.022  1.00  0.00    -0.223 OA 
BRANCH  25  26
HETATM   26  C   UNL     1     -11.717  12.592  66.383  1.00  0.00    -0.405 C  
HETATM   27  O   UNL     1     -12.710  13.016  66.957  1.00  0.00     0.038 OA 
BRANCH  26  28
HETATM   28  C   UNL     1     -11.456  12.665  64.893  1.00  0.00    -0.361 C  
HETATM   29  C   UNL     1     -12.665  13.095  64.074  1.00  0.00    -0.131 C  
ENDBRANCH  26  28
ENDBRANCH  25  26
ENDBRANCH   5  25
BRANCH   5  30
HETATM   30  C   UNL     1     -10.647  11.497  69.274  1.00  0.00    -0.078 C  
HETATM   31  O   UNL     1     -11.838  11.467  69.640  1.00  0.00    -0.299 OA 
BRANCH  30  32
HETATM   32  C   UNL     1      -9.775  10.351  69.825  1.00  0.00    -0.059 C  
BRANCH  32  33
HETATM   33  O   UNL     1     -10.351   9.819  71.050  1.00  0.00    -0.273 OA 
BRANCH  33  34
HETATM   34  C   UNL     1      -9.592   8.888  71.698  1.00  0.00    -0.293 C  
HETATM   35  O   UNL     1      -8.390   8.751  71.519  1.00  0.00    -0.163 OA 
BRANCH  34  36
HETATM   36  C   UNL     1     -10.423   8.066  72.667  1.00  0.00    -0.408 C  
HETATM   37  C   UNL     1     -10.655   6.649  72.153  1.00  0.00    -0.238 C  
ENDBRANCH  34  36
ENDBRANCH  33  34
ENDBRANCH  32  33
ENDBRANCH  30  32
ENDBRANCH   5  30
TORSDOF 8
ENDMDL
MODEL      108
REMARK 921   NORMALIZED FREE ENERGY PREDICTED BY IDOCK:   -0.31 KCAL/MOL
REMARK 922        TOTAL FREE ENERGY PREDICTED BY IDOCK:   -0.19 KCAL/MOL
REMARK 923 INTER-LIGAND FREE ENERGY PREDICTED BY IDOCK:   -2.36 KCAL/MOL
REMARK 924 INTRA-LIGAND FREE ENERGY PREDICTED BY IDOCK:    2.16 KCAL/MOL
REMARK 927      BINDING AFFINITY PREDICTED BY RF-SCORE:    0.00 PKD
ROOT
HETATM    1  C   UNL     1      -6.934   9.745  67.404  1.00  0.00    -0.084 C  
HETATM    2  C   UNL     1      -6.130  10.184  68.484  1.00  0.00    -0.044 C  
HETATM    3  C   UNL     1      -7.325   9.324  68.793  1.00  0.00    -0.075 C  
HETATM    4  C   UNL     1      -7.094   9.025  70.503  1.00  0.00    -0.073 C  
HETATM    5  C   UNL     1      -8.028   8.187  67.203  1.00  0.00    -0.105 C  
HETATM    6  C   UNL     1      -9.691  13.449  67.302  1.00  0.00    -0.232 C  
HETATM    7 CL   UNL     1      -8.350  12.036  69.692  1.00  0.00     1.190 Cl 
HETATM    8  C   UNL     1      -7.382   8.083  68.389  1.00  0.00    -0.098 C  
HETATM    9  C   UNL     1      -9.177   8.203  69.075  1.00  0.00    -0.148 C  
HETATM   10  C   UNL     1      -6.182   7.091  68.627  1.00  0.00    -0.027 C  
HETATM   11  C   UNL     1      -8.990  12.999  66.027  1.00  0.00     0.293 C  
HETATM   12  O   UNL     1     -11.886  15.646  65.961  1.00  0.00     0.297 OA 
HETATM   13  C   UNL     1      -7.833  12.064  66.345  1.00  0.00     0.240 C  
HETATM   14  C   UNL     1     -12.276  13.374  66.627  1.00  0.00    -0.391 C  
HETATM   15  C   UNL     1      -8.331  10.804  67.054  1.00  0.00    -0.129 C  
HETATM   16  C   UNL     1     -10.069   9.657  68.756  1.00  0.00    -0.179 C  
HETATM   17  C   UNL     1     -11.486  14.662  66.569  1.00  0.00    -0.351 C  
HETATM   18  C   UNL     1      -9.408  11.130  68.255  1.00  0.00    -0.176 C  
HETATM   19  C   UNL     1     -11.042  12.755  69.457  1.00  0.00    -0.046 C  
HETATM   20  C   UNL     1     -10.191  14.698  67.341  1.00  0.00    -0.240 C  
HETATM   21  O   UNL     1     -11.089   9.277  67.812  1.00  0.00    -0.504 OA 
HETATM   22  H   UNL     1     -11.577  10.073  67.637  1.00  0.00     0.000 HD 
HETATM   23  C   UNL     1     -10.480  12.326  68.030  1.00  0.00    -0.231 C  
HETATM   24  C   UNL     1     -11.794  12.262  67.240  1.00  0.00    -0.330 C  
ENDROOT
BRANCH   5  25
HETATM   25  O   UNL     1      -7.013   7.893  66.093  1.00  0.00    -0.060 OA 
BRANCH  25  26
HETATM   26  C   UNL     1      -6.974   8.696  64.981  1.00  0.00    -0.076 C  
HETATM   27  O   UNL     1      -5.941   9.157  64.517  1.00  0.00    -0.068 OA 
BRANCH  26  28
HETATM   28  C   UNL     1      -8.372   8.947  64.455  1.00  0.00    -0.178 C  
HETATM   29  C   UNL     1      -8.628   8.355  63.076  1.00  0.00     0.049 C  
ENDBRANCH  26  28
ENDBRANCH  25  26
ENDBRANCH   5  25
BRANCH   5  30
HETATM   30  C   UNL     1      -8.465   6.511  67.212  1.00  0.00    -0.112 C  
HETATM   31  O   UNL     1      -7.903   5.607  66.563  1.00  0.00    -0.099 OA 
BRANCH  30  32
HETATM   32  C   UNL     1      -9.595   6.027  68.142  1.00  0.00    -0.118 C  
BRANCH  32  33
HETATM   33  O   UNL     1      -9.312   4.687  68.632  1.00  0.00    -0.121 OA 
BRANCH  33  34
HETATM   34  C   UNL     1      -9.929   4.347  69.801  1.00  0.00    -0.154 C  
HETATM   35  O   UNL     1     -10.916   4.923  70.237  1.00  0.00     0.219 OA 
BRANCH  34  36
HETATM   36  C   UNL     1      -9.246   3.169  70.471  1.00  0.00    -0.210 C  
HETATM   37  C   UNL     1      -9.784   1.836  69.958  1.00  0.00     0.012 C  
ENDBRANCH  34  36
ENDBRANCH  33  34
ENDBRANCH  32  33
ENDBRANCH  30  32
ENDBRANCH   5  30
TORSDOF 8
ENDMDL
MODEL      109
REMARK 921   NORMALIZED FREE ENERGY PREDICTED BY IDOCK:    0.34 KCAL/MOL
REMARK 922        TOTAL FREE ENERGY PREDICTED BY IDOCK:    0.76 KCAL/MOL
REMARK 923 INTER-LIGAND FREE ENERGY PREDICTED BY IDOCK:   -6.91 KCAL/MOL
REMARK 924 INTRA-LIGAND FREE ENERGY PREDICTED BY IDOCK:    7.67 KCAL/MOL
REMARK 927      BINDING AFFINITY PREDICTED BY RF-SCORE:    0.00 PKD
ROOT
HETATM    1  C   UNL     1      -7.299   9.661  69.183  1.00  0.00    -0.077 C  
HETATM    2  C   UNL     1      -6.433   8.835  68.426  1.00  0.00    -0.055 C  
HETATM    3  C   UNL     1      -7.777   9.176  67.843  1.00  0.00    -0.093 C  
HETATM    4  C   UNL     1      -7.624   8.514  66.229  1.00  0.00    -0.090 C  
HETATM    5  C   UNL     1      -8.679  10.871  68.638  1.00  0.00    -0.154 C  
HETATM    6  C   UNL     1      -9.265   6.243  71.588  1.00  0.00    -0.147 C  
HETATM    7 CL   UNL     1      -8.251   6.296  68.676  1.00  0.00    -0.112 Cl 
HETATM    8  C   UNL     1      -8.076  10.405  67.517  1.00  0.00    -0.107 C  
HETATM    9  C   UNL     1      -9.817   9.639  67.219  1.00  0.00    -0.225 C  
HETATM   10  C   UNL     1      -7.098  11.279  66.643  1.00  0.00    -0.127 C  
HETATM   11  C   UNL     1      -8.657   7.428  72.326  1.00  0.00    -0.135 C  
HETATM   12  O   UNL     1     -10.969   4.833  74.147  1.00  0.00    -0.302 OA 
HETATM   13  C   UNL     1      -7.710   8.204  71.422  1.00  0.00    -0.098 C  
HETATM   14  C   UNL     1     -11.808   6.262  72.412  1.00  0.00    -0.272 C  
HETATM   15  C   UNL     1      -8.455   8.763  70.209  1.00  0.00    -0.154 C  
HETATM   16  C   UNL     1     -10.400   8.482  68.373  1.00  0.00    -0.202 C  
HETATM   17  C   UNL     1     -10.777   5.367  73.063  1.00  0.00    -0.257 C  
HETATM   18  C   UNL     1      -9.456   7.660  69.509  1.00  0.00    -0.152 C  
HETATM   19  C   UNL     1     -10.745   5.404  69.574  1.00  0.00    -0.249 C  
HETATM   20  C   UNL     1      -9.508   5.119  72.288  1.00  0.00    -0.164 C  
HETATM   21  O   UNL     1     -11.467   9.150  69.075  1.00  0.00    -0.343 OA 
HETATM   22  H   UNL     1     -11.786   8.517  69.707  1.00  0.00     0.000 HD 
HETATM   23  C   UNL     1     -10.267   6.633  70.467  1.00  0.00    -0.215 C  
HETATM   24  C   UNL     1     -11.561   6.911  71.244  1.00  0.00    -0.352 C  
ENDROOT
BRANCH   5  25
HETATM   25  O   UNL     1      -7.733  11.887  69.286  1.00  0.00     0.080 OA 
BRANCH  25  26
HETATM   26  C   UNL     1      -6.966  12.702  68.491  1.00  0.00    -0.094 C  
HETATM   27  O   UNL     1      -6.026  12.301  67.820  1.00  0.00    -0.072 OA 
BRANCH  26  28
HETATM   28  C   UNL     1      -7.428  14.140  68.601  1.00  0.00    -0.125 C  
HETATM   29  C   UNL     1      -6.846  15.058  67.534  1.00  0.00    -0.197 C  
ENDBRANCH  26  28
ENDBRANCH  25  26
ENDBRANCH   5  25
BRANCH   5  30
HETATM   30  C   UNL     1      -9.439  12.167  67.776  1.00  0.00    -0.192 C  
HETATM   31  O   UNL     1     -10.194  13.028  68.271  1.00  0.00    -0.235 OA 
BRANCH  30  32
HETATM   32  C   UNL     1      -9.134  12.364  66.278  1.00  0.00    -0.097 C  
BRANCH  32  33
HETATM   33  O   UNL     1     -10.340  12.738  65.558  1.00  0.00    -0.276 OA 
BRANCH  33  34
HETATM   34  C   UNL     1     -10.530  12.106  64.363  1.00  0.00    -0.317 C  
HETATM   35  O   UNL     1      -9.921  11.101  64.025  1.00  0.00    -0.265 OA 
BRANCH  34  36
HETATM   36  C   UNL     1     -11.589  12.801  63.525  1.00  0.00    -0.565 C  
HETATM   37  C   UNL     1     -12.885  11.999  63.474  1.00  0.00    -0.472 C  
ENDBRANCH  34  36
ENDBRANCH  33  34
ENDBRANCH  32  33
ENDBRANCH  30  32
ENDBRANCH   5  30
TORSDOF 8
ENDMDL
MODEL      110
REMARK 921   NORMALIZED FREE ENERGY PREDICTED BY IDOCK:    0.53 KCAL/MOL
REMARK 922        TOTAL FREE ENERGY PREDICTED BY IDOCK:    1.04 KCAL/MOL
REMARK 923 INTER-LIGAND FREE ENERGY PREDICTED BY IDOCK:   -7.20 KCAL/MOL
REMARK 924 INTRA-LIGAND FREE ENERGY PREDICTED BY IDOCK:    8.24 KCAL/MOL
REMARK 927      BINDING AFFINITY PREDICTED BY RF-SCORE:    0.00 PKD
ROOT
HETATM    1  C   UNL     1     -10.435  13.379  68.941  1.00  0.00    -0.135 C  
HETATM    2  C   UNL     1      -9.209  13.763  69.539  1.00  0.00     1.000 C  
HETATM    3  C   UNL     1      -9.227  13.509  68.056  1.00  0.00    -0.209 C  
HETATM    4  C   UNL     1      -7.619  14.037  67.605  1.00  0.00    -0.191 C  
HETATM    5  C   UNL     1     -11.098  13.627  67.163  1.00  0.00    -0.297 C  
HETATM    6  C   UNL     1      -9.937   8.844  69.659  1.00  0.00    -0.193 C  
HETATM    7 CL   UNL     1      -7.824  10.999  69.029  1.00  0.00    -0.141 Cl 
HETATM    8  C   UNL     1      -9.912  14.276  67.252  1.00  0.00    -0.252 C  
HETATM    9  C   UNL     1      -9.394  12.953  65.952  1.00  0.00     0.028 C  
HETATM   10  C   UNL     1      -9.796  15.846  67.324  1.00  0.00    -0.234 C  
HETATM   11  C   UNL     1     -11.208   9.543  70.123  1.00  0.00    -0.275 C  
HETATM   12  O   UNL     1     -10.935   5.630  70.004  1.00  0.00    -0.328 OA 
HETATM   13  C   UNL     1     -11.006  11.050  70.188  1.00  0.00    -0.070 C  
HETATM   14  C   UNL     1     -10.858   6.956  68.006  1.00  0.00    -0.266 C  
HETATM   15  C   UNL     1     -10.661  11.611  68.807  1.00  0.00    -0.254 C  
HETATM   16  C   UNL     1      -9.450  11.286  66.429  1.00  0.00    -0.200 C  
HETATM   17  C   UNL     1     -10.538   6.647  69.451  1.00  0.00    -0.240 C  
HETATM   18  C   UNL     1      -9.528  10.716  68.018  1.00  0.00    -0.164 C  
HETATM   19  C   UNL     1      -8.144   8.533  67.751  1.00  0.00    -0.115 C  
HETATM   20  C   UNL     1      -9.657   7.633  70.176  1.00  0.00    -0.168 C  
HETATM   21  O   UNL     1     -10.551  10.718  65.693  1.00  0.00    -0.215 OA 
HETATM   22  H   UNL     1     -10.582   9.805  65.954  1.00  0.00     0.000 HD 
HETATM   23  C   UNL     1      -9.570   9.103  68.172  1.00  0.00    -0.160 C  
HETATM   24  C   UNL     1     -10.477   8.120  67.418  1.00  0.00    -0.356 C  
ENDROOT
BRANCH   5  25
HETATM   25  O   UNL     1     -12.142  14.464  67.910  1.00  0.00    -0.334 OA 
BRANCH  25  26
HETATM   26  C   UNL     1     -11.762  15.630  68.525  1.00  0.00    -0.327 C  
HETATM   27  O   UNL     1     -11.099  16.499  67.977  1.00  0.00    -0.345 OA 
BRANCH  26  28
HETATM   28  C   UNL     1     -12.243  15.656  69.961  1.00  0.00    -0.351 C  
HETATM   29  C   UNL     1     -11.193  16.133  70.956  1.00  0.00    -0.297 C  
ENDBRANCH  26  28
ENDBRANCH  25  26
ENDBRANCH   5  25
BRANCH   5  30
HETATM   30  C   UNL     1     -11.522  14.453  65.700  1.00  0.00    -0.336 C  
HETATM   31  O   UNL     1     -10.859  15.356  65.153  1.00  0.00    -0.378 OA 
BRANCH  30  32
HETATM   32  C   UNL     1     -12.784  14.024  64.926  1.00  0.00    -0.273 C  
BRANCH  32  33
HETATM   33  O   UNL     1     -12.799  12.582  64.738  1.00  0.00    -0.755 OA 
BRANCH  33  34
HETATM   34  C   UNL     1     -12.607  12.156  63.455  1.00  0.00    -0.506 C  
HETATM   35  O   UNL     1     -13.477  11.619  62.784  1.00  0.00     0.031 OA 
BRANCH  34  36
HETATM   36  C   UNL     1     -11.196  12.442  62.976  1.00  0.00     0.072 C  
HETATM   37  C   UNL     1     -10.405  11.159  62.744  1.00  0.00     0.030 C  
ENDBRANCH  34  36
ENDBRANCH  33  34
ENDBRANCH  32  33
ENDBRANCH  30  32
ENDBRANCH   5  30
TORSDOF 8
ENDMDL
MODEL      111
REMARK 921   NORMALIZED FREE ENERGY PREDICTED BY IDOCK:    0.90 KCAL/MOL
REMARK 922        TOTAL FREE ENERGY PREDICTED BY IDOCK:    1.58 KCAL/MOL
REMARK 923 INTER-LIGAND FREE ENERGY PREDICTED BY IDOCK:   -6.40 KCAL/MOL
REMARK 924 INTRA-LIGAND FREE ENERGY PREDICTED BY IDOCK:    7.98 KCAL/MOL
REMARK 927      BINDING AFFINITY PREDICTED BY RF-SCORE:    0.00 PKD
ROOT
HETATM    1  C   UNL     1     -10.702  11.542  68.984  1.00  0.00    -0.233 C  
HETATM    2  C   UNL     1     -11.868  11.292  68.221  1.00  0.00    -0.299 C  
HETATM    3  C   UNL     1     -10.531  11.092  67.561  1.00  0.00    -0.244 C  
HETATM    4  C   UNL     1     -11.011  10.372  66.038  1.00  0.00     0.170 C  
HETATM    5  C   UNL     1      -8.938  10.809  68.863  1.00  0.00    -0.153 C  
HETATM    6  C   UNL     1     -10.443  16.053  68.028  1.00  0.00    -0.275 C  
HETATM    7 CL   UNL     1     -11.396  13.702  66.275  1.00  0.00    -0.312 Cl 
HETATM    8  C   UNL     1      -9.716  10.156  67.966  1.00  0.00    -0.161 C  
HETATM    9  C   UNL     1      -8.521  11.002  66.715  1.00  0.00    -0.148 C  
HETATM   10  C   UNL     1     -10.212   8.676  68.178  1.00  0.00    -0.250 C  
HETATM   11  C   UNL     1     -10.427  15.591  69.478  1.00  0.00    -0.263 C  
HETATM   12  O   UNL     1      -9.500  19.270  68.478  1.00  0.00    -0.348 OA 
HETATM   13  C   UNL     1     -10.940  14.164  69.599  1.00  0.00    -0.125 C  
HETATM   14  C   UNL     1      -8.149  17.407  67.802  1.00  0.00    -0.216 C  
HETATM   15  C   UNL     1     -10.054  13.199  68.809  1.00  0.00    -0.072 C  
HETATM   16  C   UNL     1      -8.498  12.737  66.666  1.00  0.00     0.056 C  
HETATM   17  C   UNL     1      -9.456  18.116  68.075  1.00  0.00    -0.285 C  
HETATM   18  C   UNL     1      -9.682  13.758  67.307  1.00  0.00    -0.242 C  
HETATM   19  C   UNL     1      -9.558  15.688  65.571  1.00  0.00    -0.237 C  
HETATM   20  C   UNL     1     -10.719  17.347  67.779  1.00  0.00    -0.332 C  
HETATM   21  O   UNL     1      -7.226  13.115  67.228  1.00  0.00    -0.293 OA 
HETATM   22  H   UNL     1      -7.213  14.065  67.200  1.00  0.00     0.000 HD 
HETATM   23  C   UNL     1      -9.402  15.344  67.118  1.00  0.00    -0.225 C  
HETATM   24  C   UNL     1      -8.103  16.102  67.425  1.00  0.00    -0.183 C  
ENDROOT
BRANCH   5  25
HETATM   25  O   UNL     1      -9.302  10.289  70.258  1.00  0.00     0.054 OA 
BRANCH  25  26
HETATM   26  C   UNL     1     -10.132   9.203  70.381  1.00  0.00    -0.218 C  
HETATM   27  O   UNL     1      -9.852   8.088  69.966  1.00  0.00    -0.183 OA 
BRANCH  26  28
HETATM   28  C   UNL     1     -11.428   9.598  71.057  1.00  0.00    -0.444 C  
HETATM   29  C   UNL     1     -12.304   8.416  71.451  1.00  0.00    -0.328 C  
ENDBRANCH  26  28
ENDBRANCH  25  26
ENDBRANCH   5  25
BRANCH   5  30
HETATM   30  C   UNL     1      -7.694   9.607  68.768  1.00  0.00    -0.080 C  
HETATM   31  O   UNL     1      -6.875   9.332  69.667  1.00  0.00    -0.051 OA 
BRANCH  30  32
HETATM   32  C   UNL     1      -7.591   8.720  67.511  1.00  0.00    -0.093 C  
BRANCH  32  33
HETATM   33  O   UNL     1      -6.746   7.566  67.772  1.00  0.00    -0.062 OA 
BRANCH  33  34
HETATM   34  C   UNL     1      -7.408   6.410  68.069  1.00  0.00    -0.089 C  
HETATM   35  O   UNL     1      -7.722   6.083  69.205  1.00  0.00    -0.091 OA 
BRANCH  34  36
HETATM   36  C   UNL     1      -7.709   5.601  66.820  1.00  0.00    -0.100 C  
HETATM   37  C   UNL     1      -6.434   5.119  66.137  1.00  0.00    -0.040 C  
ENDBRANCH  34  36
ENDBRANCH  33  34
ENDBRANCH  32  33
ENDBRANCH  30  32
ENDBRANCH   5  30
TORSDOF 8
ENDMDL
MODEL      112
REMARK 921   NORMALIZED FREE ENERGY PREDICTED BY IDOCK:    1.16 KCAL/MOL
REMARK 922        TOTAL FREE ENERGY PREDICTED BY IDOCK:    1.97 KCAL/MOL
REMARK 923 INTER-LIGAND FREE ENERGY PREDICTED BY IDOCK:   -6.80 KCAL/MOL
REMARK 924 INTRA-LIGAND FREE ENERGY PREDICTED BY IDOCK:    8.76 KCAL/MOL
REMARK 927      BINDING AFFINITY PREDICTED BY RF-SCORE:    0.00 PKD
ROOT
HETATM    1  C   UNL     1     -10.256   9.938  68.419  1.00  0.00    -0.203 C  
HETATM    2  C   UNL     1      -9.488   9.862  69.607  1.00  0.00    -0.252 C  
HETATM    3  C   UNL     1      -8.899  10.586  68.427  1.00  0.00    -0.140 C  
HETATM    4  C   UNL     1      -7.454  11.273  69.140  1.00  0.00    -0.084 C  
HETATM    5  C   UNL     1     -10.276  11.242  67.018  1.00  0.00    -0.215 C  
HETATM    6  C   UNL     1      -8.797   5.939  66.629  1.00  0.00    -0.123 C  
HETATM    7 CL   UNL     1      -7.295   8.010  68.351  1.00  0.00    -0.095 Cl 
HETATM    8  C   UNL     1      -9.435  11.689  67.981  1.00  0.00    -0.185 C  
HETATM    9  C   UNL     1      -8.135  11.460  66.579  1.00  0.00    -0.141 C  
HETATM   10  C   UNL     1      -9.799  12.873  68.955  1.00  0.00     0.136 C  
HETATM   11  C   UNL     1     -10.291   6.203  66.760  1.00  0.00    -0.292 C  
HETATM   12  O   UNL     1      -8.906   3.212  64.630  1.00  0.00    -0.108 OA 
HETATM   13  C   UNL     1     -10.558   7.341  67.733  1.00  0.00    -0.289 C  
HETATM   14  C   UNL     1      -8.491   5.492  64.011  1.00  0.00    -0.043 C  
HETATM   15  C   UNL     1      -9.912   8.638  67.242  1.00  0.00    -0.282 C  
HETATM   16  C   UNL     1      -7.888   9.858  65.960  1.00  0.00    -0.111 C  
HETATM   17  C   UNL     1      -8.639   4.350  64.991  1.00  0.00    -0.128 C  
HETATM   18  C   UNL     1      -8.368   8.424  66.714  1.00  0.00    -0.109 C  
HETATM   19  C   UNL     1      -6.428   6.875  65.948  1.00  0.00    -0.051 C  
HETATM   20  C   UNL     1      -8.393   4.668  66.445  1.00  0.00    -0.106 C  
HETATM   21  O   UNL     1      -8.443   9.875  64.630  1.00  0.00    -0.148 OA 
HETATM   22  H   UNL     1      -8.308   8.998  64.291  1.00  0.00     0.000 HD 
HETATM   23  C   UNL     1      -8.008   7.065  65.906  1.00  0.00    -0.113 C  
HETATM   24  C   UNL     1      -8.268   6.768  64.422  1.00  0.00     0.015 C  
ENDROOT
BRANCH   5  25
HETATM   25  O   UNL     1     -11.709  11.436  67.525  1.00  0.00    -0.568 OA 
BRANCH  25  26
HETATM   26  C   UNL     1     -11.976  12.423  68.440  1.00  0.00    -0.216 C  
HETATM   27  O   UNL     1     -12.138  13.597  68.140  1.00  0.00    -0.359 OA 
BRANCH  26  28
HETATM   28  C   UNL     1     -11.998  11.856  69.845  1.00  0.00    -0.398 C  
HETATM   29  C   UNL     1     -12.589  12.800  70.882  1.00  0.00    -0.342 C  
ENDBRANCH  26  28
ENDBRANCH  25  26
ENDBRANCH   5  25
BRANCH   5  30
HETATM   30  C   UNL     1     -10.360  12.800  66.265  1.00  0.00    -0.258 C  
HETATM   31  O   UNL     1     -10.884  13.050  65.162  1.00  0.00    -0.286 OA 
BRANCH  30  32
HETATM   32  C   UNL     1      -9.818  14.034  67.014  1.00  0.00    -0.260 C  
BRANCH  32  33
HETATM   33  O   UNL     1      -8.884  14.768  66.175  1.00  0.00    -0.130 OA 
BRANCH  33  34
HETATM   34  C   UNL     1      -7.954  15.511  66.844  1.00  0.00    -0.229 C  
HETATM   35  O   UNL     1      -6.856  15.085  67.171  1.00  0.00    -0.260 OA 
BRANCH  34  36
HETATM   36  C   UNL     1      -8.453  16.920  67.112  1.00  0.00    -0.218 C  
HETATM   37  C   UNL     1      -7.302  17.890  67.358  1.00  0.00    -0.205 C  
ENDBRANCH  34  36
ENDBRANCH  33  34
ENDBRANCH  32  33
ENDBRANCH  30  32
ENDBRANCH   5  30
TORSDOF 8
ENDMDL
MODEL      113
REMARK 921   NORMALIZED FREE ENERGY PREDICTED BY IDOCK:    1.71 KCAL/MOL
REMARK 922        TOTAL FREE ENERGY PREDICTED BY IDOCK:    2.78 KCAL/MOL
REMARK 923 INTER-LIGAND FREE ENERGY PREDICTED BY IDOCK:   -4.71 KCAL/MOL
REMARK 924 INTRA-LIGAND FREE ENERGY PREDICTED BY IDOCK:    7.48 KCAL/MOL
REMARK 927      BINDING AFFINITY PREDICTED BY RF-SCORE:    0.00 PKD
ROOT
HETATM    1  C   UNL     1      -8.492   9.692  66.205  1.00  0.00    -0.126 C  
HETATM    2  C   UNL     1      -7.758  10.867  66.501  1.00  0.00    -0.149 C  
HETATM    3  C   UNL     1      -7.051   9.543  66.603  1.00  0.00    -0.086 C  
HETATM    4  C   UNL     1      -5.401  10.062  66.878  1.00  0.00    -0.041 C  
HETATM    5  C   UNL     1      -7.926   7.990  65.537  1.00  0.00    -0.117 C  
HETATM    6  C   UNL     1     -10.167   9.069  70.463  1.00  0.00    -0.268 C  
HETATM    7 CL   UNL     1      -7.445  10.187  69.543  1.00  0.00    -0.117 Cl 
HETATM    8  C   UNL     1      -6.845   8.808  65.544  1.00  0.00    -0.075 C  
HETATM    9  C   UNL     1      -6.225   7.537  66.852  1.00  0.00    -0.048 C  
HETATM   10  C   UNL     1      -6.225   9.421  64.232  1.00  0.00    -0.084 C  
HETATM   11  C   UNL     1     -11.122   9.104  69.279  1.00  0.00     0.001 C  
HETATM   12  O   UNL     1     -12.280   7.880  72.822  1.00  0.00    -0.203 OA 
HETATM   13  C   UNL     1     -10.456   9.729  68.062  1.00  0.00    -0.271 C  
HETATM   14  C   UNL     1     -10.643   6.673  71.550  1.00  0.00    -0.251 C  
HETATM   15  C   UNL     1      -9.235   8.914  67.633  1.00  0.00    -0.151 C  
HETATM   16  C   UNL     1      -7.138   7.377  68.319  1.00  0.00    -0.084 C  
HETATM   17  C   UNL     1     -11.307   7.923  72.082  1.00  0.00    -0.313 C  
HETATM   18  C   UNL     1      -8.276   8.484  68.899  1.00  0.00    -0.117 C  
HETATM   19  C   UNL     1      -7.885   8.191  71.452  1.00  0.00    -0.110 C  
HETATM   20  C   UNL     1     -10.682   9.240  71.696  1.00  0.00    -0.393 C  
HETATM   21  O   UNL     1      -7.771   6.085  68.234  1.00  0.00    -0.098 OA 
HETATM   22  H   UNL     1      -8.270   5.997  69.037  1.00  0.00     0.000 HD 
HETATM   23  C   UNL     1      -8.981   8.078  70.302  1.00  0.00    -0.147 C  
HETATM   24  C   UNL     1      -9.609   6.727  70.670  1.00  0.00    -0.174 C  
ENDROOT
BRANCH   5  25
HETATM   25  O   UNL     1      -8.816   8.407  64.361  1.00  0.00     0.045 OA 
BRANCH  25  26
HETATM   26  C   UNL     1      -8.273   8.515  63.105  1.00  0.00    -0.151 C  
HETATM   27  O   UNL     1      -7.363   7.807  62.700  1.00  0.00    -0.088 OA 
BRANCH  26  28
HETATM   28  C   UNL     1      -8.932   9.641  62.335  1.00  0.00    -0.282 C  
HETATM   29  C   UNL     1      -9.041  10.943  63.118  1.00  0.00    -0.277 C  
ENDBRANCH  26  28
ENDBRANCH  25  26
ENDBRANCH   5  25
BRANCH   5  30
HETATM   30  C   UNL     1      -7.141   6.843  64.502  1.00  0.00    -0.061 C  
HETATM   31  O   UNL     1      -5.973   6.926  64.074  1.00  0.00    -0.034 OA 
BRANCH  30  32
HETATM   32  C   UNL     1      -7.883   5.552  64.102  1.00  0.00    -0.103 C  
BRANCH  32  33
HETATM   33  O   UNL     1      -8.307   4.822  65.286  1.00  0.00    -0.118 OA 
BRANCH  33  34
HETATM   34  C   UNL     1      -7.620   3.670  65.541  1.00  0.00    -0.078 C  
HETATM   35  O   UNL     1      -7.542   3.161  66.650  1.00  0.00    -0.074 OA 
BRANCH  34  36
HETATM   36  C   UNL     1      -6.987   3.106  64.282  1.00  0.00    -0.052 C  
HETATM   37  C   UNL     1      -5.782   2.226  64.600  1.00  0.00    -0.013 C  
ENDBRANCH  34  36
ENDBRANCH  33  34
ENDBRANCH  32  33
ENDBRANCH  30  32
ENDBRANCH   5  30
TORSDOF 8
ENDMDL
MODEL      114
REMARK 921   NORMALIZED FREE ENERGY PREDICTED BY IDOCK:    1.74 KCAL/MOL
REMARK 922        TOTAL FREE ENERGY PREDICTED BY IDOCK:    2.82 KCAL/MOL
REMARK 923 INTER-LIGAND FREE ENERGY PREDICTED BY IDOCK:   -4.22 KCAL/MOL
REMARK 924 INTRA-LIGAND FREE ENERGY PREDICTED BY IDOCK:    7.04 KCAL/MOL
REMARK 927      BINDING AFFINITY PREDICTED BY RF-SCORE:    0.00 PKD
ROOT
HETATM    1  C   UNL     1      -9.308   9.064  68.266  1.00  0.00    -0.145 C  
HETATM    2  C   UNL     1      -9.760   7.875  67.643  1.00  0.00    -0.196 C  
HETATM    3  C   UNL     1      -8.413   8.416  67.247  1.00  0.00    -0.124 C  
HETATM    4  C   UNL     1      -7.814   7.122  66.230  1.00  0.00    -0.107 C  
HETATM    5  C   UNL     1      -7.539   9.701  68.625  1.00  0.00    -0.080 C  
HETATM    6  C   UNL     1     -11.297  11.973  65.282  1.00  0.00    -0.366 C  
HETATM    7 CL   UNL     1     -10.054   9.190  64.814  1.00  0.00     0.963 Cl 
HETATM    8  C   UNL     1      -7.428   8.456  68.103  1.00  0.00    -0.097 C  
HETATM    9  C   UNL     1      -6.559   9.419  66.680  1.00  0.00    -0.068 C  
HETATM   10  C   UNL     1      -7.044   7.196  68.967  1.00  0.00    -0.084 C  
HETATM   11  C   UNL     1     -11.551  12.138  66.774  1.00  0.00    -0.412 C  
HETATM   12  O   UNL     1     -12.561  14.916  64.194  1.00  0.00    -0.785 OA 
HETATM   13  C   UNL     1     -11.178  10.872  67.531  1.00  0.00    -0.364 C  
HETATM   14  C   UNL     1     -10.265  14.338  64.583  1.00  0.00    -0.147 C  
HETATM   15  C   UNL     1      -9.691  10.556  67.360  1.00  0.00    -0.190 C  
HETATM   16  C   UNL     1      -7.496  10.590  65.807  1.00  0.00    -0.139 C  
HETATM   17  C   UNL     1     -11.736  14.037  64.397  1.00  0.00    -0.397 C  
HETATM   18  C   UNL     1      -9.183  10.698  65.801  1.00  0.00    -0.218 C  
HETATM   19  C   UNL     1      -9.543  11.526  63.364  1.00  0.00    -0.330 C  
HETATM   20  C   UNL     1     -12.138  12.584  64.426  1.00  0.00    -0.500 C  
HETATM   21  O   UNL     1      -6.965  11.871  66.199  1.00  0.00    -0.252 OA 
HETATM   22  H   UNL     1      -7.478  12.511  65.720  1.00  0.00     0.000 HD 
HETATM   23  C   UNL     1      -9.795  11.894  64.893  1.00  0.00    -0.224 C  
HETATM   24  C   UNL     1      -9.364  13.367  64.881  1.00  0.00     0.854 C  
ENDROOT
BRANCH   5  25
HETATM   25  O   UNL     1      -8.024   9.557  70.072  1.00  0.00    -0.117 OA 
BRANCH  25  26
HETATM   26  C   UNL     1      -7.611   8.484  70.821  1.00  0.00    -0.074 C  
HETATM   27  O   UNL     1      -7.926   7.328  70.577  1.00  0.00    -0.101 OA 
BRANCH  26  28
HETATM   28  C   UNL     1      -6.760   8.944  71.986  1.00  0.00    -0.006 C  
HETATM   29  C   UNL     1      -7.198   8.380  73.331  1.00  0.00    -0.116 C  
ENDBRANCH  26  28
ENDBRANCH  25  26
ENDBRANCH   5  25
BRANCH   5  30
HETATM   30  C   UNL     1      -5.905   9.686  69.199  1.00  0.00    -0.035 C  
HETATM   31  O   UNL     1      -5.132   8.708  69.175  1.00  0.00    -0.034 OA 
BRANCH  30  32
HETATM   32  C   UNL     1      -5.275  10.990  69.730  1.00  0.00    -0.043 C  
BRANCH  32  33
HETATM   33  O   UNL     1      -5.428  12.060  68.757  1.00  0.00    -0.050 OA 
BRANCH  33  34
HETATM   34  C   UNL     1      -6.060  13.181  69.213  1.00  0.00    -0.098 C  
HETATM   35  O   UNL     1      -6.537  13.280  70.335  1.00  0.00     0.150 OA 
BRANCH  34  36
HETATM   36  C   UNL     1      -6.080  14.277  68.162  1.00  0.00    -0.138 C  
HETATM   37  C   UNL     1      -7.373  14.261  67.353  1.00  0.00    -0.152 C  
ENDBRANCH  34  36
ENDBRANCH  33  34
ENDBRANCH  32  33
ENDBRANCH  30  32
ENDBRANCH   5  30
TORSDOF 8
ENDMDL
MODEL      115
REMARK 921   NORMALIZED FREE ENERGY PREDICTED BY IDOCK:    1.80 KCAL/MOL
REMARK 922        TOTAL FREE ENERGY PREDICTED BY IDOCK:    2.91 KCAL/MOL
REMARK 923 INTER-LIGAND FREE ENERGY PREDICTED BY IDOCK:    1.73 KCAL/MOL
REMARK 924 INTRA-LIGAND FREE ENERGY PREDICTED BY IDOCK:    1.18 KCAL/MOL
REMARK 927      BINDING AFFINITY PREDICTED BY RF-SCORE:    0.00 PKD
ROOT
HETATM    1  C   UNL     1      -9.275  14.379  67.107  1.00  0.00    -0.230 C  
HETATM    2  C   UNL     1     -10.095  14.262  65.958  1.00  0.00    -0.333 C  
HETATM    3  C   UNL     1      -9.921  15.626  66.569  1.00  0.00    -0.287 C  
HETATM    4  C   UNL     1     -10.717  16.634  65.379  1.00  0.00    -0.228 C  
HETATM    5  C   UNL     1      -8.238  15.847  67.767  1.00  0.00    -0.146 C  
HETATM    6  C   UNL     1     -12.600  13.482  70.184  1.00  0.00    -0.178 C  
HETATM    7 CL   UNL     1     -12.739  14.967  67.485  1.00  0.00     0.998 Cl 
HETATM    8  C   UNL     1      -8.756  16.217  66.571  1.00  0.00    -0.337 C  
HETATM    9  C   UNL     1      -9.686  17.496  67.669  1.00  0.00    -0.275 C  
HETATM   10  C   UNL     1      -7.892  16.323  65.258  1.00  0.00     3.577 C  
HETATM   11  C   UNL     1     -11.306  12.681  70.222  1.00  0.00     0.341 C  
HETATM   12  O   UNL     1     -13.898  12.548  73.165  1.00  0.00     0.465 OA 
HETATM   13  C   UNL     1     -10.544  12.818  68.912  1.00  0.00    -0.154 C  
HETATM   14  C   UNL     1     -12.711  14.562  72.627  1.00  0.00    -0.444 C  
HETATM   15  C   UNL     1     -10.164  14.277  68.654  1.00  0.00    -0.246 C  
HETATM   16  C   UNL     1     -10.773  16.887  68.877  1.00  0.00    -0.321 C  
HETATM   17  C   UNL     1     -13.454  13.287  72.297  1.00  0.00    -0.582 C  
HETATM   18  C   UNL     1     -11.405  15.320  68.935  1.00  0.00    -0.315 C  
HETATM   19  C   UNL     1     -13.742  15.847  69.942  1.00  0.00     2.213 C  
HETATM   20  C   UNL     1     -13.670  12.987  70.835  1.00  0.00     0.965 C  
HETATM   21  O   UNL     1     -10.130  17.159  70.138  1.00  0.00     0.415 OA 
HETATM   22  H   UNL     1     -10.726  16.825  70.799  1.00  0.00     0.000 HD 
HETATM   23  C   UNL     1     -12.400  15.023  70.180  1.00  0.00    -0.380 C  
HETATM   24  C   UNL     1     -12.157  15.342  71.662  1.00  0.00    -0.429 C  
ENDROOT
BRANCH   5  25
HETATM   25  O   UNL     1      -7.092  14.868  67.493  1.00  0.00    -0.174 OA 
BRANCH  25  26
HETATM   26  C   UNL     1      -6.685  14.007  68.482  1.00  0.00    -0.099 C  
HETATM   27  O   UNL     1      -6.798  12.792  68.409  1.00  0.00    -0.076 OA 
BRANCH  26  28
HETATM   28  C   UNL     1      -6.127  14.777  69.662  1.00  0.00    -0.121 C  
HETATM   29  C   UNL     1      -5.791  13.905  70.864  1.00  0.00    -0.199 C  
ENDBRANCH  26  28
ENDBRANCH  25  26
ENDBRANCH   5  25
BRANCH   5  30
HETATM   30  C   UNL     1      -7.094  17.148  67.755  1.00  0.00    -0.153 C  
HETATM   31  O   UNL     1      -7.078  18.113  68.544  1.00  0.00    -0.239 OA 
BRANCH  30  32
HETATM   32  C   UNL     1      -5.929  17.124  66.746  1.00  0.00    -0.200 C  
BRANCH  32  33
HETATM   33  O   UNL     1      -5.434  18.470  66.509  1.00  0.00    -0.139 OA 
BRANCH  33  34
HETATM   34  C   UNL     1      -5.712  18.988  65.276  1.00  0.00    -0.205 C  
HETATM   35  O   UNL     1      -5.379  18.455  64.228  1.00  0.00    -0.083 OA 
BRANCH  34  36
HETATM   36  C   UNL     1      -6.488  20.289  65.379  1.00  0.00    -0.303 C  
HETATM   37  C   UNL     1      -6.414  20.883  66.781  1.00  0.00    -0.362 C  
ENDBRANCH  34  36
ENDBRANCH  33  34
ENDBRANCH  32  33
ENDBRANCH  30  32
ENDBRANCH   5  30
TORSDOF 8
ENDMDL
MODEL      116
REMARK 921   NORMALIZED FREE ENERGY PREDICTED BY IDOCK:    3.06 KCAL/MOL
REMARK 922        TOTAL FREE ENERGY PREDICTED BY IDOCK:    4.75 KCAL/MOL
REMARK 923 INTER-LIGAND FREE ENERGY PREDICTED BY IDOCK:    0.82 KCAL/MOL
REMARK 924 INTRA-LIGAND FREE ENERGY PREDICTED BY IDOCK:    3.93 KCAL/MOL
REMARK 927      BINDING AFFINITY PREDICTED BY RF-SCORE:    0.00 PKD
ROOT
HETATM    1  C   UNL     1     -10.343  14.812  66.815  1.00  0.00    -0.268 C  
HETATM    2  C   UNL     1     -11.633  14.228  66.830  1.00  0.00    -0.405 C  
HETATM    3  C   UNL     1     -11.051  14.697  68.136  1.00  0.00    -0.285 C  
HETATM    4  C   UNL     1     -12.420  14.491  69.209  1.00  0.00    -0.066 C  
HETATM    5  C   UNL     1      -9.536  16.108  67.970  1.00  0.00    -0.211 C  
HETATM    6  C   UNL     1      -8.003  10.855  67.252  1.00  0.00    -0.123 C  
HETATM    7 CL   UNL     1     -10.725  11.694  68.434  1.00  0.00    -0.231 Cl 
HETATM    8  C   UNL     1     -10.827  15.965  68.354  1.00  0.00    -0.316 C  
HETATM    9  C   UNL     1      -9.998  15.287  69.954  1.00  0.00    -0.176 C  
HETATM   10  C   UNL     1     -11.932  17.051  68.068  1.00  0.00     1.291 C  
HETATM   11  C   UNL     1      -7.664  11.806  66.113  1.00  0.00     0.338 C  
HETATM   12  O   UNL     1      -5.329   8.793  67.046  1.00  0.00    -0.035 OA 
HETATM   13  C   UNL     1      -8.788  12.805  65.886  1.00  0.00     0.482 C  
HETATM   14  C   UNL     1      -5.681  10.624  68.556  1.00  0.00    -0.040 C  
HETATM   15  C   UNL     1      -9.015  13.660  67.135  1.00  0.00    -0.235 C  
HETATM   16  C   UNL     1      -9.024  13.858  69.817  1.00  0.00     1.482 C  
HETATM   17  C   UNL     1      -6.111   9.599  67.531  1.00  0.00    -0.052 C  
HETATM   18  C   UNL     1      -9.041  12.773  68.521  1.00  0.00    -0.049 C  
HETATM   19  C   UNL     1      -8.569  10.568  69.812  1.00  0.00     0.123 C  
HETATM   20  C   UNL     1      -7.574   9.582  67.163  1.00  0.00    -0.091 C  
HETATM   21  O   UNL     1      -7.667  14.302  70.012  1.00  0.00    -0.216 OA 
HETATM   22  H   UNL     1      -7.134  13.520  69.937  1.00  0.00     0.000 HD 
HETATM   23  C   UNL     1      -8.023  11.518  68.657  1.00  0.00    -0.135 C  
HETATM   24  C   UNL     1      -6.536  11.564  69.036  1.00  0.00    -0.089 C  
ENDROOT
BRANCH   5  25
HETATM   25  O   UNL     1      -9.525  16.925  66.673  1.00  0.00    -0.243 OA 
BRANCH  25  26
HETATM   26  C   UNL     1      -8.716  16.537  65.635  1.00  0.00     0.419 C  
HETATM   27  O   UNL     1      -9.075  15.780  64.745  1.00  0.00     1.103 OA 
BRANCH  26  28
HETATM   28  C   UNL     1      -7.336  17.144  65.779  1.00  0.00     0.280 C  
HETATM   29  C   UNL     1      -7.237  18.577  65.276  1.00  0.00     0.347 C  
ENDBRANCH  26  28
ENDBRANCH  25  26
ENDBRANCH   5  25
BRANCH   5  30
HETATM   30  C   UNL     1      -9.356  17.579  68.867  1.00  0.00    -0.169 C  
HETATM   31  O   UNL     1     -10.281  18.238  69.381  1.00  0.00    -0.192 OA 
BRANCH  30  32
HETATM   32  C   UNL     1      -7.942  18.128  69.148  1.00  0.00     0.049 C  
BRANCH  32  33
HETATM   33  O   UNL     1      -7.908  19.567  68.946  1.00  0.00    -0.356 OA 
BRANCH  33  34
HETATM   34  C   UNL     1      -6.779  20.048  68.346  1.00  0.00    -0.301 C  
HETATM   35  O   UNL     1      -6.619  20.082  67.134  1.00  0.00    -0.199 OA 
BRANCH  34  36
HETATM   36  C   UNL     1      -5.769  20.540  69.367  1.00  0.00    -0.388 C  
HETATM   37  C   UNL     1      -5.269  19.408  70.258  1.00  0.00    -0.222 C  
ENDBRANCH  34  36
ENDBRANCH  33  34
ENDBRANCH  32  33
ENDBRANCH  30  32
ENDBRANCH   5  30
TORSDOF 8
ENDMDL
MODEL      117
REMARK 921   NORMALIZED FREE ENERGY PREDICTED BY IDOCK:    3.48 KCAL/MOL
REMARK 922        TOTAL FREE ENERGY PREDICTED BY IDOCK:    5.37 KCAL/MOL
REMARK 923 INTER-LIGAND FREE ENERGY PREDICTED BY IDOCK:    3.30 KCAL/MOL
REMARK 924 INTRA-LIGAND FREE ENERGY PREDICTED BY IDOCK:    2.07 KCAL/MOL
REMARK 927      BINDING AFFINITY PREDICTED BY RF-SCORE:    0.00 PKD
ROOT
HETATM    1  C   UNL     1      -8.987  13.450  66.380  1.00  0.00     0.015 C  
HETATM    2  C   UNL     1      -7.733  13.825  66.920  1.00  0.00     0.361 C  
HETATM    3  C   UNL     1      -8.246  12.441  67.213  1.00  0.00    -0.184 C  
HETATM    4  C   UNL     1      -6.859  11.728  68.010  1.00  0.00    -0.074 C  
HETATM    5  C   UNL     1      -9.682  11.735  65.889  1.00  0.00    -0.237 C  
HETATM    6  C   UNL     1     -11.537  15.078  69.869  1.00  0.00    -0.328 C  
HETATM    7 CL   UNL     1      -8.736  13.789  69.888  1.00  0.00     1.622 Cl 
HETATM    8  C   UNL     1      -8.389  11.563  66.258  1.00  0.00    -0.076 C  
HETATM    9  C   UNL     1      -9.207  10.535  67.666  1.00  0.00    -0.153 C  
HETATM   10  C   UNL     1      -7.233  11.282  65.225  1.00  0.00     0.732 C  
HETATM   11  C   UNL     1     -11.856  15.505  68.442  1.00  0.00    -0.241 C  
HETATM   12  O   UNL     1     -14.330  16.208  71.405  1.00  0.00     0.207 OA 
HETATM   13  C   UNL     1     -10.683  15.222  67.515  1.00  0.00    -0.285 C  
HETATM   14  C   UNL     1     -13.827  13.973  70.693  1.00  0.00     0.582 C  
HETATM   15  C   UNL     1     -10.369  13.725  67.479  1.00  0.00    -0.241 C  
HETATM   16  C   UNL     1     -10.265  11.364  68.762  1.00  0.00    -0.197 C  
HETATM   17  C   UNL     1     -13.488  15.412  71.014  1.00  0.00    -0.444 C  
HETATM   18  C   UNL     1     -10.351  13.039  68.975  1.00  0.00     0.035 C  
HETATM   19  C   UNL     1     -10.910  13.114  71.512  1.00  0.00     5.291 C  
HETATM   20  C   UNL     1     -12.041  15.815  70.877  1.00  0.00    -0.459 C  
HETATM   21  O   UNL     1     -11.587  10.882  68.451  1.00  0.00    -0.339 OA 
HETATM   22  H   UNL     1     -12.167  11.336  69.052  1.00  0.00     0.000 HD 
HETATM   23  C   UNL     1     -11.435  13.541  70.070  1.00  0.00    -0.141 C  
HETATM   24  C   UNL     1     -12.904  13.113  70.190  1.00  0.00     0.229 C  
ENDROOT
BRANCH   5  25
HETATM   25  O   UNL     1      -9.686  12.384  64.501  1.00  0.00    -0.107 OA 
BRANCH  25  26
HETATM   26  C   UNL     1     -10.763  13.138  64.109  1.00  0.00    -0.374 C  
HETATM   27  O   UNL     1     -10.910  14.315  64.408  1.00  0.00    -0.329 OA 
BRANCH  26  28
HETATM   28  C   UNL     1     -11.735  12.301  63.303  1.00  0.00    -0.451 C  
HETATM   29  C   UNL     1     -13.055  12.033  64.014  1.00  0.00    -0.125 C  
ENDBRANCH  26  28
ENDBRANCH  25  26
ENDBRANCH   5  25
BRANCH   5  30
HETATM   30  C   UNL     1      -9.749  10.178  65.131  1.00  0.00    -0.304 C  
HETATM   31  O   UNL     1     -10.235   9.144  65.630  1.00  0.00    -0.041 OA 
BRANCH  30  32
HETATM   32  C   UNL     1      -9.241  10.016  63.685  1.00  0.00    -0.274 C  
BRANCH  32  33
HETATM   33  O   UNL     1      -8.720   8.675  63.477  1.00  0.00    -0.067 OA 
BRANCH  33  34
HETATM   34  C   UNL     1      -7.401   8.504  63.786  1.00  0.00    -0.102 C  
HETATM   35  O   UNL     1      -6.492   9.106  63.231  1.00  0.00    -0.090 OA 
BRANCH  34  36
HETATM   36  C   UNL     1      -7.216   7.491  64.902  1.00  0.00    -0.070 C  
HETATM   37  C   UNL     1      -6.057   7.866  65.820  1.00  0.00    -0.038 C  
ENDBRANCH  34  36
ENDBRANCH  33  34
ENDBRANCH  32  33
ENDBRANCH  30  32
ENDBRANCH   5  30
TORSDOF 8
ENDMDL
MODEL      118
REMARK 921   NORMALIZED FREE ENERGY PREDICTED BY IDOCK:    3.57 KCAL/MOL
REMARK 922        TOTAL FREE ENERGY PREDICTED BY IDOCK:    5.51 KCAL/MOL
REMARK 923 INTER-LIGAND FREE ENERGY PREDICTED BY IDOCK:   -3.92 KCAL/MOL
REMARK 924 INTRA-LIGAND FREE ENERGY PREDICTED BY IDOCK:    9.43 KCAL/MOL
REMARK 927      BINDING AFFINITY PREDICTED BY RF-SCORE:    0.00 PKD
ROOT
HETATM    1  C   UNL     1     -10.185   8.947  68.878  1.00  0.00    -0.220 C  
HETATM    2  C   UNL     1      -9.631   9.922  69.743  1.00  0.00    -0.261 C  
HETATM    3  C   UNL     1      -8.688   9.054  68.955  1.00  0.00    -0.136 C  
HETATM    4  C   UNL     1      -7.150   9.812  69.313  1.00  0.00    -0.066 C  
HETATM    5  C   UNL     1      -9.510   8.165  67.267  1.00  0.00    -0.155 C  
HETATM    6  C   UNL     1     -10.526   5.610  72.052  1.00  0.00    -0.270 C  
HETATM    7 CL   UNL     1      -8.401   7.819  71.713  1.00  0.00    -0.119 Cl 
HETATM    8  C   UNL     1      -8.637   9.127  67.652  1.00  0.00    -0.117 C  
HETATM    9  C   UNL     1      -7.468   7.612  67.861  1.00  0.00    -0.108 C  
HETATM   10  C   UNL     1      -8.512  10.515  66.916  1.00  0.00    -0.125 C  
HETATM   11  C   UNL     1     -11.750   5.995  71.233  1.00  0.00    -0.104 C  
HETATM   12  O   UNL     1     -11.679   2.742  73.426  1.00  0.00    -0.122 OA 
HETATM   13  C   UNL     1     -11.558   7.354  70.576  1.00  0.00    -0.256 C  
HETATM   14  C   UNL     1     -10.243   3.005  71.523  1.00  0.00     0.146 C  
HETATM   15  C   UNL     1     -10.365   7.330  69.619  1.00  0.00    -0.227 C  
HETATM   16  C   UNL     1      -7.913   6.401  69.022  1.00  0.00    -0.111 C  
HETATM   17  C   UNL     1     -10.963   3.480  72.765  1.00  0.00     0.102 C  
HETATM   18  C   UNL     1      -9.042   6.594  70.265  1.00  0.00    -0.156 C  
HETATM   19  C   UNL     1      -7.942   5.084  72.071  1.00  0.00    -0.111 C  
HETATM   20  C   UNL     1     -10.718   4.908  73.185  1.00  0.00    -0.315 C  
HETATM   21  O   UNL     1      -8.294   5.250  68.243  1.00  0.00    -0.097 OA 
HETATM   22  H   UNL     1      -8.538   4.587  68.879  1.00  0.00     0.000 HD 
HETATM   23  C   UNL     1      -9.262   5.292  71.206  1.00  0.00    -0.178 C  
HETATM   24  C   UNL     1      -9.508   3.847  70.751  1.00  0.00    -0.233 C  
ENDROOT
BRANCH   5  25
HETATM   25  O   UNL     1     -10.741   8.862  66.679  1.00  0.00    -0.161 OA 
BRANCH  25  26
HETATM   26  C   UNL     1     -10.612  10.110  66.123  1.00  0.00    -0.028 C  
HETATM   27  O   UNL     1     -10.188  10.306  64.993  1.00  0.00    -0.320 OA 
BRANCH  26  28
HETATM   28  C   UNL     1     -11.027  11.179  67.112  1.00  0.00    -0.350 C  
HETATM   29  C   UNL     1     -11.878  12.286  66.503  1.00  0.00    -0.378 C  
ENDBRANCH  26  28
ENDBRANCH  25  26
ENDBRANCH   5  25
BRANCH   5  30
HETATM   30  C   UNL     1      -8.828   8.082  65.676  1.00  0.00    -0.094 C  
HETATM   31  O   UNL     1      -9.469   7.951  64.614  1.00  0.00     1.180 OA 
BRANCH  30  32
HETATM   32  C   UNL     1      -7.307   8.254  65.493  1.00  0.00    -0.072 C  
BRANCH  32  33
HETATM   33  O   UNL     1      -7.013   8.799  64.177  1.00  0.00    -0.087 OA 
BRANCH  33  34
HETATM   34  C   UNL     1      -6.976  10.162  64.101  1.00  0.00    -0.098 C  
HETATM   35  O   UNL     1      -6.637  10.882  65.030  1.00  0.00     0.095 OA 
BRANCH  34  36
HETATM   36  C   UNL     1      -7.392  10.656  62.728  1.00  0.00    -0.035 C  
HETATM   37  C   UNL     1      -8.871  11.028  62.685  1.00  0.00    -0.334 C  
ENDBRANCH  34  36
ENDBRANCH  33  34
ENDBRANCH  32  33
ENDBRANCH  30  32
ENDBRANCH   5  30
TORSDOF 8
ENDMDL
MODEL      119
REMARK 921   NORMALIZED FREE ENERGY PREDICTED BY IDOCK:    3.74 KCAL/MOL
REMARK 922        TOTAL FREE ENERGY PREDICTED BY IDOCK:    5.75 KCAL/MOL
REMARK 923 INTER-LIGAND FREE ENERGY PREDICTED BY IDOCK:   -0.36 KCAL/MOL
REMARK 924 INTRA-LIGAND FREE ENERGY PREDICTED BY IDOCK:    6.10 KCAL/MOL
REMARK 927      BINDING AFFINITY PREDICTED BY RF-SCORE:    0.00 PKD
ROOT
HETATM    1  C   UNL     1      -9.401  11.839  65.744  1.00  0.00    -0.197 C  
HETATM    2  C   UNL     1      -8.416  12.807  65.432  1.00  0.00     1.947 C  
HETATM    3  C   UNL     1      -8.126  11.830  66.540  1.00  0.00    -0.035 C  
HETATM    4  C   UNL     1      -6.449  12.200  66.887  1.00  0.00    -0.007 C  
HETATM    5  C   UNL     1      -9.247  10.083  66.490  1.00  0.00    -0.150 C  
HETATM    6  C   UNL     1     -11.742  14.462  68.738  1.00  0.00    -0.372 C  
HETATM    7 CL   UNL     1      -8.718  14.334  68.152  1.00  0.00    -0.167 Cl 
HETATM    8  C   UNL     1      -7.992  10.555  66.293  1.00  0.00    -0.144 C  
HETATM    9  C   UNL     1      -7.934  10.443  68.214  1.00  0.00    -0.111 C  
HETATM   10  C   UNL     1      -7.055  10.041  65.136  1.00  0.00    -0.135 C  
HETATM   11  C   UNL     1     -12.481  13.798  67.584  1.00  0.00     0.161 C  
HETATM   12  O   UNL     1     -14.401  15.441  70.586  1.00  0.00    -0.151 OA 
HETATM   13  C   UNL     1     -11.509  13.352  66.502  1.00  0.00    -0.372 C  
HETATM   14  C   UNL     1     -13.010  13.511  70.891  1.00  0.00    -0.224 C  
HETATM   15  C   UNL     1     -10.517  12.326  67.053  1.00  0.00    -0.237 C  
HETATM   16  C   UNL     1      -9.045  11.426  69.115  1.00  0.00     0.196 C  
HETATM   17  C   UNL     1     -13.364  14.858  70.302  1.00  0.00     0.161 C  
HETATM   18  C   UNL     1      -9.896  12.757  68.515  1.00  0.00    -0.147 C  
HETATM   19  C   UNL     1      -9.951  14.225  70.659  1.00  0.00     2.095 C  
HETATM   20  C   UNL     1     -12.350  15.481  69.376  1.00  0.00    -0.143 C  
HETATM   21  O   UNL     1      -9.995  10.503  69.682  1.00  0.00    -0.354 OA 
HETATM   22  H   UNL     1     -10.603  11.042  70.176  1.00  0.00     0.000 HD 
HETATM   23  C   UNL     1     -10.869  13.493  69.583  1.00  0.00     0.155 C  
HETATM   24  C   UNL     1     -11.893  12.834  70.517  1.00  0.00    -0.142 C  
ENDROOT
BRANCH   5  25
HETATM   25  O   UNL     1      -9.818   9.696  65.122  1.00  0.00    -0.295 OA 
BRANCH  25  26
HETATM   26  C   UNL     1      -9.003   9.103  64.191  1.00  0.00    -0.008 C  
HETATM   27  O   UNL     1      -8.566   7.967  64.301  1.00  0.00     0.063 OA 
BRANCH  26  28
HETATM   28  C   UNL     1      -8.707  10.061  63.056  1.00  0.00    -0.216 C  
HETATM   29  C   UNL     1      -9.935  10.789  62.526  1.00  0.00     0.035 C  
ENDBRANCH  26  28
ENDBRANCH  25  26
ENDBRANCH   5  25
BRANCH   5  30
HETATM   30  C   UNL     1      -8.682   8.457  66.685  1.00  0.00    -0.131 C  
HETATM   31  O   UNL     1      -7.500   8.076  66.568  1.00  0.00    -0.085 OA 
BRANCH  30  32
HETATM   32  C   UNL     1      -9.673   7.356  67.112  1.00  0.00    -0.171 C  
BRANCH  32  33
HETATM   33  O   UNL     1     -10.546   7.840  68.168  1.00  0.00    -0.193 OA 
BRANCH  33  34
HETATM   34  C   UNL     1     -10.524   7.117  69.326  1.00  0.00    -0.211 C  
HETATM   35  O   UNL     1     -10.976   7.524  70.387  1.00  0.00    -0.245 OA 
BRANCH  34  36
HETATM   36  C   UNL     1      -9.883   5.756  69.122  1.00  0.00    -0.211 C  
HETATM   37  C   UNL     1     -10.011   4.879  70.364  1.00  0.00    -0.316 C  
ENDBRANCH  34  36
ENDBRANCH  33  34
ENDBRANCH  32  33
ENDBRANCH  30  32
ENDBRANCH   5  30
TORSDOF 8
ENDMDL
MODEL      120
REMARK 921   NORMALIZED FREE ENERGY PREDICTED BY IDOCK:    4.83 KCAL/MOL
REMARK 922        TOTAL FREE ENERGY PREDICTED BY IDOCK:    7.36 KCAL/MOL
REMARK 923 INTER-LIGAND FREE ENERGY PREDICTED BY IDOCK:    4.24 KCAL/MOL
REMARK 924 INTRA-LIGAND FREE ENERGY PREDICTED BY IDOCK:    3.11 KCAL/MOL
REMARK 927      BINDING AFFINITY PREDICTED BY RF-SCORE:    0.00 PKD
ROOT
HETATM    1  C   UNL     1      -9.035  12.062  64.712  1.00  0.00     0.648 C  
HETATM    2  C   UNL     1      -9.729  12.399  63.524  1.00  0.00     0.162 C  
HETATM    3  C   UNL     1     -10.473  11.640  64.589  1.00  0.00    -0.354 C  
HETATM    4  C   UNL     1     -12.101  11.663  63.945  1.00  0.00    -0.298 C  
HETATM    5  C   UNL     1      -9.664  11.777  66.497  1.00  0.00    -0.206 C  
HETATM    6  C   UNL     1      -7.298   8.076  63.156  1.00  0.00    -0.104 C  
HETATM    7 CL   UNL     1     -10.004   9.430  62.562  1.00  0.00     1.260 Cl 
HETATM    8  C   UNL     1     -10.720  12.182  65.751  1.00  0.00    -0.303 C  
HETATM    9  C   UNL     1     -11.351  10.411  66.164  1.00  0.00     0.770 C  
HETATM   10  C   UNL     1     -11.347  13.623  65.864  1.00  0.00    -0.317 C  
HETATM   11  C   UNL     1      -6.365   9.117  63.758  1.00  0.00    -0.089 C  
HETATM   12  O   UNL     1      -5.176   5.443  63.063  1.00  0.00    -0.012 OA 
HETATM   13  C   UNL     1      -7.036  10.482  63.810  1.00  0.00     0.107 C  
HETATM   14  C   UNL     1      -6.872   5.928  64.689  1.00  0.00    -0.047 C  
HETATM   15  C   UNL     1      -8.289  10.438  64.687  1.00  0.00    -0.155 C  
HETATM   16  C   UNL     1     -10.416   9.065  65.592  1.00  0.00     1.197 C  
HETATM   17  C   UNL     1      -6.161   6.102  63.365  1.00  0.00    -0.022 C  
HETATM   18  C   UNL     1      -9.235   9.127  64.384  1.00  0.00     0.087 C  
HETATM   19  C   UNL     1      -9.585   6.776  63.334  1.00  0.00     3.295 C  
HETATM   20  C   UNL     1      -6.756   7.100  62.403  1.00  0.00    -0.060 C  
HETATM   21  O   UNL     1      -9.823   8.487  66.772  1.00  0.00    -0.209 OA 
HETATM   22  H   UNL     1      -9.311   7.750  66.459  1.00  0.00     0.000 HD 
HETATM   23  C   UNL     1      -8.515   7.713  64.050  1.00  0.00     0.239 C  
HETATM   24  C   UNL     1      -7.920   6.712  65.051  1.00  0.00    -0.124 C  
ENDROOT
BRANCH   5  25
HETATM   25  O   UNL     1      -8.785  13.003  66.762  1.00  0.00    -0.188 OA 
BRANCH  25  26
HETATM   26  C   UNL     1      -7.434  12.842  66.944  1.00  0.00     0.267 C  
HETATM   27  O   UNL     1      -6.670  13.765  67.190  1.00  0.00    -0.163 OA 
BRANCH  26  28
HETATM   28  C   UNL     1      -7.041  11.391  66.760  1.00  0.00    -0.132 C  
HETATM   29  C   UNL     1      -6.132  10.854  67.857  1.00  0.00    -0.050 C  
ENDBRANCH  26  28
ENDBRANCH  25  26
ENDBRANCH   5  25
BRANCH   5  30
HETATM   30  C   UNL     1     -10.501  12.089  67.982  1.00  0.00    -0.207 C  
HETATM   31  O   UNL     1     -10.703  11.262  68.893  1.00  0.00    -0.191 OA 
BRANCH  30  32
HETATM   32  C   UNL     1     -10.998  13.516  68.286  1.00  0.00    -0.258 C  
BRANCH  32  33
HETATM   33  O   UNL     1     -11.403  13.627  69.678  1.00  0.00    -0.236 OA 
BRANCH  33  34
HETATM   34  C   UNL     1     -11.840  14.861  70.066  1.00  0.00    -0.307 C  
HETATM   35  O   UNL     1     -12.989  15.250  69.913  1.00  0.00    -0.087 OA 
BRANCH  34  36
HETATM   36  C   UNL     1     -10.730  15.669  70.714  1.00  0.00    -0.179 C  
HETATM   37  C   UNL     1     -11.282  16.791  71.587  1.00  0.00     0.507 C  
ENDBRANCH  34  36
ENDBRANCH  33  34
ENDBRANCH  32  33
ENDBRANCH  30  32
ENDBRANCH   5  30
TORSDOF 8
ENDMDL
MODEL      121
REMARK 921   NORMALIZED FREE ENERGY PREDICTED BY IDOCK:    4.99 KCAL/MOL
REMARK 922        TOTAL FREE ENERGY PREDICTED BY IDOCK:    7.59 KCAL/MOL
REMARK 923 INTER-LIGAND FREE ENERGY PREDICTED BY IDOCK:   -0.62 KCAL/MOL
REMARK 924 INTRA-LIGAND FREE ENERGY PREDICTED BY IDOCK:    8.21 KCAL/MOL
REMARK 927      BINDING AFFINITY PREDICTED BY RF-SCORE:    0.00 PKD
ROOT
HETATM    1  C   UNL     1      -6.793  10.977  66.427  1.00  0.00    -0.118 C  
HETATM    2  C   UNL     1      -7.053  10.598  65.087  1.00  0.00     0.064 C  
HETATM    3  C   UNL     1      -8.225  10.790  66.011  1.00  0.00    -0.164 C  
HETATM    4  C   UNL     1      -9.564  10.647  64.891  1.00  0.00    -0.323 C  
HETATM    5  C   UNL     1      -7.849  11.964  67.682  1.00  0.00    -0.142 C  
HETATM    6  C   UNL     1      -6.271   6.689  68.061  1.00  0.00    -0.036 C  
HETATM    7 CL   UNL     1      -8.136   7.760  65.851  1.00  0.00    -0.114 Cl 
HETATM    8  C   UNL     1      -8.510  11.966  66.499  1.00  0.00    -0.097 C  
HETATM    9  C   UNL     1      -9.794  10.957  67.518  1.00  0.00    -0.192 C  
HETATM   10  C   UNL     1      -8.601  13.236  65.571  1.00  0.00     1.885 C  
HETATM   11  C   UNL     1      -5.185   7.726  68.312  1.00  0.00    -0.027 C  
HETATM   12  O   UNL     1      -5.237   4.295  70.216  1.00  0.00    -0.003 OA 
HETATM   13  C   UNL     1      -5.330   8.905  67.362  1.00  0.00    -0.034 C  
HETATM   14  C   UNL     1      -6.963   5.932  70.529  1.00  0.00    -0.058 C  
HETATM   15  C   UNL     1      -6.675   9.604  67.566  1.00  0.00    -0.070 C  
HETATM   16  C   UNL     1      -9.290   9.429  68.168  1.00  0.00    -0.133 C  
HETATM   17  C   UNL     1      -5.970   5.135  69.713  1.00  0.00    -0.021 C  
HETATM   18  C   UNL     1      -7.933   8.548  67.679  1.00  0.00    -0.107 C  
HETATM   19  C   UNL     1      -8.850   6.140  68.017  1.00  0.00    -0.111 C  
HETATM   20  C   UNL     1      -5.956   5.390  68.226  1.00  0.00    -0.018 C  
HETATM   21  O   UNL     1      -9.205   9.632  69.593  1.00  0.00    -0.180 OA 
HETATM   22  H   UNL     1      -8.929   8.796  69.949  1.00  0.00     0.000 HD 
HETATM   23  C   UNL     1      -7.700   7.148  68.462  1.00  0.00    -0.120 C  
HETATM   24  C   UNL     1      -7.722   6.915  69.980  1.00  0.00    -0.101 C  
ENDROOT
BRANCH   5  25
HETATM   25  O   UNL     1      -6.675  12.941  67.560  1.00  0.00    -0.142 OA 
BRANCH  25  26
HETATM   26  C   UNL     1      -6.357  13.753  68.619  1.00  0.00    -0.090 C  
HETATM   27  O   UNL     1      -5.923  13.337  69.684  1.00  0.00    -0.102 OA 
BRANCH  26  28
HETATM   28  C   UNL     1      -6.654  15.201  68.288  1.00  0.00    -0.114 C  
HETATM   29  C   UNL     1      -5.439  16.115  68.369  1.00  0.00    -0.102 C  
ENDBRANCH  26  28
ENDBRANCH  25  26
ENDBRANCH   5  25
BRANCH   5  30
HETATM   30  C   UNL     1      -8.822  13.253  68.311  1.00  0.00    -0.168 C  
HETATM   31  O   UNL     1      -8.851  13.632  69.498  1.00  0.00     0.753 OA 
BRANCH  30  32
HETATM   32  C   UNL     1      -9.692  14.085  67.347  1.00  0.00    -0.233 C  
BRANCH  32  33
HETATM   33  O   UNL     1     -11.044  14.212  67.866  1.00  0.00    -0.255 OA 
BRANCH  33  34
HETATM   34  C   UNL     1     -12.026  14.317  66.923  1.00  0.00    -0.438 C  
HETATM   35  O   UNL     1     -13.219  14.222  67.176  1.00  0.00     1.226 OA 
BRANCH  34  36
HETATM   36  C   UNL     1     -11.450  14.576  65.543  1.00  0.00    -0.343 C  
HETATM   37  C   UNL     1      -9.989  15.007  65.611  1.00  0.00    -0.387 C  
ENDBRANCH  34  36
ENDBRANCH  33  34
ENDBRANCH  32  33
ENDBRANCH  30  32
ENDBRANCH   5  30
TORSDOF 8
ENDMDL
MODEL      122
REMARK 921   NORMALIZED FREE ENERGY PREDICTED BY IDOCK:    6.61 KCAL/MOL
REMARK 922        TOTAL FREE ENERGY PREDICTED BY IDOCK:    9.96 KCAL/MOL
REMARK 923 INTER-LIGAND FREE ENERGY PREDICTED BY IDOCK:   -0.89 KCAL/MOL
REMARK 924 INTRA-LIGAND FREE ENERGY PREDICTED BY IDOCK:   10.85 KCAL/MOL
REMARK 927      BINDING AFFINITY PREDICTED BY RF-SCORE:    0.00 PKD
ROOT
HETATM    1  C   UNL     1      -6.546   9.177  67.771  1.00  0.00    -0.060 C  
HETATM    2  C   UNL     1      -5.402   9.697  68.426  1.00  0.00    -0.033 C  
HETATM    3  C   UNL     1      -6.630   9.421  69.252  1.00  0.00    -0.048 C  
HETATM    4  C   UNL     1      -6.018   9.694  70.869  1.00  0.00    -0.081 C  
HETATM    5  C   UNL     1      -7.972   8.075  68.415  1.00  0.00    -0.120 C  
HETATM    6  C   UNL     1      -8.328  13.265  66.572  1.00  0.00     0.383 C  
HETATM    7 CL   UNL     1      -6.742  12.450  69.088  1.00  0.00    -0.102 Cl 
HETATM    8  C   UNL     1      -7.069   8.203  69.417  1.00  0.00    -0.055 C  
HETATM    9  C   UNL     1      -8.538   9.113  70.266  1.00  0.00    -0.218 C  
HETATM   10  C   UNL     1      -6.102   7.038  69.853  1.00  0.00    -0.024 C  
HETATM   11  C   UNL     1      -8.118  12.197  65.508  1.00  0.00     1.419 C  
HETATM   12  O   UNL     1     -10.257  15.410  64.806  1.00  0.00    -0.301 OA 
HETATM   13  C   UNL     1      -7.156  11.125  65.998  1.00  0.00     0.061 C  
HETATM   14  C   UNL     1     -10.949  13.767  66.411  1.00  0.00    -0.298 C  
HETATM   15  C   UNL     1      -7.712  10.422  67.238  1.00  0.00    -0.099 C  
HETATM   16  C   UNL     1      -9.135  10.560  69.516  1.00  0.00    -0.040 C  
HETATM   17  C   UNL     1      -9.938  14.635  65.696  1.00  0.00    -0.351 C  
HETATM   18  C   UNL     1      -8.324  11.473  68.348  1.00  0.00    -0.154 C  
HETATM   19  C   UNL     1      -9.166  13.842  69.005  1.00  0.00     0.249 C  
HETATM   20  C   UNL     1      -8.508  14.537  66.166  1.00  0.00     0.726 C  
HETATM   21  O   UNL     1     -10.431  10.208  68.991  1.00  0.00    -0.194 OA 
HETATM   22  H   UNL     1     -10.758  11.000  68.581  1.00  0.00     0.000 HD 
HETATM   23  C   UNL     1      -9.121  12.782  67.818  1.00  0.00    -0.197 C  
HETATM   24  C   UNL     1     -10.580  12.855  67.347  1.00  0.00    -0.242 C  
ENDROOT
BRANCH   5  25
HETATM   25  O   UNL     1      -7.387   7.105  67.383  1.00  0.00    -0.087 OA 
BRANCH  25  26
HETATM   26  C   UNL     1      -7.031   5.837  67.771  1.00  0.00    -0.066 C  
HETATM   27  O   UNL     1      -7.703   5.147  68.523  1.00  0.00    -0.078 OA 
BRANCH  26  28
HETATM   28  C   UNL     1      -5.694   5.453  67.171  1.00  0.00    -0.017 C  
HETATM   29  C   UNL     1      -5.799   4.784  65.807  1.00  0.00    -0.022 C  
ENDBRANCH  26  28
ENDBRANCH  25  26
ENDBRANCH   5  25
BRANCH   5  30
HETATM   30  C   UNL     1      -8.753   6.738  69.191  1.00  0.00    -0.131 C  
HETATM   31  O   UNL     1      -9.096   5.673  68.641  1.00  0.00    -0.117 OA 
BRANCH  30  32
HETATM   32  C   UNL     1      -9.004   6.785  70.712  1.00  0.00    -0.151 C  
BRANCH  32  33
HETATM   33  O   UNL     1      -8.011   5.989  71.415  1.00  0.00    -0.110 OA 
BRANCH  33  34
HETATM   34  C   UNL     1      -7.936   6.201  72.762  1.00  0.00    -0.106 C  
HETATM   35  O   UNL     1      -8.567   7.071  73.346  1.00  0.00    -0.124 OA 
BRANCH  34  36
HETATM   36  C   UNL     1      -6.990   5.220  73.430  1.00  0.00    -0.080 C  
HETATM   37  C   UNL     1      -5.531   5.546  73.129  1.00  0.00    -0.023 C  
ENDBRANCH  34  36
ENDBRANCH  33  34
ENDBRANCH  32  33
ENDBRANCH  30  32
ENDBRANCH   5  30
TORSDOF 8
ENDMDL
MODEL      123
REMARK 921   NORMALIZED FREE ENERGY PREDICTED BY IDOCK:    6.94 KCAL/MOL
REMARK 922        TOTAL FREE ENERGY PREDICTED BY IDOCK:   10.45 KCAL/MOL
REMARK 923 INTER-LIGAND FREE ENERGY PREDICTED BY IDOCK:    3.26 KCAL/MOL
REMARK 924 INTRA-LIGAND FREE ENERGY PREDICTED BY IDOCK:    7.19 KCAL/MOL
REMARK 927      BINDING AFFINITY PREDICTED BY RF-SCORE:    0.00 PKD
ROOT
HETATM    1  C   UNL     1     -11.180  14.382  66.588  1.00  0.00    -0.340 C  
HETATM    2  C   UNL     1     -10.289  15.456  66.349  1.00  0.00    -0.303 C  
HETATM    3  C   UNL     1      -9.730  14.186  66.930  1.00  0.00    -0.272 C  
HETATM    4  C   UNL     1      -8.011  14.519  66.880  1.00  0.00     0.059 C  
HETATM    5  C   UNL     1     -10.890  12.491  66.623  1.00  0.00    -0.246 C  
HETATM    6  C   UNL     1     -12.431  15.712  70.831  1.00  0.00    -0.497 C  
HETATM    7 CL   UNL     1      -9.718  15.968  69.387  1.00  0.00    -0.256 Cl 
HETATM    8  C   UNL     1      -9.729  13.076  66.242  1.00  0.00    -0.265 C  
HETATM    9  C   UNL     1      -9.117  12.334  67.909  1.00  0.00    -0.190 C  
HETATM   10  C   UNL     1      -9.193  13.034  64.761  1.00  0.00     1.029 C  
HETATM   11  C   UNL     1     -13.502  15.428  69.787  1.00  0.00     1.070 C  
HETATM   12  O   UNL     1     -14.390  15.858  73.585  1.00  0.00     0.666 OA 
HETATM   13  C   UNL     1     -12.908  15.427  68.386  1.00  0.00     1.517 C  
HETATM   14  C   UNL     1     -13.053  14.023  72.807  1.00  0.00    -0.537 C  
HETATM   15  C   UNL     1     -11.843  14.337  68.248  1.00  0.00    -0.370 C  
HETATM   16  C   UNL     1      -9.872  12.892  69.369  1.00  0.00     0.913 C  
HETATM   17  C   UNL     1     -13.507  15.466  72.834  1.00  0.00    -0.533 C  
HETATM   18  C   UNL     1     -10.805  14.293  69.524  1.00  0.00    -0.148 C  
HETATM   19  C   UNL     1     -10.168  14.956  71.954  1.00  0.00     2.376 C  
HETATM   20  C   UNL     1     -12.781  16.421  71.920  1.00  0.00     0.400 C  
HETATM   21  O   UNL     1     -10.654  11.777  69.841  1.00  0.00    -0.275 OA 
HETATM   22  H   UNL     1     -11.068  12.083  70.640  1.00  0.00     0.000 HD 
HETATM   23  C   UNL     1     -11.391  14.571  71.010  1.00  0.00    -0.034 C  
HETATM   24  C   UNL     1     -12.124  13.578  71.922  1.00  0.00     0.526 C  
ENDROOT
BRANCH   5  25
HETATM   25  O   UNL     1     -11.852  12.548  65.431  1.00  0.00    -0.388 OA 
BRANCH  25  26
HETATM   26  C   UNL     1     -11.350  12.668  64.160  1.00  0.00    -0.383 C  
HETATM   27  O   UNL     1     -10.861  13.699  63.721  1.00  0.00     0.018 OA 
BRANCH  26  28
HETATM   28  C   UNL     1     -11.526  11.374  63.393  1.00  0.00    -0.124 C  
HETATM   29  C   UNL     1     -10.295  10.954  62.601  1.00  0.00     0.269 C  
ENDBRANCH  26  28
ENDBRANCH  25  26
ENDBRANCH   5  25
BRANCH   5  30
HETATM   30  C   UNL     1     -10.362  10.930  66.087  1.00  0.00    -0.248 C  
HETATM   31  O   UNL     1      -9.304  10.688  65.474  1.00  0.00    -0.184 OA 
BRANCH  30  32
HETATM   32  C   UNL     1     -11.202   9.685  66.437  1.00  0.00     1.042 C  
BRANCH  32  33
HETATM   33  O   UNL     1     -10.858   9.196  67.762  1.00  0.00    -0.217 OA 
BRANCH  33  34
HETATM   34  C   UNL     1     -10.449   7.895  67.820  1.00  0.00    -0.212 C  
HETATM   35  O   UNL     1     -10.694   7.070  66.951  1.00  0.00    -0.324 OA 
BRANCH  34  36
HETATM   36  C   UNL     1      -9.652   7.615  69.081  1.00  0.00    -0.155 C  
HETATM   37  C   UNL     1      -8.562   8.657  69.304  1.00  0.00    -0.131 C  
ENDBRANCH  34  36
ENDBRANCH  33  34
ENDBRANCH  32  33
ENDBRANCH  30  32
ENDBRANCH   5  30
TORSDOF 8
ENDMDL
MODEL      124
REMARK 921   NORMALIZED FREE ENERGY PREDICTED BY IDOCK:    7.03 KCAL/MOL
REMARK 922        TOTAL FREE ENERGY PREDICTED BY IDOCK:   10.59 KCAL/MOL
REMARK 923 INTER-LIGAND FREE ENERGY PREDICTED BY IDOCK:    5.62 KCAL/MOL
REMARK 924 INTRA-LIGAND FREE ENERGY PREDICTED BY IDOCK:    4.97 KCAL/MOL
REMARK 927      BINDING AFFINITY PREDICTED BY RF-SCORE:    0.00 PKD
ROOT
HETATM    1  C   UNL     1     -10.581  12.631  67.341  1.00  0.00    -0.240 C  
HETATM    2  C   UNL     1     -11.724  12.198  66.627  1.00  0.00    -0.385 C  
HETATM    3  C   UNL     1     -11.640  11.876  68.095  1.00  0.00    -0.400 C  
HETATM    4  C   UNL     1     -13.232  11.209  68.387  1.00  0.00     4.727 C  
HETATM    5  C   UNL     1     -10.346  13.078  69.188  1.00  0.00     0.178 C  
HETATM    6  C   UNL     1      -7.990   8.919  66.429  1.00  0.00    -0.103 C  
HETATM    7 CL   UNL     1     -11.029   9.155  66.896  1.00  0.00    -0.009 Cl 
HETATM    8  C   UNL     1     -11.662  12.824  68.992  1.00  0.00    -0.371 C  
HETATM    9  C   UNL     1     -11.284  11.361  70.186  1.00  0.00    -0.076 C  
HETATM   10  C   UNL     1     -12.758  13.955  68.958  1.00  0.00     0.648 C  
HETATM   11  C   UNL     1      -7.444  10.308  66.127  1.00  0.00    -0.121 C  
HETATM   12  O   UNL     1      -5.136   7.135  66.091  1.00  0.00    -0.022 OA 
HETATM   13  C   UNL     1      -8.566  11.335  66.089  1.00  0.00    -0.156 C  
HETATM   14  C   UNL     1      -6.173   7.910  68.110  1.00  0.00    -0.046 C  
HETATM   15  C   UNL     1      -9.276  11.414  67.442  1.00  0.00    -0.164 C  
HETATM   16  C   UNL     1     -10.136  10.168  69.664  1.00  0.00    -0.234 C  
HETATM   17  C   UNL     1      -6.128   7.605  66.630  1.00  0.00    -0.044 C  
HETATM   18  C   UNL     1      -9.611   9.932  68.075  1.00  0.00    -0.155 C  
HETATM   19  C   UNL     1      -9.273   7.356  68.122  1.00  0.00    -0.133 C  
HETATM   20  C   UNL     1      -7.391   7.863  65.846  1.00  0.00    -0.076 C  
HETATM   21  O   UNL     1      -8.976  10.369  70.496  1.00  0.00    -0.136 OA 
HETATM   22  H   UNL     1      -8.348   9.716  70.211  1.00  0.00     0.000 HD 
HETATM   23  C   UNL     1      -8.528   8.742  67.876  1.00  0.00    -0.126 C  
HETATM   24  C   UNL     1      -7.250   8.500  68.691  1.00  0.00    -0.080 C  
ENDROOT
BRANCH   5  25
HETATM   25  O   UNL     1     -10.044  14.454  68.584  1.00  0.00    -0.233 OA 
BRANCH  25  26
HETATM   26  C   UNL     1      -8.862  15.082  68.888  1.00  0.00    -0.201 C  
HETATM   27  O   UNL     1      -7.905  14.514  69.395  1.00  0.00    -0.082 OA 
BRANCH  26  28
HETATM   28  C   UNL     1      -8.939  16.555  68.544  1.00  0.00    -0.231 C  
HETATM   29  C   UNL     1      -9.390  16.833  67.117  1.00  0.00    -0.236 C  
ENDBRANCH  26  28
ENDBRANCH  25  26
ENDBRANCH   5  25
BRANCH   5  30
HETATM   30  C   UNL     1     -10.646  13.842  70.714  1.00  0.00     2.125 C  
HETATM   31  O   UNL     1     -10.058  14.850  71.153  1.00  0.00     0.747 OA 
BRANCH  30  32
HETATM   32  C   UNL     1     -11.779  13.314  71.616  1.00  0.00     1.658 C  
BRANCH  32  33
HETATM   33  O   UNL     1     -11.876  14.112  72.828  1.00  0.00     0.364 OA 
BRANCH  33  34
HETATM   34  C   UNL     1     -12.200  15.425  72.641  1.00  0.00    -0.416 C  
HETATM   35  O   UNL     1     -11.662  16.143  71.810  1.00  0.00    -0.470 OA 
BRANCH  34  36
HETATM   36  C   UNL     1     -13.309  15.865  73.580  1.00  0.00    -0.516 C  
HETATM   37  C   UNL     1     -12.895  17.069  74.419  1.00  0.00     0.635 C  
ENDBRANCH  34  36
ENDBRANCH  33  34
ENDBRANCH  32  33
ENDBRANCH  30  32
ENDBRANCH   5  30
TORSDOF 8
ENDMDL
MODEL      125
REMARK 921   NORMALIZED FREE ENERGY PREDICTED BY IDOCK:    7.32 KCAL/MOL
REMARK 922        TOTAL FREE ENERGY PREDICTED BY IDOCK:   11.01 KCAL/MOL
REMARK 923 INTER-LIGAND FREE ENERGY PREDICTED BY IDOCK:    8.72 KCAL/MOL
REMARK 924 INTRA-LIGAND FREE ENERGY PREDICTED BY IDOCK:    2.29 KCAL/MOL
REMARK 927      BINDING AFFINITY PREDICTED BY RF-SCORE:    0.00 PKD
ROOT
HETATM    1  C   UNL     1      -7.872  14.242  66.451  1.00  0.00     1.324 C  
HETATM    2  C   UNL     1      -6.491  14.528  66.318  1.00  0.00     4.455 C  
HETATM    3  C   UNL     1      -7.016  14.187  67.686  1.00  0.00    -0.200 C  
HETATM    4  C   UNL     1      -5.527  14.078  68.602  1.00  0.00    -0.088 C  
HETATM    5  C   UNL     1      -8.813  13.145  67.707  1.00  0.00    -0.191 C  
HETATM    6  C   UNL     1      -9.224  18.613  67.078  1.00  0.00    -0.295 C  
HETATM    7 CL   UNL     1      -6.641  17.185  67.971  1.00  0.00    -0.152 Cl 
HETATM    8  C   UNL     1      -7.488  12.997  67.947  1.00  0.00    -0.137 C  
HETATM    9  C   UNL     1      -7.969  13.827  69.617  1.00  0.00     0.846 C  
HETATM   10  C   UNL     1      -6.686  11.698  67.560  1.00  0.00    -0.096 C  
HETATM   11  C   UNL     1      -9.886  17.770  65.997  1.00  0.00    -0.181 C  
HETATM   12  O   UNL     1     -11.387  21.214  67.131  1.00  0.00     3.231 OA 
HETATM   13  C   UNL     1      -9.040  16.550  65.666  1.00  0.00     0.164 C  
HETATM   14  C   UNL     1     -11.283  19.337  68.622  1.00  0.00     1.428 C  
HETATM   15  C   UNL     1      -8.872  15.655  66.896  1.00  0.00    -0.279 C  
HETATM   16  C   UNL     1      -8.614  15.437  69.563  1.00  0.00    -0.212 C  
HETATM   17  C   UNL     1     -10.753  20.251  67.540  1.00  0.00     0.048 C  
HETATM   18  C   UNL     1      -8.501  16.503  68.256  1.00  0.00    -0.199 C  
HETATM   19  C   UNL     1      -8.334  18.747  69.557  1.00  0.00     0.450 C  
HETATM   20  C   UNL     1      -9.371  19.950  67.016  1.00  0.00    -0.486 C  
HETATM   21  O   UNL     1     -10.006  15.300  69.912  1.00  0.00    -0.399 OA 
HETATM   22  H   UNL     1     -10.359  16.181  69.883  1.00  0.00     0.000 HD 
HETATM   23  C   UNL     1      -9.198  17.949  68.483  1.00  0.00    -0.288 C  
HETATM   24  C   UNL     1     -10.608  18.228  69.022  1.00  0.00     0.244 C  
ENDROOT
BRANCH   5  25
HETATM   25  O   UNL     1      -9.145  12.362  66.432  1.00  0.00    -0.215 OA 
BRANCH  25  26
HETATM   26  C   UNL     1     -10.377  12.510  65.847  1.00  0.00    -0.263 C  
HETATM   27  O   UNL     1     -10.886  13.595  65.608  1.00  0.00    -0.274 OA 
BRANCH  26  28
HETATM   28  C   UNL     1     -11.008  11.158  65.586  1.00  0.00    -0.149 C  
HETATM   29  C   UNL     1     -12.339  11.230  64.849  1.00  0.00     1.427 C  
ENDBRANCH  26  28
ENDBRANCH  25  26
ENDBRANCH   5  25
BRANCH   5  30
HETATM   30  C   UNL     1      -9.213  11.742  68.641  1.00  0.00    -0.083 C  
HETATM   31  O   UNL     1     -10.293  11.541  69.230  1.00  0.00    -0.120 OA 
BRANCH  30  32
HETATM   32  C   UNL     1      -8.208  10.576  68.725  1.00  0.00    -0.134 C  
BRANCH  32  33
HETATM   33  O   UNL     1      -7.888  10.281  70.113  1.00  0.00    -0.137 OA 
BRANCH  33  34
HETATM   34  C   UNL     1      -7.850   8.955  70.436  1.00  0.00    -0.102 C  
HETATM   35  O   UNL     1      -8.817   8.330  70.847  1.00  0.00    -0.137 OA 
BRANCH  34  36
HETATM   36  C   UNL     1      -6.469   8.364  70.210  1.00  0.00    -0.035 C  
HETATM   37  C   UNL     1      -6.050   8.450  68.746  1.00  0.00    -0.044 C  
ENDBRANCH  34  36
ENDBRANCH  33  34
ENDBRANCH  32  33
ENDBRANCH  30  32
ENDBRANCH   5  30
TORSDOF 8
ENDMDL
MODEL      126
REMARK 921   NORMALIZED FREE ENERGY PREDICTED BY IDOCK:    7.81 KCAL/MOL
REMARK 922        TOTAL FREE ENERGY PREDICTED BY IDOCK:   11.73 KCAL/MOL
REMARK 923 INTER-LIGAND FREE ENERGY PREDICTED BY IDOCK:    1.55 KCAL/MOL
REMARK 924 INTRA-LIGAND FREE ENERGY PREDICTED BY IDOCK:   10.18 KCAL/MOL
REMARK 927      BINDING AFFINITY PREDICTED BY RF-SCORE:    0.00 PKD
ROOT
HETATM    1  C   UNL     1      -7.163  12.539  68.984  1.00  0.00     0.002 C  
HETATM    2  C   UNL     1      -5.767  12.713  68.823  1.00  0.00    -0.066 C  
HETATM    3  C   UNL     1      -6.578  12.327  67.616  1.00  0.00    -0.122 C  
HETATM    4  C   UNL     1      -5.379  12.460  66.346  1.00  0.00     1.060 C  
HETATM    5  C   UNL     1      -8.608  12.749  67.745  1.00  0.00    -0.184 C  
HETATM    6  C   UNL     1      -6.971   8.091  70.212  1.00  0.00    -0.044 C  
HETATM    7 CL   UNL     1      -5.220   9.684  68.235  1.00  0.00    -0.033 Cl 
HETATM    8  C   UNL     1      -7.471  13.140  67.120  1.00  0.00     0.023 C  
HETATM    9  C   UNL     1      -7.876  11.620  66.010  1.00  0.00     0.313 C  
HETATM   10  C   UNL     1      -7.129  14.650  66.828  1.00  0.00     1.086 C  
HETATM   11  C   UNL     1      -7.716   9.083  71.095  1.00  0.00    -0.143 C  
HETATM   12  O   UNL     1      -8.063   5.207  71.601  1.00  0.00    -0.110 OA 
HETATM   13  C   UNL     1      -7.313  10.513  70.766  1.00  0.00     1.079 C  
HETATM   14  C   UNL     1      -8.851   6.289  69.610  1.00  0.00    -0.136 C  
HETATM   15  C   UNL     1      -7.658  10.854  69.315  1.00  0.00    -0.113 C  
HETATM   16  C   UNL     1      -7.898  10.055  66.759  1.00  0.00    -0.110 C  
HETATM   17  C   UNL     1      -7.877   6.059  70.744  1.00  0.00    -0.103 C  
HETATM   18  C   UNL     1      -7.221   9.670  68.259  1.00  0.00    -0.079 C  
HETATM   19  C   UNL     1      -6.475   7.229  67.770  1.00  0.00    -0.052 C  
HETATM   20  C   UNL     1      -6.627   6.904  70.745  1.00  0.00    -0.052 C  
HETATM   21  O   UNL     1      -9.285   9.662  66.777  1.00  0.00    -0.143 OA 
HETATM   22  H   UNL     1      -9.297   8.806  67.187  1.00  0.00     0.000 HD 
HETATM   23  C   UNL     1      -7.391   8.123  68.717  1.00  0.00    -0.088 C  
HETATM   24  C   UNL     1      -8.677   7.285  68.703  1.00  0.00    -0.127 C  
ENDROOT
BRANCH   5  25
HETATM   25  O   UNL     1      -8.997  13.854  68.734  1.00  0.00    -0.121 OA 
BRANCH  25  26
HETATM   26  C   UNL     1     -10.127  13.711  69.499  1.00  0.00     0.627 C  
HETATM   27  O   UNL     1     -10.437  14.480  70.398  1.00  0.00     0.248 OA 
BRANCH  26  28
HETATM   28  C   UNL     1     -10.890  12.466  69.095  1.00  0.00    -0.148 C  
HETATM   29  C   UNL     1     -10.070  11.186  69.178  1.00  0.00    -0.134 C  
ENDBRANCH  26  28
ENDBRANCH  25  26
ENDBRANCH   5  25
BRANCH   5  30
HETATM   30  C   UNL     1      -9.611  13.502  66.550  1.00  0.00    -0.277 C  
HETATM   31  O   UNL     1      -9.238  14.343  65.709  1.00  0.00    -0.077 OA 
BRANCH  30  32
HETATM   32  C   UNL     1     -11.087  13.077  66.423  1.00  0.00    -0.287 C  
BRANCH  32  33
HETATM   33  O   UNL     1     -11.951  14.246  66.391  1.00  0.00    -0.402 OA 
BRANCH  33  34
HETATM   34  C   UNL     1     -11.338  15.436  66.660  1.00  0.00    -0.103 C  
HETATM   35  O   UNL     1     -10.987  16.226  65.795  1.00  0.00    -0.202 OA 
BRANCH  34  36
HETATM   36  C   UNL     1     -11.164  15.649  68.152  1.00  0.00    -0.345 C  
HETATM   37  C   UNL     1     -12.449  16.144  68.807  1.00  0.00     0.916 C  
ENDBRANCH  34  36
ENDBRANCH  33  34
ENDBRANCH  32  33
ENDBRANCH  30  32
ENDBRANCH   5  30
TORSDOF 8
ENDMDL
MODEL      127
REMARK 921   NORMALIZED FREE ENERGY PREDICTED BY IDOCK:    8.06 KCAL/MOL
REMARK 922        TOTAL FREE ENERGY PREDICTED BY IDOCK:   12.10 KCAL/MOL
REMARK 923 INTER-LIGAND FREE ENERGY PREDICTED BY IDOCK:    9.85 KCAL/MOL
REMARK 924 INTRA-LIGAND FREE ENERGY PREDICTED BY IDOCK:    2.25 KCAL/MOL
REMARK 927      BINDING AFFINITY PREDICTED BY RF-SCORE:    0.00 PKD
ROOT
HETATM    1  C   UNL     1     -10.410  12.637  67.001  1.00  0.00    -0.241 C  
HETATM    2  C   UNL     1     -10.075  12.758  65.630  1.00  0.00    -0.281 C  
HETATM    3  C   UNL     1      -9.019  12.256  66.578  1.00  0.00    -0.161 C  
HETATM    4  C   UNL     1      -7.752  11.796  65.459  1.00  0.00     1.143 C  
HETATM    5  C   UNL     1      -9.736  11.472  68.362  1.00  0.00    -0.202 C  
HETATM    6  C   UNL     1      -9.321  16.972  68.163  1.00  0.00    -0.254 C  
HETATM    7 CL   UNL     1      -8.028  15.085  66.095  1.00  0.00     0.907 Cl 
HETATM    8  C   UNL     1      -9.156  11.112  67.191  1.00  0.00    -0.151 C  
HETATM    9  C   UNL     1      -7.566  11.695  68.107  1.00  0.00    -0.115 C  
HETATM   10  C   UNL     1      -9.552   9.806  66.405  1.00  0.00    -0.256 C  
HETATM   11  C   UNL     1     -10.697  16.423  68.515  1.00  0.00    -0.320 C  
HETATM   12  O   UNL     1      -9.367  19.785  70.041  1.00  0.00     0.327 OA 
HETATM   13  C   UNL     1     -11.011  15.179  67.698  1.00  0.00    -0.308 C  
HETATM   14  C   UNL     1      -8.329  17.681  70.541  1.00  0.00     4.294 C  
HETATM   15  C   UNL     1      -9.996  14.070  67.985  1.00  0.00    -0.235 C  
HETATM   16  C   UNL     1      -7.473  13.361  68.586  1.00  0.00    -0.104 C  
HETATM   17  C   UNL     1      -8.998  18.691  69.636  1.00  0.00     0.759 C  
HETATM   18  C   UNL     1      -8.442  14.613  67.995  1.00  0.00    -0.154 C  
HETATM   19  C   UNL     1      -6.718  16.556  68.080  1.00  0.00    -0.147 C  
HETATM   20  C   UNL     1      -9.147  18.307  68.186  1.00  0.00    -0.310 C  
HETATM   21  O   UNL     1      -7.580  13.349  70.023  1.00  0.00     0.383 OA 
HETATM   22  H   UNL     1      -7.529  14.260  70.285  1.00  0.00     0.000 HD 
HETATM   23  C   UNL     1      -8.137  16.077  68.622  1.00  0.00    -0.187 C  
HETATM   24  C   UNL     1      -7.986  16.441  70.106  1.00  0.00     1.533 C  
ENDROOT
BRANCH   5  25
HETATM   25  O   UNL     1     -11.184  10.972  68.337  1.00  0.00    -0.229 OA 
BRANCH  25  26
HETATM   26  C   UNL     1     -12.115  11.550  69.163  1.00  0.00    -0.263 C  
HETATM   27  O   UNL     1     -11.983  12.659  69.659  1.00  0.00    -0.315 OA 
BRANCH  26  28
HETATM   28  C   UNL     1     -13.281  10.610  69.391  1.00  0.00     1.522 C  
HETATM   29  C   UNL     1     -12.932   9.139  69.209  1.00  0.00     3.945 C  
ENDBRANCH  26  28
ENDBRANCH  25  26
ENDBRANCH   5  25
BRANCH   5  30
HETATM   30  C   UNL     1      -9.266   9.993  69.133  1.00  0.00    -0.190 C  
HETATM   31  O   UNL     1     -10.041   9.102  69.535  1.00  0.00    -0.184 OA 
BRANCH  30  32
HETATM   32  C   UNL     1      -7.769   9.665  69.295  1.00  0.00    -0.095 C  
BRANCH  32  33
HETATM   33  O   UNL     1      -7.515   9.083  70.603  1.00  0.00    -0.083 OA 
BRANCH  33  34
HETATM   34  C   UNL     1      -6.910   7.859  70.593  1.00  0.00    -0.041 C  
HETATM   35  O   UNL     1      -7.201   6.966  69.810  1.00  0.00    -0.075 OA 
BRANCH  34  36
HETATM   36  C   UNL     1      -5.834   7.760  71.660  1.00  0.00    -0.035 C  
HETATM   37  C   UNL     1      -5.354   6.324  71.848  1.00  0.00    -0.027 C  
ENDBRANCH  34  36
ENDBRANCH  33  34
ENDBRANCH  32  33
ENDBRANCH  30  32
ENDBRANCH   5  30
TORSDOF 8
ENDMDL
MODEL      128
REMARK 921   NORMALIZED FREE ENERGY PREDICTED BY IDOCK:    8.28 KCAL/MOL
REMARK 922        TOTAL FREE ENERGY PREDICTED BY IDOCK:   12.42 KCAL/MOL
REMARK 923 INTER-LIGAND FREE ENERGY PREDICTED BY IDOCK:   10.44 KCAL/MOL
REMARK 924 INTRA-LIGAND FREE ENERGY PREDICTED BY IDOCK:    1.98 KCAL/MOL
REMARK 927      BINDING AFFINITY PREDICTED BY RF-SCORE:    0.00 PKD
ROOT
HETATM    1  C   UNL     1     -11.066   7.128  69.607  1.00  0.00    -0.206 C  
HETATM    2  C   UNL     1     -12.152   6.220  69.639  1.00  0.00     0.824 C  
HETATM    3  C   UNL     1     -12.084   7.284  70.702  1.00  0.00    -0.226 C  
HETATM    4  C   UNL     1     -13.628   7.065  71.498  1.00  0.00    -0.355 C  
HETATM    5  C   UNL     1     -10.918   8.934  70.224  1.00  0.00    -0.241 C  
HETATM    6  C   UNL     1      -8.172   4.527  72.095  1.00  0.00    -0.105 C  
HETATM    7 CL   UNL     1     -11.232   4.848  72.301  1.00  0.00    -0.068 Cl 
HETATM    8  C   UNL     1     -12.205   8.547  70.396  1.00  0.00     0.364 C  
HETATM    9  C   UNL     1     -11.749   8.783  72.252  1.00  0.00    -0.398 C  
HETATM   10  C   UNL     1     -13.383   9.058  69.483  1.00  0.00     3.991 C  
HETATM   11  C   UNL     1      -7.727   5.060  70.740  1.00  0.00    -0.078 C  
HETATM   12  O   UNL     1      -5.181   3.467  73.265  1.00  0.00     0.000 OA 
HETATM   13  C   UNL     1      -8.923   5.510  69.913  1.00  0.00    -0.144 C  
HETATM   14  C   UNL     1      -6.331   5.512  73.763  1.00  0.00    -0.064 C  
HETATM   15  C   UNL     1      -9.674   6.641  70.618  1.00  0.00    -0.183 C  
HETATM   16  C   UNL     1     -10.498   7.777  72.911  1.00  0.00    -0.350 C  
HETATM   17  C   UNL     1      -6.221   4.108  73.213  1.00  0.00    -0.024 C  
HETATM   18  C   UNL     1      -9.912   6.350  72.220  1.00  0.00    -0.178 C  
HETATM   19  C   UNL     1      -9.378   5.020  74.388  1.00  0.00    -0.129 C  
HETATM   20  C   UNL     1      -7.477   3.507  72.633  1.00  0.00    -0.051 C  
HETATM   21  O   UNL     1      -9.381   8.659  73.137  1.00  0.00    -0.187 OA 
HETATM   22  H   UNL     1      -8.696   8.108  73.499  1.00  0.00     0.000 HD 
HETATM   23  C   UNL     1      -8.736   5.611  73.055  1.00  0.00    -0.121 C  
HETATM   24  C   UNL     1      -7.466   6.248  73.638  1.00  0.00    -0.090 C  
ENDROOT
BRANCH   5  25
HETATM   25  O   UNL     1     -10.705   9.191  68.728  1.00  0.00    -0.207 OA 
BRANCH  25  26
HETATM   26  C   UNL     1      -9.430   9.277  68.230  1.00  0.00    -0.138 C  
HETATM   27  O   UNL     1      -9.177   9.484  67.052  1.00  0.00    -0.135 OA 
BRANCH  26  28
HETATM   28  C   UNL     1      -8.412   9.045  69.327  1.00  0.00    -0.128 C  
HETATM   29  C   UNL     1      -6.967   9.181  68.868  1.00  0.00    -0.064 C  
ENDBRANCH  26  28
ENDBRANCH  25  26
ENDBRANCH   5  25
BRANCH   5  30
HETATM   30  C   UNL     1     -11.318  10.608  70.427  1.00  0.00    -0.304 C  
HETATM   31  O   UNL     1     -12.429  11.125  70.198  1.00  0.00    -0.287 OA 
BRANCH  30  32
HETATM   32  C   UNL     1     -10.267  11.574  71.008  1.00  0.00     5.162 C  
BRANCH  32  33
HETATM   33  O   UNL     1      -9.683  12.384  69.952  1.00  0.00     1.738 OA 
BRANCH  33  34
HETATM   34  C   UNL     1      -8.362  12.149  69.694  1.00  0.00     1.602 C  
HETATM   35  O   UNL     1      -7.582  11.697  70.520  1.00  0.00     1.563 OA 
BRANCH  34  36
HETATM   36  C   UNL     1      -8.000  12.506  68.264  1.00  0.00    -0.153 C  
HETATM   37  C   UNL     1      -9.241  12.717  67.402  1.00  0.00    -0.191 C  
ENDBRANCH  34  36
ENDBRANCH  33  34
ENDBRANCH  32  33
ENDBRANCH  30  32
ENDBRANCH   5  30
TORSDOF 8
ENDMDL
MODEL      129
REMARK 921   NORMALIZED FREE ENERGY PREDICTED BY IDOCK:    9.37 KCAL/MOL
REMARK 922        TOTAL FREE ENERGY PREDICTED BY IDOCK:   14.01 KCAL/MOL
REMARK 923 INTER-LIGAND FREE ENERGY PREDICTED BY IDOCK:   11.23 KCAL/MOL
REMARK 924 INTRA-LIGAND FREE ENERGY PREDICTED BY IDOCK:    2.78 KCAL/MOL
REMARK 927      BINDING AFFINITY PREDICTED BY RF-SCORE:    0.00 PKD
ROOT
HETATM    1  C   UNL     1     -11.753  12.334  66.569  1.00  0.00    -0.420 C  
HETATM    2  C   UNL     1     -12.713  12.206  67.602  1.00  0.00     2.230 C  
HETATM    3  C   UNL     1     -11.973  13.511  67.479  1.00  0.00    -0.385 C  
HETATM    4  C   UNL     1     -12.826  14.496  68.648  1.00  0.00     1.082 C  
HETATM    5  C   UNL     1     -11.128  13.872  65.616  1.00  0.00    -0.298 C  
HETATM    6  C   UNL     1      -8.208  10.607  68.973  1.00  0.00    -0.151 C  
HETATM    7 CL   UNL     1     -10.595  12.321  69.908  1.00  0.00     0.712 Cl 
HETATM    8  C   UNL     1     -12.131  14.276  66.433  1.00  0.00    -0.442 C  
HETATM    9  C   UNL     1     -10.702  15.271  67.255  1.00  0.00    -0.311 C  
HETATM   10  C   UNL     1     -13.567  14.653  65.906  1.00  0.00     2.081 C  
HETATM   11  C   UNL     1      -8.546  10.022  67.609  1.00  0.00    -0.118 C  
HETATM   12  O   UNL     1      -5.178   9.175  69.436  1.00  0.00    -0.035 OA 
HETATM   13  C   UNL     1      -9.954  10.412  67.184  1.00  0.00    -0.239 C  
HETATM   14  C   UNL     1      -5.672  11.397  68.679  1.00  0.00    -0.042 C  
HETATM   15  C   UNL     1     -10.084  11.933  67.068  1.00  0.00    -0.226 C  
HETATM   16  C   UNL     1      -9.391  14.375  67.954  1.00  0.00    -0.203 C  
HETATM   17  C   UNL     1      -6.011  10.061  69.300  1.00  0.00    -0.037 C  
HETATM   18  C   UNL     1      -9.416  12.730  68.343  1.00  0.00    -0.162 C  
HETATM   19  C   UNL     1      -7.888  12.771  70.445  1.00  0.00     3.923 C  
HETATM   20  C   UNL     1      -7.424   9.883  69.795  1.00  0.00    -0.140 C  
HETATM   21  O   UNL     1      -8.263  14.614  67.088  1.00  0.00    -0.202 OA 
HETATM   22  H   UNL     1      -7.545  14.124  67.471  1.00  0.00     0.000 HD 
HETATM   23  C   UNL     1      -8.045  12.152  68.986  1.00  0.00     0.245 C  
HETATM   24  C   UNL     1      -6.615  12.350  68.463  1.00  0.00    -0.073 C  
ENDROOT
BRANCH   5  25
HETATM   25  O   UNL     1     -11.761  13.121  64.440  1.00  0.00    -0.344 OA 
BRANCH  25  26
HETATM   26  C   UNL     1     -10.956  12.466  63.542  1.00  0.00    -0.450 C  
HETATM   27  O   UNL     1      -9.761  12.691  63.417  1.00  0.00    -0.165 OA 
BRANCH  26  28
HETATM   28  C   UNL     1     -11.762  11.476  62.727  1.00  0.00     0.705 C  
HETATM   29  C   UNL     1     -11.015  10.190  62.403  1.00  0.00     2.919 C  
ENDBRANCH  26  28
ENDBRANCH  25  26
ENDBRANCH   5  25
BRANCH   5  30
HETATM   30  C   UNL     1     -11.199  15.333  64.687  1.00  0.00    -0.356 C  
HETATM   31  O   UNL     1     -10.901  15.447  63.482  1.00  0.00     1.514 OA 
BRANCH  30  32
HETATM   32  C   UNL     1     -11.740  16.621  65.340  1.00  0.00     1.154 C  
BRANCH  32  33
HETATM   33  O   UNL     1     -11.107  17.791  64.755  1.00  0.00    -0.852 OA 
BRANCH  33  34
HETATM   34  C   UNL     1     -10.288  18.495  65.591  1.00  0.00    -0.040 C  
HETATM   35  O   UNL     1      -9.650  19.478  65.243  1.00  0.00     0.066 OA 
BRANCH  34  36
HETATM   36  C   UNL     1     -10.286  17.911  66.992  1.00  0.00    -0.359 C  
HETATM   37  C   UNL     1     -11.346  18.558  67.877  1.00  0.00     0.645 C  
ENDBRANCH  34  36
ENDBRANCH  33  34
ENDBRANCH  32  33
ENDBRANCH  30  32
ENDBRANCH   5  30
TORSDOF 8
ENDMDL
MODEL      130
REMARK 921   NORMALIZED FREE ENERGY PREDICTED BY IDOCK:    9.85 KCAL/MOL
REMARK 922        TOTAL FREE ENERGY PREDICTED BY IDOCK:   14.72 KCAL/MOL
REMARK 923 INTER-LIGAND FREE ENERGY PREDICTED BY IDOCK:    0.81 KCAL/MOL
REMARK 924 INTRA-LIGAND FREE ENERGY PREDICTED BY IDOCK:   13.91 KCAL/MOL
REMARK 927      BINDING AFFINITY PREDICTED BY RF-SCORE:    0.00 PKD
ROOT
HETATM    1  C   UNL     1      -8.589  10.912  65.124  1.00  0.00    -0.081 C  
HETATM    2  C   UNL     1      -7.199  11.148  64.986  1.00  0.00     0.705 C  
HETATM    3  C   UNL     1      -7.671  10.357  66.176  1.00  0.00    -0.129 C  
HETATM    4  C   UNL     1      -6.146   9.833  66.860  1.00  0.00    -0.063 C  
HETATM    5  C   UNL     1      -9.545   9.486  65.970  1.00  0.00    -0.251 C  
HETATM    6  C   UNL     1      -9.528  14.815  67.408  1.00  0.00    -0.207 C  
HETATM    7 CL   UNL     1      -7.027  13.013  67.498  1.00  0.00    -0.157 Cl 
HETATM    8  C   UNL     1      -8.226   9.185  66.027  1.00  0.00    -0.115 C  
HETATM    9  C   UNL     1      -8.537   9.367  67.918  1.00  0.00    -0.120 C  
HETATM   10  C   UNL     1      -7.561   8.075  65.127  1.00  0.00    -0.098 C  
HETATM   11  C   UNL     1     -10.321  14.469  66.155  1.00  0.00    -0.305 C  
HETATM   12  O   UNL     1     -11.456  17.333  68.585  1.00  0.00     0.182 OA 
HETATM   13  C   UNL     1      -9.602  13.410  65.332  1.00  0.00     0.089 C  
HETATM   14  C   UNL     1     -11.425  15.036  69.278  1.00  0.00    -0.326 C  
HETATM   15  C   UNL     1      -9.439  12.117  66.134  1.00  0.00    -0.231 C  
HETATM   16  C   UNL     1      -9.046  10.917  68.508  1.00  0.00    -0.173 C  
HETATM   17  C   UNL     1     -10.883  16.253  68.561  1.00  0.00    -0.330 C  
HETATM   18  C   UNL     1      -8.918  12.381  67.673  1.00  0.00    -0.183 C  
HETATM   19  C   UNL     1      -8.488  13.974  69.680  1.00  0.00     0.910 C  
HETATM   20  C   UNL     1      -9.564  16.087  67.848  1.00  0.00    -0.219 C  
HETATM   21  O   UNL     1     -10.422  10.741  68.900  1.00  0.00    -0.184 OA 
HETATM   22  H   UNL     1     -10.700  11.590  69.223  1.00  0.00     0.000 HD 
HETATM   23  C   UNL     1      -9.477  13.680  68.467  1.00  0.00    -0.143 C  
HETATM   24  C   UNL     1     -10.824  13.821  69.188  1.00  0.00    -0.205 C  
ENDROOT
BRANCH   5  25
HETATM   25  O   UNL     1     -10.015   9.248  64.531  1.00  0.00     0.535 OA 
BRANCH  25  26
HETATM   26  C   UNL     1      -9.089   9.017  63.545  1.00  0.00     0.332 C  
HETATM   27  O   UNL     1      -8.175   9.786  63.283  1.00  0.00    -0.135 OA 
BRANCH  26  28
HETATM   28  C   UNL     1      -9.388   7.717  62.828  1.00  0.00     2.008 C  
HETATM   29  C   UNL     1      -8.490   6.561  63.245  1.00  0.00     0.271 C  
ENDBRANCH  26  28
ENDBRANCH  25  26
ENDBRANCH   5  25
BRANCH   5  30
HETATM   30  C   UNL     1     -10.007   7.863  66.362  1.00  0.00    -0.122 C  
HETATM   31  O   UNL     1      -9.377   6.831  66.058  1.00  0.00    -0.109 OA 
BRANCH  30  32
HETATM   32  C   UNL     1     -11.262   7.619  67.223  1.00  0.00     0.433 C  
BRANCH  32  33
HETATM   33  O   UNL     1     -11.005   6.587  68.215  1.00  0.00    -0.280 OA 
BRANCH  33  34
HETATM   34  C   UNL     1      -9.689   6.286  68.420  1.00  0.00    -0.124 C  
HETATM   35  O   UNL     1      -9.040   5.555  67.685  1.00  0.00    -0.109 OA 
BRANCH  34  36
HETATM   36  C   UNL     1      -9.143   6.979  69.655  1.00  0.00    -0.144 C  
HETATM   37  C   UNL     1      -8.129   6.108  70.391  1.00  0.00    -0.112 C  
ENDBRANCH  34  36
ENDBRANCH  33  34
ENDBRANCH  32  33
ENDBRANCH  30  32
ENDBRANCH   5  30
TORSDOF 8
ENDMDL
MODEL      131
REMARK 921   NORMALIZED FREE ENERGY PREDICTED BY IDOCK:   10.00 KCAL/MOL
REMARK 922        TOTAL FREE ENERGY PREDICTED BY IDOCK:   14.94 KCAL/MOL
REMARK 923 INTER-LIGAND FREE ENERGY PREDICTED BY IDOCK:    6.08 KCAL/MOL
REMARK 924 INTRA-LIGAND FREE ENERGY PREDICTED BY IDOCK:    8.86 KCAL/MOL
REMARK 927      BINDING AFFINITY PREDICTED BY RF-SCORE:    0.00 PKD
ROOT
HETATM    1  C   UNL     1      -8.819   9.938  67.241  1.00  0.00    -0.138 C  
HETATM    2  C   UNL     1      -7.658  10.305  67.965  1.00  0.00    -0.088 C  
HETATM    3  C   UNL     1      -8.850   9.810  68.739  1.00  0.00    -0.129 C  
HETATM    4  C   UNL     1      -8.179   9.692  70.352  1.00  0.00    -0.194 C  
HETATM    5  C   UNL     1     -10.206   8.681  67.644  1.00  0.00    -0.239 C  
HETATM    6  C   UNL     1     -10.697  14.156  67.145  1.00  0.00    -0.280 C  
HETATM    7 CL   UNL     1      -9.005  12.784  69.327  1.00  0.00     0.764 Cl 
HETATM    8  C   UNL     1      -9.267   8.580  68.615  1.00  0.00    -0.142 C  
HETATM    9  C   UNL     1     -10.713   9.223  69.711  1.00  0.00    -0.245 C  
HETATM   10  C   UNL     1      -8.269   7.365  68.719  1.00  0.00    -0.129 C  
HETATM   11  C   UNL     1     -10.514  13.385  65.844  1.00  0.00    -0.287 C  
HETATM   12  O   UNL     1     -12.719  16.626  66.025  1.00  0.00     3.939 OA 
HETATM   13  C   UNL     1      -9.521  12.247  66.023  1.00  0.00    -0.194 C  
HETATM   14  C   UNL     1     -13.328  14.626  67.200  1.00  0.00     3.702 C  
HETATM   15  C   UNL     1     -10.021  11.250  67.071  1.00  0.00    -0.226 C  
HETATM   16  C   UNL     1     -11.357  10.795  69.360  1.00  0.00    -0.285 C  
HETATM   17  C   UNL     1     -12.356  15.663  66.686  1.00  0.00     1.411 C  
HETATM   18  C   UNL     1     -10.602  11.984  68.425  1.00  0.00    -0.236 C  
HETATM   19  C   UNL     1     -11.448  14.101  69.672  1.00  0.00    -0.329 C  
HETATM   20  C   UNL     1     -10.908  15.484  67.069  1.00  0.00    -0.314 C  
HETATM   21  O   UNL     1     -12.667  10.555  68.810  1.00  0.00    -0.387 OA 
HETATM   22  H   UNL     1     -13.019  11.416  68.617  1.00  0.00     0.000 HD 
HETATM   23  C   UNL     1     -11.435  13.365  68.260  1.00  0.00    -0.350 C  
HETATM   24  C   UNL     1     -12.912  13.520  67.871  1.00  0.00     2.072 C  
ENDROOT
BRANCH   5  25
HETATM   25  O   UNL     1      -9.649   8.006  66.386  1.00  0.00    -0.212 OA 
BRANCH  25  26
HETATM   26  C   UNL     1      -8.842   6.902  66.511  1.00  0.00    -0.140 C  
HETATM   27  O   UNL     1      -9.252   5.800  66.846  1.00  0.00    -0.118 OA 
BRANCH  26  28
HETATM   28  C   UNL     1      -7.401   7.261  66.215  1.00  0.00    -0.079 C  
HETATM   29  C   UNL     1      -7.015   7.106  64.750  1.00  0.00    -0.051 C  
ENDBRANCH  26  28
ENDBRANCH  25  26
ENDBRANCH   5  25
BRANCH   5  30
HETATM   30  C   UNL     1     -10.940   7.178  68.095  1.00  0.00    -0.047 C  
HETATM   31  O   UNL     1     -11.123   6.201  67.343  1.00  0.00    -0.331 OA 
BRANCH  30  32
HETATM   32  C   UNL     1     -11.355   6.947  69.561  1.00  0.00    -0.167 C  
BRANCH  32  33
HETATM   33  O   UNL     1     -10.713   5.755  70.090  1.00  0.00    -0.281 OA 
BRANCH  33  34
HETATM   34  C   UNL     1     -11.002   5.460  71.391  1.00  0.00    -0.078 C  
HETATM   35  O   UNL     1     -11.463   6.271  72.182  1.00  0.00    -0.279 OA 
BRANCH  34  36
HETATM   36  C   UNL     1     -10.691   4.011  71.719  1.00  0.00     0.349 C  
HETATM   37  C   UNL     1      -9.189   3.763  71.817  1.00  0.00    -0.179 C  
ENDBRANCH  34  36
ENDBRANCH  33  34
ENDBRANCH  32  33
ENDBRANCH  30  32
ENDBRANCH   5  30
TORSDOF 8
ENDMDL
MODEL      132
REMARK 921   NORMALIZED FREE ENERGY PREDICTED BY IDOCK:   10.20 KCAL/MOL
REMARK 922        TOTAL FREE ENERGY PREDICTED BY IDOCK:   15.24 KCAL/MOL
REMARK 923 INTER-LIGAND FREE ENERGY PREDICTED BY IDOCK:    9.24 KCAL/MOL
REMARK 924 INTRA-LIGAND FREE ENERGY PREDICTED BY IDOCK:    6.00 KCAL/MOL
REMARK 927      BINDING AFFINITY PREDICTED BY RF-SCORE:    0.00 PKD
ROOT
HETATM    1  C   UNL     1      -7.770  11.742  68.826  1.00  0.00    -0.091 C  
HETATM    2  C   UNL     1      -6.388  11.437  68.881  1.00  0.00    -0.057 C  
HETATM    3  C   UNL     1      -7.002  11.708  67.534  1.00  0.00    -0.104 C  
HETATM    4  C   UNL     1      -5.579  11.734  66.514  1.00  0.00     0.018 C  
HETATM    5  C   UNL     1      -8.780  12.781  67.575  1.00  0.00    -0.185 C  
HETATM    6  C   UNL     1      -9.231   7.369  68.555  1.00  0.00    -0.142 C  
HETATM    7 CL   UNL     1      -6.694   8.691  67.404  1.00  0.00    -0.062 Cl 
HETATM    8  C   UNL     1      -7.472  12.889  67.236  1.00  0.00    -0.092 C  
HETATM    9  C   UNL     1      -8.081  11.973  65.656  1.00  0.00     1.018 C  
HETATM   10  C   UNL     1      -6.625  14.193  67.489  1.00  0.00    -0.098 C  
HETATM   11  C   UNL     1      -9.803   8.286  69.627  1.00  0.00    -0.184 C  
HETATM   12  O   UNL     1     -11.432   4.812  68.806  1.00  0.00     2.643 OA 
HETATM   13  C   UNL     1      -8.917   9.507  69.826  1.00  0.00    -0.214 C  
HETATM   14  C   UNL     1     -11.403   6.596  67.202  1.00  0.00    -0.094 C  
HETATM   15  C   UNL     1      -8.821  10.325  68.536  1.00  0.00    -0.127 C  
HETATM   16  C   UNL     1      -8.746  10.382  65.849  1.00  0.00    -0.158 C  
HETATM   17  C   UNL     1     -10.813   5.736  68.297  1.00  0.00    -0.166 C  
HETATM   18  C   UNL     1      -8.558   9.392  67.206  1.00  0.00    -0.129 C  
HETATM   19  C   UNL     1      -8.518   7.073  66.034  1.00  0.00    -0.141 C  
HETATM   20  C   UNL     1      -9.394   6.041  68.707  1.00  0.00    -0.128 C  
HETATM   21  O   UNL     1     -10.156  10.526  65.589  1.00  0.00    -0.250 OA 
HETATM   22  H   UNL     1     -10.520   9.654  65.695  1.00  0.00     0.000 HD 
HETATM   23  C   UNL     1      -9.292   7.949  67.115  1.00  0.00    -0.190 C  
HETATM   24  C   UNL     1     -10.740   7.666  66.692  1.00  0.00     0.049 C  
ENDROOT
BRANCH   5  25
HETATM   25  O   UNL     1      -9.009  13.644  68.820  1.00  0.00    -0.075 OA 
BRANCH  25  26
HETATM   26  C   UNL     1      -9.546  13.076  69.949  1.00  0.00     2.571 C  
HETATM   27  O   UNL     1      -8.941  12.972  71.006  1.00  0.00     8.189 OA 
BRANCH  26  28
HETATM   28  C   UNL     1     -10.950  12.576  69.677  1.00  0.00     0.136 C  
HETATM   29  C   UNL     1     -11.962  13.686  69.430  1.00  0.00    -0.394 C  
ENDBRANCH  26  28
ENDBRANCH  25  26
ENDBRANCH   5  25
BRANCH   5  30
HETATM   30  C   UNL     1      -9.221  14.135  66.588  1.00  0.00    -0.252 C  
HETATM   31  O   UNL     1      -9.750  14.074  65.460  1.00  0.00    -0.226 OA 
BRANCH  30  32
HETATM   32  C   UNL     1      -9.033  15.564  67.133  1.00  0.00    -0.214 C  
BRANCH  32  33
HETATM   33  O   UNL     1      -9.417  16.545  66.131  1.00  0.00    -0.294 OA 
BRANCH  33  34
HETATM   34  C   UNL     1     -10.129  17.613  66.598  1.00  0.00    -0.335 C  
HETATM   35  O   UNL     1     -10.208  18.682  66.011  1.00  0.00    -0.464 OA 
BRANCH  34  36
HETATM   36  C   UNL     1     -10.811  17.295  67.917  1.00  0.00    -0.283 C  
HETATM   37  C   UNL     1     -10.022  16.275  68.731  1.00  0.00    -0.237 C  
ENDBRANCH  34  36
ENDBRANCH  33  34
ENDBRANCH  32  33
ENDBRANCH  30  32
ENDBRANCH   5  30
TORSDOF 8
ENDMDL
MODEL      133
REMARK 921   NORMALIZED FREE ENERGY PREDICTED BY IDOCK:   15.70 KCAL/MOL
REMARK 922        TOTAL FREE ENERGY PREDICTED BY IDOCK:   23.31 KCAL/MOL
REMARK 923 INTER-LIGAND FREE ENERGY PREDICTED BY IDOCK:    4.17 KCAL/MOL
REMARK 924 INTRA-LIGAND FREE ENERGY PREDICTED BY IDOCK:   19.15 KCAL/MOL
REMARK 927      BINDING AFFINITY PREDICTED BY RF-SCORE:    0.00 PKD
ROOT
HETATM    1  C   UNL     1      -9.867  15.008  67.273  1.00  0.00    -0.228 C  
HETATM    2  C   UNL     1     -10.859  15.528  66.407  1.00  0.00    -0.277 C  
HETATM    3  C   UNL     1     -10.625  16.227  67.718  1.00  0.00    -0.314 C  
HETATM    4  C   UNL     1     -11.631  17.647  67.529  1.00  0.00     1.128 C  
HETATM    5  C   UNL     1      -8.777  15.863  68.594  1.00  0.00    -0.199 C  
HETATM    6  C   UNL     1     -12.622  11.994  69.430  1.00  0.00     0.390 C  
HETATM    7 CL   UNL     1     -13.238  14.801  68.312  1.00  0.00     2.466 Cl 
HETATM    8  C   UNL     1      -9.492  16.827  67.966  1.00  0.00    -0.233 C  
HETATM    9  C   UNL     1     -10.265  17.022  69.719  1.00  0.00     0.100 C  
HETATM   10  C   UNL     1      -8.856  17.831  66.931  1.00  0.00    -0.260 C  
HETATM   11  C   UNL     1     -11.318  11.509  68.811  1.00  0.00    -0.327 C  
HETATM   12  O   UNL     1     -13.393   9.260  71.268  1.00  0.00    -0.332 OA 
HETATM   13  C   UNL     1     -10.783  12.522  67.809  1.00  0.00    -0.242 C  
HETATM   14  C   UNL     1     -12.365  11.301  71.999  1.00  0.00     0.528 C  
HETATM   15  C   UNL     1     -10.489  13.859  68.493  1.00  0.00    -0.253 C  
HETATM   16  C   UNL     1     -11.125  15.667  70.379  1.00  0.00    -0.352 C  
HETATM   17  C   UNL     1     -13.117  10.426  71.021  1.00  0.00    -0.362 C  
HETATM   18  C   UNL     1     -11.697  14.340  69.502  1.00  0.00    -0.366 C  
HETATM   19  C   UNL     1     -13.852  13.834  70.863  1.00  0.00     0.372 C  
HETATM   20  C   UNL     1     -13.558  11.074  69.733  1.00  0.00     2.099 C  
HETATM   21  O   UNL     1     -10.294  15.175  71.449  1.00  0.00    -0.224 OA 
HETATM   22  H   UNL     1     -10.764  14.433  71.810  1.00  0.00     0.000 HD 
HETATM   23  C   UNL     1     -12.468  13.214  70.378  1.00  0.00    -0.280 C  
HETATM   24  C   UNL     1     -11.996  12.572  71.690  1.00  0.00     1.195 C  
ENDROOT
BRANCH   5  25
HETATM   25  O   UNL     1      -7.664  15.416  67.640  1.00  0.00    -0.133 OA 
BRANCH  25  26
HETATM   26  C   UNL     1      -6.930  16.359  66.965  1.00  0.00    -0.219 C  
HETATM   27  O   UNL     1      -5.711  16.430  67.017  1.00  0.00    -0.279 OA 
BRANCH  26  28
HETATM   28  C   UNL     1      -7.842  17.295  66.199  1.00  0.00    -0.305 C  
HETATM   29  C   UNL     1      -8.090  18.624  66.898  1.00  0.00    -0.256 C  
ENDBRANCH  26  28
ENDBRANCH  25  26
ENDBRANCH   5  25
BRANCH   5  30
HETATM   30  C   UNL     1      -7.686  17.020  69.282  1.00  0.00    -0.019 C  
HETATM   31  O   UNL     1      -7.908  18.238  69.425  1.00  0.00     0.053 OA 
BRANCH  30  32
HETATM   32  C   UNL     1      -6.335  16.542  69.851  1.00  0.00    -0.111 C  
BRANCH  32  33
HETATM   33  O   UNL     1      -6.520  15.353  70.668  1.00  0.00     0.089 OA 
BRANCH  33  34
HETATM   34  C   UNL     1      -6.030  14.194  70.136  1.00  0.00    -0.151 C  
HETATM   35  O   UNL     1      -5.191  14.160  69.247  1.00  0.00    -0.082 OA 
BRANCH  34  36
HETATM   36  C   UNL     1      -6.648  12.973  70.793  1.00  0.00     1.204 C  
HETATM   37  C   UNL     1      -7.056  11.923  69.766  1.00  0.00     0.344 C  
ENDBRANCH  34  36
ENDBRANCH  33  34
ENDBRANCH  32  33
ENDBRANCH  30  32
ENDBRANCH   5  30
TORSDOF 8
ENDMDL
MODEL      134
REMARK 921   NORMALIZED FREE ENERGY PREDICTED BY IDOCK:   25.54 KCAL/MOL
REMARK 922        TOTAL FREE ENERGY PREDICTED BY IDOCK:   37.76 KCAL/MOL
REMARK 923 INTER-LIGAND FREE ENERGY PREDICTED BY IDOCK:   26.60 KCAL/MOL
REMARK 924 INTRA-LIGAND FREE ENERGY PREDICTED BY IDOCK:   11.15 KCAL/MOL
REMARK 927      BINDING AFFINITY PREDICTED BY RF-SCORE:    0.00 PKD
ROOT
HETATM    1  C   UNL     1      -8.459  11.458  68.906  1.00  0.00    -0.028 C  
HETATM    2  C   UNL     1      -7.697  11.087  70.040  1.00  0.00     0.698 C  
HETATM    3  C   UNL     1      -9.005  10.383  69.804  1.00  0.00     0.024 C  
HETATM    4  C   UNL     1      -8.946   9.138  71.034  1.00  0.00    -0.281 C  
HETATM    5  C   UNL     1      -9.709  10.463  67.851  1.00  0.00    -0.149 C  
HETATM    6  C   UNL     1     -10.745  14.910  70.951  1.00  0.00     0.135 C  
HETATM    7 CL   UNL     1      -9.772  12.217  72.097  1.00  0.00    16.927 Cl 
HETATM    8  C   UNL     1      -9.175   9.614  68.762  1.00  0.00    -0.141 C  
HETATM    9  C   UNL     1     -10.992   9.576  69.398  1.00  0.00    -0.192 C  
HETATM   10  C   UNL     1      -8.122   8.504  68.386  1.00  0.00    -0.122 C  
HETATM   11  C   UNL     1     -10.004  15.169  69.647  1.00  0.00    -0.183 C  
HETATM   12  O   UNL     1     -12.555  17.763  71.116  1.00  0.00     7.142 OA 
HETATM   13  C   UNL     1      -8.993  14.067  69.368  1.00  0.00     0.605 C  
HETATM   14  C   UNL     1     -13.260  15.598  70.361  1.00  0.00     0.090 C  
HETATM   15  C   UNL     1      -9.691  12.712  69.229  1.00  0.00     0.716 C  
HETATM   16  C   UNL     1     -11.679  11.062  69.972  1.00  0.00    -0.355 C  
HETATM   17  C   UNL     1     -12.323  16.564  71.050  1.00  0.00     1.025 C  
HETATM   18  C   UNL     1     -10.813  12.448  70.403  1.00  0.00     1.755 C  
HETATM   19  C   UNL     1     -12.334  13.315  72.324  1.00  0.00     0.466 C  
HETATM   20  C   UNL     1     -11.097  15.972  71.700  1.00  0.00     0.049 C  
HETATM   21  O   UNL     1     -12.659  11.434  68.983  1.00  0.00    -0.271 OA 
HETATM   22  H   UNL     1     -13.036  12.248  69.297  1.00  0.00     0.000 HD 
HETATM   23  C   UNL     1     -11.716  13.697  70.907  1.00  0.00     0.103 C  
HETATM   24  C   UNL     1     -12.962  14.279  70.226  1.00  0.00    -0.090 C  
ENDROOT
BRANCH   5  25
HETATM   25  O   UNL     1      -8.652  10.710  66.771  1.00  0.00    -0.125 OA 
BRANCH  25  26
HETATM   26  C   UNL     1      -7.998   9.644  66.205  1.00  0.00    -0.108 C  
HETATM   27  O   UNL     1      -8.409   9.043  65.224  1.00  0.00    -0.132 OA 
BRANCH  26  28
HETATM   28  C   UNL     1      -6.744   9.313  66.987  1.00  0.00    -0.076 C  
HETATM   29  C   UNL     1      -5.497  10.027  66.485  1.00  0.00    -0.045 C  
ENDBRANCH  26  28
ENDBRANCH  25  26
ENDBRANCH   5  25
BRANCH   5  30
HETATM   30  C   UNL     1     -10.339   9.159  66.899  1.00  0.00    -0.251 C  
HETATM   31  O   UNL     1     -10.389   9.123  65.654  1.00  0.00     0.115 OA 
BRANCH  30  32
HETATM   32  C   UNL     1     -10.828   7.876  67.600  1.00  0.00    -0.055 C  
BRANCH  32  33
HETATM   33  O   UNL     1      -9.747   6.910  67.702  1.00  0.00    -0.124 OA 
BRANCH  33  34
HETATM   34  C   UNL     1      -9.759   6.132  68.824  1.00  0.00    -0.129 C  
HETATM   35  O   UNL     1     -10.328   6.446  69.859  1.00  0.00    -0.178 OA 
BRANCH  34  36
HETATM   36  C   UNL     1      -8.993   4.838  68.614  1.00  0.00    -0.136 C  
HETATM   37  C   UNL     1      -7.488   5.077  68.538  1.00  0.00    -0.074 C  
ENDBRANCH  34  36
ENDBRANCH  33  34
ENDBRANCH  32  33
ENDBRANCH  30  32
ENDBRANCH   5  30
TORSDOF 8
ENDMDL
MODEL      135
REMARK 921   NORMALIZED FREE ENERGY PREDICTED BY IDOCK:   26.62 KCAL/MOL
REMARK 922        TOTAL FREE ENERGY PREDICTED BY IDOCK:   39.34 KCAL/MOL
REMARK 923 INTER-LIGAND FREE ENERGY PREDICTED BY IDOCK:    2.07 KCAL/MOL
REMARK 924 INTRA-LIGAND FREE ENERGY PREDICTED BY IDOCK:   37.27 KCAL/MOL
REMARK 927      BINDING AFFINITY PREDICTED BY RF-SCORE:    0.00 PKD
ROOT
HETATM    1  C   UNL     1      -8.529  10.343  67.958  1.00  0.00    -0.119 C  
HETATM    2  C   UNL     1      -7.346  10.896  68.505  1.00  0.00    -0.098 C  
HETATM    3  C   UNL     1      -8.003  11.618  67.361  1.00  0.00    -0.147 C  
HETATM    4  C   UNL     1      -7.057  13.091  67.301  1.00  0.00    -0.055 C  
HETATM    5  C   UNL     1     -10.011  11.170  67.072  1.00  0.00    -0.192 C  
HETATM    6  C   UNL     1      -6.422   7.566  64.929  1.00  0.00    -0.037 C  
HETATM    7 CL   UNL     1      -5.631  10.371  65.936  1.00  0.00    -0.077 Cl 
HETATM    8  C   UNL     1      -9.185  12.157  67.497  1.00  0.00    -0.182 C  
HETATM    9  C   UNL     1      -8.996  12.449  65.603  1.00  0.00     0.374 C  
HETATM   10  C   UNL     1      -9.522  13.089  68.721  1.00  0.00     0.107 C  
HETATM   11  C   UNL     1      -7.450   6.986  65.891  1.00  0.00    -0.080 C  
HETATM   12  O   UNL     1      -6.119   4.939  62.819  1.00  0.00    -0.017 OA 
HETATM   13  C   UNL     1      -7.701   7.934  67.054  1.00  0.00    -0.100 C  
HETATM   14  C   UNL     1      -7.419   6.935  62.531  1.00  0.00    -0.080 C  
HETATM   15  C   UNL     1      -8.254   9.270  66.555  1.00  0.00    -0.107 C  
HETATM   16  C   UNL     1      -8.314  11.168  64.651  1.00  0.00     0.366 C  
HETATM   17  C   UNL     1      -6.363   6.078  63.192  1.00  0.00    -0.025 C  
HETATM   18  C   UNL     1      -7.438   9.853  65.250  1.00  0.00    -0.131 C  
HETATM   19  C   UNL     1      -5.780   9.518  63.277  1.00  0.00    -0.086 C  
HETATM   20  C   UNL     1      -5.580   6.714  64.314  1.00  0.00    -0.031 C  
HETATM   21  O   UNL     1      -9.408  10.658  63.862  1.00  0.00    -0.221 OA 
HETATM   22  H   UNL     1      -9.035   9.957  63.341  1.00  0.00     0.000 HD 
HETATM   23  C   UNL     1      -6.918   8.802  64.130  1.00  0.00    -0.089 C  
HETATM   24  C   UNL     1      -7.737   8.171  62.995  1.00  0.00    -0.135 C  
ENDROOT
BRANCH   5  25
HETATM   25  O   UNL     1     -10.756  10.628  68.296  1.00  0.00    -0.189 OA 
BRANCH  25  26
HETATM   26  C   UNL     1     -10.616  11.258  69.508  1.00  0.00    -0.035 C  
HETATM   27  O   UNL     1     -11.556  11.693  70.156  1.00  0.00    -0.289 OA 
BRANCH  26  28
HETATM   28  C   UNL     1      -9.153  11.360  69.889  1.00  0.00     1.648 C  
HETATM   29  C   UNL     1      -8.277  11.981  68.809  1.00  0.00     0.027 C  
ENDBRANCH  26  28
ENDBRANCH  25  26
ENDBRANCH   5  25
BRANCH   5  30
HETATM   30  C   UNL     1     -11.315  12.278  66.802  1.00  0.00    -0.339 C  
HETATM   31  O   UNL     1     -11.934  12.905  67.683  1.00  0.00    -0.352 OA 
BRANCH  30  32
HETATM   32  C   UNL     1     -11.740  12.611  65.357  1.00  0.00    -0.387 C  
BRANCH  32  33
HETATM   33  O   UNL     1     -12.211  11.414  64.679  1.00  0.00     0.137 OA 
BRANCH  33  34
HETATM   34  C   UNL     1     -12.319  11.514  63.321  1.00  0.00     0.039 C  
HETATM   35  O   UNL     1     -11.979  10.629  62.548  1.00  0.00     1.853 OA 
BRANCH  34  36
HETATM   36  C   UNL     1     -12.920  12.845  62.905  1.00  0.00     0.961 C  
HETATM   37  C   UNL     1     -12.101  14.022  63.425  1.00  0.00     0.157 C  
ENDBRANCH  34  36
ENDBRANCH  33  34
ENDBRANCH  32  33
ENDBRANCH  30  32
ENDBRANCH   5  30
TORSDOF 8
ENDMDL
MODEL      136
REMARK 921   NORMALIZED FREE ENERGY PREDICTED BY IDOCK:   28.83 KCAL/MOL
REMARK 922        TOTAL FREE ENERGY PREDICTED BY IDOCK:   42.58 KCAL/MOL
REMARK 923 INTER-LIGAND FREE ENERGY PREDICTED BY IDOCK:   11.33 KCAL/MOL
REMARK 924 INTRA-LIGAND FREE ENERGY PREDICTED BY IDOCK:   31.25 KCAL/MOL
REMARK 927      BINDING AFFINITY PREDICTED BY RF-SCORE:    0.00 PKD
ROOT
HETATM    1  C   UNL     1      -8.368  14.251  69.623  1.00  0.00     0.600 C  
HETATM    2  C   UNL     1      -8.890  15.009  70.699  1.00  0.00     1.721 C  
HETATM    3  C   UNL     1      -9.829  14.605  69.595  1.00  0.00     0.165 C  
HETATM    4  C   UNL     1     -11.368  15.115  70.256  1.00  0.00    -0.315 C  
HETATM    5  C   UNL     1      -9.204  12.986  68.454  1.00  0.00    -0.136 C  
HETATM    6  C   UNL     1      -7.017  17.864  67.083  1.00  0.00    -0.202 C  
HETATM    7 CL   UNL     1      -9.451  17.547  68.949  1.00  0.00    -0.232 Cl 
HETATM    8  C   UNL     1     -10.118  13.349  69.386  1.00  0.00     0.543 C  
HETATM    9  C   UNL     1     -11.012  14.070  67.840  1.00  0.00    -0.261 C  
HETATM   10  C   UNL     1     -10.561  12.405  70.567  1.00  0.00     2.928 C  
HETATM   11  C   UNL     1      -6.021  16.758  67.405  1.00  0.00    -0.190 C  
HETATM   12  O   UNL     1      -5.256  19.494  64.699  1.00  0.00    -0.153 OA 
HETATM   13  C   UNL     1      -6.511  15.908  68.568  1.00  0.00    -0.111 C  
HETATM   14  C   UNL     1      -7.028  17.903  64.410  1.00  0.00     4.265 C  
HETATM   15  C   UNL     1      -7.840  15.233  68.225  1.00  0.00    -0.116 C  
HETATM   16  C   UNL     1     -10.207  15.326  66.953  1.00  0.00    -0.268 C  
HETATM   17  C   UNL     1      -6.172  18.863  65.206  1.00  0.00    -0.281 C  
HETATM   18  C   UNL     1      -8.914  16.258  67.515  1.00  0.00    -0.193 C  
HETATM   19  C   UNL     1      -9.460  18.500  66.320  1.00  0.00    -0.256 C  
HETATM   20  C   UNL     1      -6.533  19.047  66.659  1.00  0.00    -0.202 C  
HETATM   21  O   UNL     1      -9.815  14.718  65.707  1.00  0.00    -0.317 OA 
HETATM   22  H   UNL     1      -9.374  15.406  65.221  1.00  0.00     0.000 HD 
HETATM   23  C   UNL     1      -8.354  17.364  66.470  1.00  0.00    -0.308 C  
HETATM   24  C   UNL     1      -7.996  17.150  64.992  1.00  0.00     3.633 C  
ENDROOT
BRANCH   5  25
HETATM   25  O   UNL     1      -8.203  12.041  69.130  1.00  0.00     0.165 OA 
BRANCH  25  26
HETATM   26  C   UNL     1      -6.955  11.875  68.585  1.00  0.00    -0.095 C  
HETATM   27  O   UNL     1      -6.046  12.680  68.719  1.00  0.00    -0.063 OA 
BRANCH  26  28
HETATM   28  C   UNL     1      -6.892  10.593  67.780  1.00  0.00    -0.073 C  
HETATM   29  C   UNL     1      -7.400   9.369  68.530  1.00  0.00    -0.079 C  
ENDBRANCH  26  28
ENDBRANCH  25  26
ENDBRANCH   5  25
BRANCH   5  30
HETATM   30  C   UNL     1     -10.137  11.609  67.970  1.00  0.00    -0.189 C  
HETATM   31  O   UNL     1     -11.129  11.152  68.572  1.00  0.00    -0.204 OA 
BRANCH  30  32
HETATM   32  C   UNL     1      -9.799  10.891  66.649  1.00  0.00    -0.198 C  
BRANCH  32  33
HETATM   33  O   UNL     1      -8.767  11.616  65.926  1.00  0.00    -0.127 OA 
BRANCH  33  34
HETATM   34  C   UNL     1      -8.327  12.762  66.525  1.00  0.00     0.236 C  
HETATM   35  O   UNL     1      -9.071  13.586  67.036  1.00  0.00    -0.228 OA 
BRANCH  34  36
HETATM   36  C   UNL     1      -6.813  12.868  66.484  1.00  0.00     1.549 C  
HETATM   37  C   UNL     1      -6.169  11.581  65.978  1.00  0.00     0.323 C  
ENDBRANCH  34  36
ENDBRANCH  33  34
ENDBRANCH  32  33
ENDBRANCH  30  32
ENDBRANCH   5  30
TORSDOF 8
ENDMDL
MODEL      137
REMARK 921   NORMALIZED FREE ENERGY PREDICTED BY IDOCK:   44.02 KCAL/MOL
REMARK 922        TOTAL FREE ENERGY PREDICTED BY IDOCK:   64.87 KCAL/MOL
REMARK 923 INTER-LIGAND FREE ENERGY PREDICTED BY IDOCK:   32.87 KCAL/MOL
REMARK 924 INTRA-LIGAND FREE ENERGY PREDICTED BY IDOCK:   32.00 KCAL/MOL
REMARK 927      BINDING AFFINITY PREDICTED BY RF-SCORE:    0.00 PKD
ROOT
HETATM    1  C   UNL     1      -9.999  15.020  67.636  1.00  0.00    -0.225 C  
HETATM    2  C   UNL     1     -10.884  15.933  67.011  1.00  0.00    -0.252 C  
HETATM    3  C   UNL     1      -9.983  16.450  68.100  1.00  0.00    -0.242 C  
HETATM    4  C   UNL     1     -10.286  18.172  68.000  1.00  0.00    -0.392 C  
HETATM    5  C   UNL     1      -8.302  15.291  68.478  1.00  0.00    -0.152 C  
HETATM    6  C   UNL     1     -12.977  13.571  70.855  1.00  0.00    -0.224 C  
HETATM    7 CL   UNL     1     -12.635  16.355  69.574  1.00  0.00     0.971 Cl 
HETATM    8  C   UNL     1      -8.687  16.475  67.944  1.00  0.00    -0.188 C  
HETATM    9  C   UNL     1      -8.725  16.995  69.797  1.00  0.00     1.103 C  
HETATM   10  C   UNL     1      -8.032  17.084  66.647  1.00  0.00    -0.302 C  
HETATM   11  C   UNL     1     -12.266  12.551  69.976  1.00  0.00    -0.262 C  
HETATM   12  O   UNL     1     -14.244  11.477  73.190  1.00  0.00     1.547 OA 
HETATM   13  C   UNL     1     -11.682  13.214  68.737  1.00  0.00    -0.363 C  
HETATM   14  C   UNL     1     -12.270  12.834  73.325  1.00  0.00     4.846 C  
HETATM   15  C   UNL     1     -10.649  14.274  69.124  1.00  0.00    -0.201 C  
HETATM   16  C   UNL     1      -9.836  16.173  70.846  1.00  0.00     1.926 C  
HETATM   17  C   UNL     1     -13.584  12.393  72.719  1.00  0.00     0.754 C  
HETATM   18  C   UNL     1     -11.160  15.247  70.350  1.00  0.00    -0.324 C  
HETATM   19  C   UNL     1     -12.793  15.767  72.303  1.00  0.00    -0.525 C  
HETATM   20  C   UNL     1     -14.075  13.172  71.525  1.00  0.00     0.647 C  
HETATM   21  O   UNL     1      -9.014  15.358  71.705  1.00  0.00     3.081 OA 
HETATM   22  H   UNL     1      -9.623  14.907  72.279  1.00  0.00     0.000 HD 
HETATM   23  C   UNL     1     -12.031  14.589  71.549  1.00  0.00    -0.362 C  
HETATM   24  C   UNL     1     -11.505  13.802  72.757  1.00  0.00     2.906 C  
ENDROOT
BRANCH   5  25
HETATM   25  O   UNL     1      -7.840  14.390  67.327  1.00  0.00    -0.195 OA 
BRANCH  25  26
HETATM   26  C   UNL     1      -7.554  14.945  66.106  1.00  0.00     2.388 C  
HETATM   27  O   UNL     1      -7.891  16.075  65.781  1.00  0.00     0.633 OA 
BRANCH  26  28
HETATM   28  C   UNL     1      -6.810  13.957  65.232  1.00  0.00    11.805 C  
HETATM   29  C   UNL     1      -7.420  12.562  65.222  1.00  0.00     4.348 C  
ENDBRANCH  26  28
ENDBRANCH  25  26
ENDBRANCH   5  25
BRANCH   5  30
HETATM   30  C   UNL     1      -6.667  15.830  68.677  1.00  0.00    -0.117 C  
HETATM   31  O   UNL     1      -6.314  16.963  69.060  1.00  0.00    -0.171 OA 
BRANCH  30  32
HETATM   32  C   UNL     1      -5.509  14.840  68.444  1.00  0.00    -0.111 C  
BRANCH  32  33
HETATM   33  O   UNL     1      -5.967  13.471  68.622  1.00  0.00    -0.078 OA 
BRANCH  33  34
HETATM   34  C   UNL     1      -6.812  13.006  67.656  1.00  0.00    -0.154 C  
HETATM   35  O   UNL     1      -6.889  13.488  66.535  1.00  0.00     0.995 OA 
BRANCH  34  36
HETATM   36  C   UNL     1      -7.622  11.819  68.147  1.00  0.00    -0.117 C  
HETATM   37  C   UNL     1      -7.026  11.212  69.413  1.00  0.00    -0.124 C  
ENDBRANCH  34  36
ENDBRANCH  33  34
ENDBRANCH  32  33
ENDBRANCH  30  32
ENDBRANCH   5  30
TORSDOF 8
ENDMDL
MODEL      138
REMARK 921   NORMALIZED FREE ENERGY PREDICTED BY IDOCK:   58.11 KCAL/MOL
REMARK 922        TOTAL FREE ENERGY PREDICTED BY IDOCK:   85.55 KCAL/MOL
REMARK 923 INTER-LIGAND FREE ENERGY PREDICTED BY IDOCK:    5.33 KCAL/MOL
REMARK 924 INTRA-LIGAND FREE ENERGY PREDICTED BY IDOCK:   80.22 KCAL/MOL
REMARK 927      BINDING AFFINITY PREDICTED BY RF-SCORE:    0.00 PKD
ROOT
HETATM    1  C   UNL     1      -9.078  12.056  64.695  1.00  0.00     0.525 C  
HETATM    2  C   UNL     1      -9.603  12.424  63.432  1.00  0.00     0.446 C  
HETATM    3  C   UNL     1     -10.505  11.696  64.391  1.00  0.00    -0.374 C  
HETATM    4  C   UNL     1     -12.038  11.789  63.549  1.00  0.00    -0.485 C  
HETATM    5  C   UNL     1      -9.936  11.795  66.386  1.00  0.00    -0.211 C  
HETATM    6  C   UNL     1      -7.329   8.003  63.339  1.00  0.00    -0.107 C  
HETATM    7 CL   UNL     1      -9.880   9.472  62.422  1.00  0.00     0.622 Cl 
HETATM    8  C   UNL     1     -10.873  12.246  65.517  1.00  0.00    -0.319 C  
HETATM    9  C   UNL     1     -11.624  10.502  65.835  1.00  0.00     1.478 C  
HETATM   10  C   UNL     1     -11.448  13.712  65.561  1.00  0.00    -0.317 C  
HETATM   11  C   UNL     1      -6.435   9.003  64.060  1.00  0.00    -0.087 C  
HETATM   12  O   UNL     1      -5.323   5.283  63.493  1.00  0.00    -0.012 OA 
HETATM   13  C   UNL     1      -7.050  10.394  64.038  1.00  0.00     0.025 C  
HETATM   14  C   UNL     1      -7.187   5.836  64.898  1.00  0.00    -0.066 C  
HETATM   15  C   UNL     1      -8.403  10.402  64.752  1.00  0.00    -0.157 C  
HETATM   16  C   UNL     1     -10.682   9.119  65.375  1.00  0.00     2.408 C  
HETATM   17  C   UNL     1      -6.310   5.982  63.675  1.00  0.00    -0.029 C  
HETATM   18  C   UNL     1      -9.358   9.132  64.324  1.00  0.00     0.302 C  
HETATM   19  C   UNL     1      -9.673   6.800  63.222  1.00  0.00     3.808 C  
HETATM   20  C   UNL     1      -6.738   7.006  62.653  1.00  0.00    -0.052 C  
HETATM   21  O   UNL     1     -10.266   8.514  66.615  1.00  0.00    -0.288 OA 
HETATM   22  H   UNL     1      -9.750   7.757  66.363  1.00  0.00     0.000 HD 
HETATM   23  C   UNL     1      -8.662   7.690  64.073  1.00  0.00     0.575 C  
HETATM   24  C   UNL     1      -8.239   6.663  65.133  1.00  0.00    -0.118 C  
ENDROOT
BRANCH   5  25
HETATM   25  O   UNL     1      -9.046  12.982  66.767  1.00  0.00    -0.230 OA 
BRANCH  25  26
HETATM   26  C   UNL     1      -7.731  12.766  67.093  1.00  0.00    -0.067 C  
HETATM   27  O   UNL     1      -7.103  11.776  66.748  1.00  0.00    -0.126 OA 
BRANCH  26  28
HETATM   28  C   UNL     1      -7.204  13.894  67.956  1.00  0.00    -0.141 C  
HETATM   29  C   UNL     1      -8.224  14.990  68.230  1.00  0.00    -0.146 C  
ENDBRANCH  26  28
ENDBRANCH  25  26
ENDBRANCH   5  25
BRANCH   5  30
HETATM   30  C   UNL     1     -10.938  12.139  67.757  1.00  0.00    -0.233 C  
HETATM   31  O   UNL     1     -11.593  11.303  68.410  1.00  0.00    -0.280 OA 
BRANCH  30  32
HETATM   32  C   UNL     1     -11.004  13.579  68.304  1.00  0.00    -0.258 C  
BRANCH  32  33
HETATM   33  O   UNL     1     -10.087  14.441  67.578  1.00  0.00    -0.230 OA 
BRANCH  33  34
HETATM   34  C   UNL     1      -9.347  13.827  66.608  1.00  0.00    -0.264 C  
HETATM   35  O   UNL     1      -9.188  14.286  65.486  1.00  0.00     0.133 OA 
BRANCH  34  36
HETATM   36  C   UNL     1      -8.748  12.523  67.105  1.00  0.00    -0.200 C  
HETATM   37  C   UNL     1      -9.528  11.956  68.286  1.00  0.00    -0.197 C  
ENDBRANCH  34  36
ENDBRANCH  33  34
ENDBRANCH  32  33
ENDBRANCH  30  32
ENDBRANCH   5  30
TORSDOF 8
ENDMDL
MODEL      139
REMARK 921   NORMALIZED FREE ENERGY PREDICTED BY IDOCK:   66.78 KCAL/MOL
REMARK 922        TOTAL FREE ENERGY PREDICTED BY IDOCK:   98.27 KCAL/MOL
REMARK 923 INTER-LIGAND FREE ENERGY PREDICTED BY IDOCK:   38.37 KCAL/MOL
REMARK 924 INTRA-LIGAND FREE ENERGY PREDICTED BY IDOCK:   59.90 KCAL/MOL
REMARK 927      BINDING AFFINITY PREDICTED BY RF-SCORE:    0.00 PKD
ROOT
HETATM    1  C   UNL     1      -7.805   9.431  65.954  1.00  0.00    -0.099 C  
HETATM    2  C   UNL     1      -6.654   9.335  66.772  1.00  0.00    -0.068 C  
HETATM    3  C   UNL     1      -7.980   8.941  67.364  1.00  0.00    -0.101 C  
HETATM    4  C   UNL     1      -7.478   8.272  68.903  1.00  0.00    -0.092 C  
HETATM    5  C   UNL     1      -9.453   8.457  65.982  1.00  0.00    -0.154 C  
HETATM    6  C   UNL     1      -8.739  13.847  66.931  1.00  0.00    -0.177 C  
HETATM    7 CL   UNL     1      -7.551  11.627  68.711  1.00  0.00    -0.131 Cl 
HETATM    8  C   UNL     1      -8.636   7.906  66.912  1.00  0.00    -0.130 C  
HETATM    9  C   UNL     1      -9.996   8.559  68.108  1.00  0.00    -0.214 C  
HETATM   10  C   UNL     1      -7.928   6.513  66.713  1.00  0.00    -0.108 C  
HETATM   11  C   UNL     1      -8.621  13.409  65.478  1.00  0.00     1.962 C  
HETATM   12  O   UNL     1     -10.101  16.908  66.458  1.00  0.00    -0.290 OA 
HETATM   13  C   UNL     1      -7.907  12.069  65.371  1.00  0.00     1.740 C  
HETATM   14  C   UNL     1     -11.208  14.865  67.053  1.00  0.00    -0.344 C  
HETATM   15  C   UNL     1      -8.687  10.979  66.109  1.00  0.00    -0.188 C  
HETATM   16  C   UNL     1     -10.264  10.273  68.169  1.00  0.00    -0.164 C  
HETATM   17  C   UNL     1     -10.002  15.753  66.850  1.00  0.00    -0.243 C  
HETATM   18  C   UNL     1      -9.205  11.458  67.596  1.00  0.00    -0.158 C  
HETATM   19  C   UNL     1      -9.681  13.327  69.338  1.00  0.00     0.856 C  
HETATM   20  C   UNL     1      -8.659  15.164  67.203  1.00  0.00    -0.247 C  
HETATM   21  O   UNL     1     -11.548  10.479  67.548  1.00  0.00    -0.561 OA 
HETATM   22  H   UNL     1     -11.695  11.417  67.581  1.00  0.00     0.000 HD 
HETATM   23  C   UNL     1      -9.713  12.987  67.783  1.00  0.00    -0.218 C  
HETATM   24  C   UNL     1     -11.089  13.561  67.417  1.00  0.00    -0.300 C  
ENDROOT
BRANCH   5  25
HETATM   25  O   UNL     1      -8.954   8.014  64.603  1.00  0.00     0.246 OA 
BRANCH  25  26
HETATM   26  C   UNL     1      -7.865   7.183  64.511  1.00  0.00    -0.121 C  
HETATM   27  O   UNL     1      -6.853   7.462  63.885  1.00  0.00    -0.053 OA 
BRANCH  26  28
HETATM   28  C   UNL     1      -8.120   5.888  65.254  1.00  0.00    -0.133 C  
HETATM   29  C   UNL     1      -9.189   5.995  66.333  1.00  0.00    -0.163 C  
ENDBRANCH  26  28
ENDBRANCH  25  26
ENDBRANCH   5  25
BRANCH   5  30
HETATM   30  C   UNL     1     -10.520   7.093  66.006  1.00  0.00     1.105 C  
HETATM   31  O   UNL     1     -11.630   7.044  66.572  1.00  0.00     0.805 OA 
BRANCH  30  32
HETATM   32  C   UNL     1     -10.147   5.825  65.213  1.00  0.00     0.951 C  
BRANCH  32  33
HETATM   33  O   UNL     1      -9.494   6.181  63.964  1.00  0.00     1.272 OA 
BRANCH  33  34
HETATM   34  C   UNL     1      -9.652   7.478  63.568  1.00  0.00     3.771 C  
HETATM   35  O   UNL     1      -8.718   8.231  63.329  1.00  0.00     0.065 OA 
BRANCH  34  36
HETATM   36  C   UNL     1     -11.119   7.853  63.456  1.00  0.00    16.300 C  
HETATM   37  C   UNL     1     -11.940   6.739  62.817  1.00  0.00    13.757 C  
ENDBRANCH  34  36
ENDBRANCH  33  34
ENDBRANCH  32  33
ENDBRANCH  30  32
ENDBRANCH   5  30
TORSDOF 8
ENDMDL
MODEL      140
REMARK 921   NORMALIZED FREE ENERGY PREDICTED BY IDOCK:   68.55 KCAL/MOL
REMARK 922        TOTAL FREE ENERGY PREDICTED BY IDOCK:  100.88 KCAL/MOL
REMARK 923 INTER-LIGAND FREE ENERGY PREDICTED BY IDOCK:   70.16 KCAL/MOL
REMARK 924 INTRA-LIGAND FREE ENERGY PREDICTED BY IDOCK:   30.72 KCAL/MOL
REMARK 927      BINDING AFFINITY PREDICTED BY RF-SCORE:    0.00 PKD
ROOT
HETATM    1  C   UNL     1     -10.085   9.786  70.973  1.00  0.00    -0.048 C  
HETATM    2  C   UNL     1     -10.645   8.579  71.459  1.00  0.00    -0.333 C  
HETATM    3  C   UNL     1      -9.146   8.680  71.367  1.00  0.00    -0.295 C  
HETATM    4  C   UNL     1      -8.658   7.197  72.161  1.00  0.00    -0.120 C  
HETATM    5  C   UNL     1      -8.394  10.615  71.315  1.00  0.00     4.626 C  
HETATM    6  C   UNL     1     -10.232   8.634  66.503  1.00  0.00    -0.295 C  
HETATM    7 CL   UNL     1      -9.726   6.883  68.990  1.00  0.00    -0.150 Cl 
HETATM    8  C   UNL     1      -8.483   9.522  72.111  1.00  0.00     1.663 C  
HETATM    9  C   UNL     1      -7.006   8.938  71.023  1.00  0.00    -0.085 C  
HETATM   10  C   UNL     1      -8.732   9.611  73.664  1.00  0.00     4.701 C  
HETATM   11  C   UNL     1     -10.855   9.945  66.961  1.00  0.00    -0.186 C  
HETATM   12  O   UNL     1     -10.260   9.165  63.162  1.00  0.00     2.670 OA 
HETATM   13  C   UNL     1     -11.083   9.942  68.466  1.00  0.00    -0.181 C  
HETATM   14  C   UNL     1      -8.431   9.424  64.692  1.00  0.00    -0.179 C  
HETATM   15  C   UNL     1      -9.759   9.785  69.215  1.00  0.00    -0.204 C  
HETATM   16  C   UNL     1      -7.287   8.734  69.322  1.00  0.00    -0.070 C  
HETATM   17  C   UNL     1      -9.806   8.951  64.278  1.00  0.00     2.001 C  
HETATM   18  C   UNL     1      -8.800   8.609  68.580  1.00  0.00    -0.142 C  
HETATM   19  C   UNL     1      -8.190   6.972  66.655  1.00  0.00    -0.112 C  
HETATM   20  C   UNL     1     -10.584   8.155  65.295  1.00  0.00     4.198 C  
HETATM   21  O   UNL     1      -6.561   9.804  68.687  1.00  0.00    -0.050 OA 
HETATM   22  H   UNL     1      -6.714   9.692  67.756  1.00  0.00     0.000 HD 
HETATM   23  C   UNL     1      -8.765   8.424  66.969  1.00  0.00    -0.132 C  
HETATM   24  C   UNL     1      -7.960   9.249  65.955  1.00  0.00    -0.106 C  
ENDROOT
BRANCH   5  25
HETATM   25  O   UNL     1      -9.300  11.698  71.910  1.00  0.00    12.204 OA 
BRANCH  25  26
HETATM   26  C   UNL     1      -9.302  12.956  71.361  1.00  0.00    14.274 C  
HETATM   27  O   UNL     1      -8.458  13.350  70.570  1.00  0.00     3.745 OA 
BRANCH  26  28
HETATM   28  C   UNL     1     -10.459  13.771  71.902  1.00  0.00     6.018 C  
HETATM   29  C   UNL     1     -11.796  13.456  71.244  1.00  0.00     0.493 C  
ENDBRANCH  26  28
ENDBRANCH  25  26
ENDBRANCH   5  25
BRANCH   5  30
HETATM   30  C   UNL     1      -7.068  11.260  72.225  1.00  0.00     7.354 C  
HETATM   31  O   UNL     1      -7.151  11.822  73.335  1.00  0.00     7.888 OA 
BRANCH  30  32
HETATM   32  C   UNL     1      -5.631  11.087  71.697  1.00  0.00     0.324 C  
BRANCH  32  33
HETATM   33  O   UNL     1      -5.625  11.051  70.244  1.00  0.00    -0.076 OA 
BRANCH  33  34
HETATM   34  C   UNL     1      -6.677  11.674  69.637  1.00  0.00    -0.059 C  
HETATM   35  O   UNL     1      -7.309  12.587  70.149  1.00  0.00     0.948 OA 
BRANCH  34  36
HETATM   36  C   UNL     1      -6.947  11.100  68.258  1.00  0.00    -0.070 C  
HETATM   37  C   UNL     1      -6.174   9.806  68.022  1.00  0.00    -0.055 C  
ENDBRANCH  34  36
ENDBRANCH  33  34
ENDBRANCH  32  33
ENDBRANCH  30  32
ENDBRANCH   5  30
TORSDOF 8
ENDMDL
MODEL      141
REMARK 921   NORMALIZED FREE ENERGY PREDICTED BY IDOCK:   74.51 KCAL/MOL
REMARK 922        TOTAL FREE ENERGY PREDICTED BY IDOCK:  109.62 KCAL/MOL
REMARK 923 INTER-LIGAND FREE ENERGY PREDICTED BY IDOCK:  106.56 KCAL/MOL
REMARK 924 INTRA-LIGAND FREE ENERGY PREDICTED BY IDOCK:    3.06 KCAL/MOL
REMARK 927      BINDING AFFINITY PREDICTED BY RF-SCORE:    0.00 PKD
ROOT
HETATM    1  C   UNL     1     -11.479  12.838  67.378  1.00  0.00    -0.396 C  
HETATM    2  C   UNL     1     -12.618  12.506  68.150  1.00  0.00     1.167 C  
HETATM    3  C   UNL     1     -12.183  13.946  68.110  1.00  0.00    -0.185 C  
HETATM    4  C   UNL     1     -13.507  14.723  68.953  1.00  0.00     3.386 C  
HETATM    5  C   UNL     1     -10.992  14.462  66.489  1.00  0.00    -0.316 C  
HETATM    6  C   UNL     1      -8.377  12.047  70.706  1.00  0.00     7.210 C  
HETATM    7 CL   UNL     1     -11.245  13.164  70.889  1.00  0.00     1.365 Cl 
HETATM    8  C   UNL     1     -12.235  14.632  67.000  1.00  0.00    -0.104 C  
HETATM    9  C   UNL     1     -11.326  15.953  68.066  1.00  0.00    -0.284 C  
HETATM   10  C   UNL     1     -13.534  14.648  66.109  1.00  0.00     2.147 C  
HETATM   11  C   UNL     1      -8.212  11.374  69.351  1.00  0.00     0.359 C  
HETATM   12  O   UNL     1      -5.326  11.384  72.009  1.00  0.00    -0.333 OA 
HETATM   13  C   UNL     1      -9.514  11.411  68.564  1.00  0.00    -0.183 C  
HETATM   14  C   UNL     1      -6.094  13.411  70.981  1.00  0.00     0.188 C  
HETATM   15  C   UNL     1      -9.948  12.854  68.301  1.00  0.00    -0.234 C  
HETATM   16  C   UNL     1     -10.072  15.407  69.134  1.00  0.00    -0.235 C  
HETATM   17  C   UNL     1      -6.273  12.045  71.604  1.00  0.00     2.219 C  
HETATM   18  C   UNL     1      -9.827  13.811  69.634  1.00  0.00     0.910 C  
HETATM   19  C   UNL     1      -8.940  14.254  72.036  1.00  0.00     7.871 C  
HETATM   20  C   UNL     1      -7.689  11.546  71.750  1.00  0.00     9.753 C  
HETATM   21  O   UNL     1      -8.844  15.891  68.555  1.00  0.00    -0.180 OA 
HETATM   22  H   UNL     1      -8.157  15.592  69.140  1.00  0.00     0.000 HD 
HETATM   23  C   UNL     1      -8.573  13.587  70.637  1.00  0.00     5.446 C  
HETATM   24  C   UNL     1      -7.140  14.109  70.466  1.00  0.00     0.706 C  
ENDROOT
BRANCH   5  25
HETATM   25  O   UNL     1     -11.116  13.560  65.256  1.00  0.00    -0.289 OA 
BRANCH  25  26
HETATM   26  C   UNL     1     -10.024  13.360  64.450  1.00  0.00     0.070 C  
HETATM   27  O   UNL     1      -8.881  13.650  64.775  1.00  0.00     2.006 OA 
BRANCH  26  28
HETATM   28  C   UNL     1     -10.445  12.778  63.117  1.00  0.00     0.660 C  
HETATM   29  C   UNL     1      -9.306  12.136  62.336  1.00  0.00     1.834 C  
ENDBRANCH  26  28
ENDBRANCH  25  26
ENDBRANCH   5  25
BRANCH   5  30
HETATM   30  C   UNL     1     -11.148  15.847  65.459  1.00  0.00    -0.146 C  
HETATM   31  O   UNL     1     -10.679  15.957  64.309  1.00  0.00    -0.276 OA 
BRANCH  30  32
HETATM   32  C   UNL     1     -11.991  17.049  65.927  1.00  0.00     2.794 C  
BRANCH  32  33
HETATM   33  O   UNL     1     -11.528  18.272  65.293  1.00  0.00     0.499 OA 
BRANCH  33  34
HETATM   34  C   UNL     1     -12.057  18.532  64.061  1.00  0.00     9.905 C  
HETATM   35  O   UNL     1     -13.243  18.401  63.794  1.00  0.00    14.365 OA 
BRANCH  34  36
HETATM   36  C   UNL     1     -10.994  19.007  63.086  1.00  0.00    16.588 C  
HETATM   37  C   UNL     1      -9.676  18.265  63.279  1.00  0.00    18.274 C  
ENDBRANCH  34  36
ENDBRANCH  33  34
ENDBRANCH  32  33
ENDBRANCH  30  32
ENDBRANCH   5  30
TORSDOF 8
ENDMDL
