MODEL        1
REMARK 921   NORMALIZED FREE ENERGY PREDICTED BY IDOCK:   -7.40 KCAL/MOL
REMARK 922        TOTAL FREE ENERGY PREDICTED BY IDOCK:   -9.48 KCAL/MOL
REMARK 923 INTER-LIGAND FREE ENERGY PREDICTED BY IDOCK:   -8.70 KCAL/MOL
REMARK 924 INTRA-LIGAND FREE ENERGY PREDICTED BY IDOCK:   -0.78 KCAL/MOL
REMARK 927      BINDING AFFINITY PREDICTED BY RF-SCORE:    0.00 PKD
ROOT
HETATM    1  C   UNL     1     -10.826  12.414  63.968  1.00  0.00    -0.397 C  
HETATM    2  O   UNL     1      -9.849  11.902  64.864  1.00  0.00    -0.248 OA 
ENDROOT
BRANCH   2   3
HETATM    3  C   UNL     1     -10.243  11.834  66.180  1.00  0.00    -0.220 A  
HETATM    4  N   UNL     1     -10.512  13.004  66.823  1.00  0.00    -0.258 NA 
HETATM    5  C   UNL     1     -11.079  12.954  68.038  1.00  0.00    -0.253 A  
HETATM    6  C   UNL     1     -11.476  11.734  68.614  1.00  0.00    -0.346 A  
HETATM    7  C   UNL     1     -12.125  11.675  69.855  1.00  0.00    -0.373 A  
HETATM    8  C   UNL     1     -11.176  10.561  67.930  1.00  0.00    -0.358 A  
HETATM    9  C   UNL     1     -12.378  12.846  70.553  1.00  0.00    -0.283 A  
HETATM   10  C   UNL     1     -10.442  10.564  66.736  1.00  0.00    -0.302 A  
HETATM   11  C   UNL     1     -11.954  14.064  70.035  1.00  0.00    -0.404 A  
HETATM   12 BR   UNL     1     -13.311  12.770  72.193  1.00  0.00    -0.489 Br 
HETATM   13  C   UNL     1      -9.906   9.229  66.127  1.00  0.00    -0.363 C  
HETATM   14  C   UNL     1     -11.307  14.105  68.791  1.00  0.00    -0.308 A  
HETATM   15  C   UNL     1      -8.692   9.417  65.190  1.00  0.00    -0.210 A  
HETATM   16  C   UNL     1      -9.856   7.938  67.155  1.00  0.00    -0.208 C  
HETATM   17  O   UNL     1     -11.271   7.592  67.387  1.00  0.00    -0.522 OA 
HETATM   18  C   UNL     1      -9.337   6.618  66.485  1.00  0.00    -0.191 C  
HETATM   19  C   UNL     1      -9.297   8.146  68.612  1.00  0.00    -0.143 A  
HETATM   20  C   UNL     1      -7.436   9.876  65.618  1.00  0.00    -0.116 A  
HETATM   21  C   UNL     1      -9.531   6.891  72.173  1.00  0.00    -0.148 A  
HETATM   22  C   UNL     1      -8.571   9.318  68.913  1.00  0.00    -0.130 A  
HETATM   23  C   UNL     1      -6.433  10.216  64.705  1.00  0.00    -0.125 A  
HETATM   24  H   UNL     1     -11.242   6.849  67.978  1.00  0.00     0.000 HD 
HETATM   25  C   UNL     1      -8.231   9.699  70.209  1.00  0.00    -0.217 A  
HETATM   26  C   UNL     1     -10.220   5.692  72.050  1.00  0.00    -0.252 A  
HETATM   27  C   UNL     1      -6.655  10.085  63.340  1.00  0.00    -0.135 A  
HETATM   28  C   UNL     1      -8.564   8.882  71.269  1.00  0.00    -0.259 A  
HETATM   29  C   UNL     1      -7.868   9.580  62.887  1.00  0.00    -0.124 A  
HETATM   30  C   UNL     1     -10.638   5.279  70.799  1.00  0.00    -0.256 A  
HETATM   31  C   UNL     1     -10.355   6.066  69.674  1.00  0.00    -0.294 A  
HETATM   32  C   UNL     1      -8.874   9.245  63.800  1.00  0.00    -0.150 A  
HETATM   33  C   UNL     1      -9.230   7.678  71.048  1.00  0.00    -0.152 A  
HETATM   34  C   UNL     1      -9.622   7.282  69.730  1.00  0.00    -0.162 A  
BRANCH  18  35
HETATM   35  C   UNL     1      -7.860   6.487  66.104  1.00  0.00    -0.106 C  
BRANCH  35  36
HETATM   36  N   UNL     1      -7.664   5.884  64.760  1.00  0.00    -0.092 NA 
HETATM   37  C   UNL     1      -7.723   4.419  64.775  1.00  0.00    -0.078 C  
HETATM   38  C   UNL     1      -6.364   6.300  64.221  1.00  0.00    -0.030 C  
ENDBRANCH  35  36
ENDBRANCH  18  35
ENDBRANCH   2   3
TORSDOF 3
ENDMDL
MODEL        2
REMARK 921   NORMALIZED FREE ENERGY PREDICTED BY IDOCK:   -7.40 KCAL/MOL
REMARK 922        TOTAL FREE ENERGY PREDICTED BY IDOCK:   -9.48 KCAL/MOL
REMARK 923 INTER-LIGAND FREE ENERGY PREDICTED BY IDOCK:   -8.74 KCAL/MOL
REMARK 924 INTRA-LIGAND FREE ENERGY PREDICTED BY IDOCK:   -0.73 KCAL/MOL
REMARK 927      BINDING AFFINITY PREDICTED BY RF-SCORE:    0.00 PKD
ROOT
HETATM    1  C   UNL     1     -12.893  12.424  71.517  1.00  0.00    -0.274 C  
HETATM    2  O   UNL     1     -12.100  12.608  70.353  1.00  0.00    -0.364 OA 
ENDROOT
BRANCH   2   3
HETATM    3  C   UNL     1     -11.545  11.460  69.836  1.00  0.00    -0.323 A  
HETATM    4  N   UNL     1     -11.318  10.426  70.692  1.00  0.00    -0.334 NA 
HETATM    5  C   UNL     1     -10.960   9.237  70.183  1.00  0.00    -0.246 A  
HETATM    6  C   UNL     1     -10.905   9.019  68.794  1.00  0.00    -0.067 A  
HETATM    7  C   UNL     1     -10.593   7.765  68.251  1.00  0.00    -0.169 A  
HETATM    8  C   UNL     1     -11.136  10.103  67.954  1.00  0.00    -0.303 A  
HETATM    9  C   UNL     1     -10.317   6.701  69.096  1.00  0.00    -0.194 A  
HETATM   10  C   UNL     1     -11.353  11.395  68.451  1.00  0.00    -0.346 A  
HETATM   11  C   UNL     1     -10.315   6.894  70.472  1.00  0.00    -0.224 A  
HETATM   12 BR   UNL     1      -9.963   4.997  68.364  1.00  0.00    -0.176 Br 
HETATM   13  C   UNL     1     -11.358  12.628  67.491  1.00  0.00    -0.361 C  
HETATM   14  C   UNL     1     -10.631   8.156  70.999  1.00  0.00    -0.242 A  
HETATM   15  C   UNL     1     -11.040  13.965  68.194  1.00  0.00    -0.278 A  
HETATM   16  C   UNL     1     -10.669  12.388  66.009  1.00  0.00    -0.261 C  
HETATM   17  O   UNL     1     -11.599  11.482  65.308  1.00  0.00    -0.117 OA 
HETATM   18  C   UNL     1     -10.727  13.647  65.076  1.00  0.00    -0.374 C  
HETATM   19  C   UNL     1      -9.296  11.624  65.922  1.00  0.00    -0.232 A  
HETATM   20  C   UNL     1      -9.801  14.267  68.782  1.00  0.00    -0.189 A  
HETATM   21  C   UNL     1      -7.178   9.404  63.708  1.00  0.00    -0.102 A  
HETATM   22  C   UNL     1      -8.533  11.437  67.095  1.00  0.00    -0.153 A  
HETATM   23  C   UNL     1      -9.627  15.405  69.575  1.00  0.00    -0.259 A  
HETATM   24  H   UNL     1     -11.203  11.345  64.456  1.00  0.00     0.000 HD 
HETATM   25  C   UNL     1      -7.428  10.593  67.166  1.00  0.00    -0.099 A  
HETATM   26  C   UNL     1      -7.797   9.496  62.469  1.00  0.00    -0.119 A  
HETATM   27  C   UNL     1     -10.683  16.282  69.783  1.00  0.00    -0.345 A  
HETATM   28  C   UNL     1      -7.003   9.929  66.034  1.00  0.00    -0.104 A  
HETATM   29  C   UNL     1     -11.906  16.041  69.169  1.00  0.00    -0.268 A  
HETATM   30  C   UNL     1      -8.933  10.273  62.338  1.00  0.00    -0.288 A  
HETATM   31  C   UNL     1      -9.438  10.964  63.449  1.00  0.00    -0.339 A  
HETATM   32  C   UNL     1     -12.084  14.899  68.380  1.00  0.00    -0.167 A  
HETATM   33  C   UNL     1      -7.669  10.105  64.823  1.00  0.00    -0.141 A  
HETATM   34  C   UNL     1      -8.828  10.940  64.732  1.00  0.00    -0.111 A  
BRANCH  18  35
HETATM   35  C   UNL     1      -9.852  14.865  65.385  1.00  0.00    -0.268 C  
BRANCH  35  36
HETATM   36  N   UNL     1     -10.485  16.146  64.975  1.00  0.00    -0.615 NA 
HETATM   37  C   UNL     1     -10.426  17.175  66.018  1.00  0.00    -0.266 C  
HETATM   38  C   UNL     1     -11.890  15.908  64.624  1.00  0.00    -0.027 C  
ENDBRANCH  35  36
ENDBRANCH  18  35
ENDBRANCH   2   3
TORSDOF 3
ENDMDL
MODEL        3
REMARK 921   NORMALIZED FREE ENERGY PREDICTED BY IDOCK:   -7.17 KCAL/MOL
REMARK 922        TOTAL FREE ENERGY PREDICTED BY IDOCK:   -9.20 KCAL/MOL
REMARK 923 INTER-LIGAND FREE ENERGY PREDICTED BY IDOCK:   -8.47 KCAL/MOL
REMARK 924 INTRA-LIGAND FREE ENERGY PREDICTED BY IDOCK:   -0.73 KCAL/MOL
REMARK 927      BINDING AFFINITY PREDICTED BY RF-SCORE:    0.00 PKD
ROOT
HETATM    1  C   UNL     1      -5.158  11.130  71.163  1.00  0.00    -0.111 C  
HETATM    2  O   UNL     1      -6.168  10.907  70.190  1.00  0.00    -0.114 OA 
ENDROOT
BRANCH   2   3
HETATM    3  C   UNL     1      -6.621  12.037  69.549  1.00  0.00    -0.079 A  
HETATM    4  N   UNL     1      -6.255  13.245  70.061  1.00  0.00    -0.115 NA 
HETATM    5  C   UNL     1      -6.521  14.351  69.350  1.00  0.00    -0.132 A  
HETATM    6  C   UNL     1      -7.082  14.280  68.062  1.00  0.00    -0.145 A  
HETATM    7  C   UNL     1      -7.308  15.424  67.285  1.00  0.00    -0.239 A  
HETATM    8  C   UNL     1      -7.449  13.028  67.578  1.00  0.00    -0.158 A  
HETATM    9  C   UNL     1      -6.983  16.673  67.793  1.00  0.00    -0.136 A  
HETATM   10  C   UNL     1      -7.336  11.869  68.357  1.00  0.00    -0.095 A  
HETATM   11  C   UNL     1      -6.472  16.783  69.081  1.00  0.00    -0.208 A  
HETATM   12 BR   UNL     1      -7.224  18.207  66.720  1.00  0.00    -0.249 Br 
HETATM   13  C   UNL     1      -7.984  10.527  67.888  1.00  0.00    -0.106 C  
HETATM   14  C   UNL     1      -6.252  15.626  69.845  1.00  0.00    -0.157 A  
HETATM   15  C   UNL     1      -8.272   9.539  69.040  1.00  0.00    -0.113 A  
HETATM   16  C   UNL     1      -9.141  10.657  66.718  1.00  0.00    -0.152 C  
HETATM   17  O   UNL     1      -8.400  11.051  65.504  1.00  0.00    -0.306 OA 
HETATM   18  C   UNL     1      -9.737   9.280  66.263  1.00  0.00    -0.340 C  
HETATM   19  C   UNL     1     -10.233  11.784  66.848  1.00  0.00    -0.236 A  
HETATM   20  C   UNL     1      -9.203   9.779  70.063  1.00  0.00    -0.266 A  
HETATM   21  C   UNL     1     -12.528  14.048  64.868  1.00  0.00    -0.419 A  
HETATM   22  C   UNL     1     -10.399  12.446  68.084  1.00  0.00    -0.231 A  
HETATM   23  C   UNL     1      -9.285   8.949  71.186  1.00  0.00    -0.324 A  
HETATM   24  H   UNL     1      -9.066  11.126  64.830  1.00  0.00     0.000 HD 
HETATM   25  C   UNL     1     -11.171  13.594  68.242  1.00  0.00    -0.302 A  
HETATM   26  C   UNL     1     -12.495  13.506  63.590  1.00  0.00    -0.278 A  
HETATM   27  C   UNL     1      -8.451   7.844  71.302  1.00  0.00    -0.127 A  
HETATM   28  C   UNL     1     -11.861  14.106  67.163  1.00  0.00    -0.454 A  
HETATM   29  C   UNL     1      -7.558   7.548  70.279  1.00  0.00    -0.090 A  
HETATM   30  C   UNL     1     -11.706  12.398  63.347  1.00  0.00    -0.554 A  
HETATM   31  C   UNL     1     -10.959  11.831  64.389  1.00  0.00    -0.397 A  
HETATM   32  C   UNL     1      -7.471   8.382  69.158  1.00  0.00    -0.089 A  
HETATM   33  C   UNL     1     -11.794  13.477  65.922  1.00  0.00    -0.405 A  
HETATM   34  C   UNL     1     -10.980  12.317  65.725  1.00  0.00    -0.338 A  
BRANCH  18  35
HETATM   35  C   UNL     1     -10.654   8.498  67.208  1.00  0.00    -0.245 C  
BRANCH  35  36
HETATM   36  N   UNL     1     -10.555   7.027  67.019  1.00  0.00    -0.323 NA 
HETATM   37  C   UNL     1     -10.701   6.277  68.270  1.00  0.00    -0.288 C  
HETATM   38  C   UNL     1      -9.257   6.698  66.417  1.00  0.00    -0.151 C  
ENDBRANCH  35  36
ENDBRANCH  18  35
ENDBRANCH   2   3
TORSDOF 3
ENDMDL
MODEL        4
REMARK 921   NORMALIZED FREE ENERGY PREDICTED BY IDOCK:   -6.92 KCAL/MOL
REMARK 922        TOTAL FREE ENERGY PREDICTED BY IDOCK:   -8.92 KCAL/MOL
REMARK 923 INTER-LIGAND FREE ENERGY PREDICTED BY IDOCK:   -8.29 KCAL/MOL
REMARK 924 INTRA-LIGAND FREE ENERGY PREDICTED BY IDOCK:   -0.63 KCAL/MOL
REMARK 927      BINDING AFFINITY PREDICTED BY RF-SCORE:    0.00 PKD
ROOT
HETATM    1  C   UNL     1     -10.090   6.292  69.540  1.00  0.00    -0.176 C  
HETATM    2  O   UNL     1     -10.867   7.243  68.827  1.00  0.00    -0.180 OA 
ENDROOT
BRANCH   2   3
HETATM    3  C   UNL     1     -10.173   7.987  67.901  1.00  0.00    -0.212 A  
HETATM    4  N   UNL     1      -9.210   7.356  67.175  1.00  0.00    -0.131 NA 
HETATM    5  C   UNL     1      -8.656   8.006  66.140  1.00  0.00    -0.148 A  
HETATM    6  C   UNL     1      -9.111   9.276  65.741  1.00  0.00    -0.260 A  
HETATM    7  C   UNL     1      -8.583   9.937  64.624  1.00  0.00    -0.195 A  
HETATM    8  C   UNL     1     -10.092   9.890  66.513  1.00  0.00    -0.298 A  
HETATM    9  C   UNL     1      -7.572   9.338  63.886  1.00  0.00    -0.113 A  
HETATM   10  C   UNL     1     -10.578   9.312  67.694  1.00  0.00    -0.324 A  
HETATM   11  C   UNL     1      -7.066   8.106  64.282  1.00  0.00    -0.078 A  
HETATM   12 BR   UNL     1      -6.909  10.200  62.344  1.00  0.00    -0.139 Br 
HETATM   13  C   UNL     1     -11.485  10.131  68.667  1.00  0.00    -0.105 C  
HETATM   14  C   UNL     1      -7.607   7.457  65.403  1.00  0.00    -0.096 A  
HETATM   15  C   UNL     1     -11.468   9.608  70.120  1.00  0.00    -0.238 A  
HETATM   16  C   UNL     1     -11.457  11.769  68.469  1.00  0.00    -0.296 C  
HETATM   17  O   UNL     1     -12.143  12.001  67.184  1.00  0.00    -0.587 OA 
HETATM   18  C   UNL     1     -12.406  12.539  69.452  1.00  0.00     0.043 C  
HETATM   19  C   UNL     1     -10.071  12.489  68.267  1.00  0.00    -0.228 A  
HETATM   20  C   UNL     1     -10.335   9.634  70.950  1.00  0.00    -0.334 A  
HETATM   21  C   UNL     1      -8.396  15.483  66.672  1.00  0.00    -0.286 A  
HETATM   22  C   UNL     1      -8.881  11.792  68.565  1.00  0.00    -0.122 A  
HETATM   23  C   UNL     1     -10.317   8.972  72.182  1.00  0.00    -0.183 A  
HETATM   24  H   UNL     1     -12.127  12.944  67.070  1.00  0.00     0.000 HD 
HETATM   25  C   UNL     1      -7.614  12.252  68.215  1.00  0.00    -0.133 A  
HETATM   26  C   UNL     1      -9.460  16.306  66.329  1.00  0.00    -0.347 A  
HETATM   27  C   UNL     1     -11.439   8.285  72.625  1.00  0.00    -0.423 A  
HETATM   28  C   UNL     1      -7.481  13.472  67.585  1.00  0.00    -0.187 A  
HETATM   29  C   UNL     1     -12.594   8.288  71.853  1.00  0.00    -0.379 A  
HETATM   30  C   UNL     1     -10.751  15.888  66.598  1.00  0.00    -0.270 A  
HETATM   31  C   UNL     1     -10.968  14.650  67.218  1.00  0.00    -0.317 A  
HETATM   32  C   UNL     1     -12.612   8.945  70.616  1.00  0.00     0.230 A  
HETATM   33  C   UNL     1      -8.605  14.247  67.308  1.00  0.00    -0.229 A  
HETATM   34  C   UNL     1      -9.920  13.781  67.626  1.00  0.00    -0.238 A  
BRANCH  18  35
HETATM   35  C   UNL     1     -12.056  12.624  70.940  1.00  0.00    -0.047 C  
BRANCH  35  36
HETATM   36  N   UNL     1     -12.487  13.904  71.560  1.00  0.00    -0.328 NA 
HETATM   37  C   UNL     1     -13.778  13.803  72.247  1.00  0.00    -0.575 C  
HETATM   38  C   UNL     1     -12.580  14.942  70.526  1.00  0.00    -0.360 C  
ENDBRANCH  35  36
ENDBRANCH  18  35
ENDBRANCH   2   3
TORSDOF 3
ENDMDL
MODEL        5
REMARK 921   NORMALIZED FREE ENERGY PREDICTED BY IDOCK:   -6.83 KCAL/MOL
REMARK 922        TOTAL FREE ENERGY PREDICTED BY IDOCK:   -8.81 KCAL/MOL
REMARK 923 INTER-LIGAND FREE ENERGY PREDICTED BY IDOCK:   -8.29 KCAL/MOL
REMARK 924 INTRA-LIGAND FREE ENERGY PREDICTED BY IDOCK:   -0.52 KCAL/MOL
REMARK 927      BINDING AFFINITY PREDICTED BY RF-SCORE:    0.00 PKD
ROOT
HETATM    1  C   UNL     1     -12.893  11.515  71.260  1.00  0.00    -0.360 C  
HETATM    2  O   UNL     1     -12.037  11.093  70.209  1.00  0.00    -0.316 OA 
ENDROOT
BRANCH   2   3
HETATM    3  C   UNL     1     -11.401   9.891  70.421  1.00  0.00    -0.307 A  
HETATM    4  N   UNL     1     -11.302   9.444  71.704  1.00  0.00    -0.389 NA 
HETATM    5  C   UNL     1     -10.862   8.195  71.917  1.00  0.00    -0.270 A  
HETATM    6  C   UNL     1     -10.592   7.319  70.850  1.00  0.00    -0.234 A  
HETATM    7  C   UNL     1     -10.191   5.992  71.061  1.00  0.00    -0.253 A  
HETATM    8  C   UNL     1     -10.697   7.816  69.555  1.00  0.00    -0.200 A  
HETATM    9  C   UNL     1     -10.042   5.519  72.356  1.00  0.00    -0.179 A  
HETATM   10  C   UNL     1     -10.997   9.160  69.297  1.00  0.00    -0.081 A  
HETATM   11  C   UNL     1     -10.254   6.372  73.432  1.00  0.00    -0.248 A  
HETATM   12 BR   UNL     1      -9.568   3.714  72.638  1.00  0.00    -0.199 Br 
HETATM   13  C   UNL     1     -10.862   9.744  67.855  1.00  0.00    -0.298 C  
HETATM   14  C   UNL     1     -10.655   7.697  73.203  1.00  0.00    -0.438 A  
HETATM   15  C   UNL     1     -10.666  11.275  67.820  1.00  0.00    -0.265 A  
HETATM   16  C   UNL     1      -9.951   8.857  66.802  1.00  0.00    -0.267 C  
HETATM   17  O   UNL     1     -10.755   7.648  66.541  1.00  0.00    -0.428 OA 
HETATM   18  C   UNL     1      -9.872   9.473  65.362  1.00  0.00    -0.248 C  
HETATM   19  C   UNL     1      -8.575   8.269  67.293  1.00  0.00    -0.124 A  
HETATM   20  C   UNL     1      -9.534  11.933  68.330  1.00  0.00    -0.197 A  
HETATM   21  C   UNL     1      -6.126   5.427  66.802  1.00  0.00    -0.030 A  
HETATM   22  C   UNL     1      -8.002   8.757  68.486  1.00  0.00    -0.112 A  
HETATM   23  C   UNL     1      -9.492  13.325  68.453  1.00  0.00    -0.172 A  
HETATM   24  H   UNL     1     -10.231   7.137  65.935  1.00  0.00     0.000 HD 
HETATM   25  C   UNL     1      -6.915   8.156  69.117  1.00  0.00    -0.060 A  
HETATM   26  C   UNL     1      -6.547   4.837  65.618  1.00  0.00    -0.041 A  
HETATM   27  C   UNL     1     -10.573  14.097  68.050  1.00  0.00    -0.241 A  
HETATM   28  C   UNL     1      -6.316   7.054  68.543  1.00  0.00    -0.035 A  
HETATM   29  C   UNL     1     -11.685  13.481  67.489  1.00  0.00    -0.403 A  
HETATM   30  C   UNL     1      -7.654   5.347  64.965  1.00  0.00    -0.080 A  
HETATM   31  C   UNL     1      -8.329   6.454  65.498  1.00  0.00    -0.147 A  
HETATM   32  C   UNL     1     -11.731  12.086  67.370  1.00  0.00    -0.352 A  
HETATM   33  C   UNL     1      -6.788   6.547  67.334  1.00  0.00    -0.076 A  
HETATM   34  C   UNL     1      -7.925   7.125  66.684  1.00  0.00    -0.111 A  
BRANCH  18  35
HETATM   35  C   UNL     1      -9.064  10.751  65.123  1.00  0.00    -0.203 C  
BRANCH  35  36
HETATM   36  N   UNL     1      -9.597  11.567  64.001  1.00  0.00    -0.202 NA 
HETATM   37  C   UNL     1     -11.062  11.621  63.977  1.00  0.00    -0.384 C  
HETATM   38  C   UNL     1      -9.122  11.017  62.726  1.00  0.00    -0.337 C  
ENDBRANCH  35  36
ENDBRANCH  18  35
ENDBRANCH   2   3
TORSDOF 3
ENDMDL
MODEL        6
REMARK 921   NORMALIZED FREE ENERGY PREDICTED BY IDOCK:   -6.78 KCAL/MOL
REMARK 922        TOTAL FREE ENERGY PREDICTED BY IDOCK:   -8.75 KCAL/MOL
REMARK 923 INTER-LIGAND FREE ENERGY PREDICTED BY IDOCK:   -8.17 KCAL/MOL
REMARK 924 INTRA-LIGAND FREE ENERGY PREDICTED BY IDOCK:   -0.58 KCAL/MOL
REMARK 927      BINDING AFFINITY PREDICTED BY RF-SCORE:    0.00 PKD
ROOT
HETATM    1  C   UNL     1     -10.319  11.947  63.843  1.00  0.00    -0.389 C  
HETATM    2  O   UNL     1      -9.455  11.400  64.829  1.00  0.00    -0.216 OA 
ENDROOT
BRANCH   2   3
HETATM    3  C   UNL     1      -9.922  11.473  66.121  1.00  0.00    -0.224 A  
HETATM    4  N   UNL     1     -10.126  12.711  66.652  1.00  0.00    -0.236 NA 
HETATM    5  C   UNL     1     -10.758  12.808  67.831  1.00  0.00    -0.219 A  
HETATM    6  C   UNL     1     -11.287  11.675  68.476  1.00  0.00    -0.332 A  
HETATM    7  C   UNL     1     -12.003  11.772  69.678  1.00  0.00    -0.378 A  
HETATM    8  C   UNL     1     -11.051  10.429  67.906  1.00  0.00    -0.363 A  
HETATM    9  C   UNL     1     -12.194  13.013  70.265  1.00  0.00    -0.296 A  
HETATM   10  C   UNL     1     -10.256  10.274  66.762  1.00  0.00    -0.286 A  
HETATM   11  C   UNL     1     -11.643  14.147  69.679  1.00  0.00    -0.349 A  
HETATM   12 BR   UNL     1     -13.216  13.149  71.846  1.00  0.00    -0.493 Br 
HETATM   13  C   UNL     1      -9.802   8.855  66.293  1.00  0.00    -0.355 C  
HETATM   14  C   UNL     1     -10.929  14.032  68.475  1.00  0.00    -0.274 A  
HETATM   15  C   UNL     1      -8.529   8.867  65.419  1.00  0.00    -0.176 A  
HETATM   16  C   UNL     1      -9.915   7.654  67.421  1.00  0.00    -0.192 C  
HETATM   17  O   UNL     1     -11.365   7.442  67.595  1.00  0.00    -0.454 OA 
HETATM   18  C   UNL     1      -9.474   6.246  66.889  1.00  0.00    -0.157 C  
HETATM   19  C   UNL     1      -9.419   7.938  68.888  1.00  0.00    -0.150 A  
HETATM   20  C   UNL     1      -7.263   9.259  65.884  1.00  0.00    -0.091 A  
HETATM   21  C   UNL     1      -9.947   7.008  72.517  1.00  0.00    -0.191 A  
HETATM   22  C   UNL     1      -8.615   9.071  69.139  1.00  0.00    -0.133 A  
HETATM   23  C   UNL     1      -6.188   9.441  65.008  1.00  0.00    -0.068 A  
HETATM   24  H   UNL     1     -11.430   6.751  68.244  1.00  0.00     0.000 HD 
HETATM   25  C   UNL     1      -8.313   9.530  70.419  1.00  0.00    -0.226 A  
HETATM   26  C   UNL     1     -10.726   5.861  72.448  1.00  0.00    -0.274 A  
HETATM   27  C   UNL     1      -6.347   9.215  63.647  1.00  0.00    -0.089 A  
HETATM   28  C   UNL     1      -8.769   8.833  71.518  1.00  0.00    -0.274 A  
HETATM   29  C   UNL     1      -7.572   8.772  63.164  1.00  0.00    -0.109 A  
HETATM   30  C   UNL     1     -11.110   5.379  71.211  1.00  0.00    -0.053 A  
HETATM   31  C   UNL     1     -10.702   6.044  70.045  1.00  0.00    -0.380 A  
HETATM   32  C   UNL     1      -8.651   8.595  64.039  1.00  0.00    -0.026 A  
HETATM   33  C   UNL     1      -9.521   7.672  71.353  1.00  0.00    -0.166 A  
HETATM   34  C   UNL     1      -9.874   7.200  70.049  1.00  0.00    -0.178 A  
BRANCH  18  35
HETATM   35  C   UNL     1      -7.995   5.967  66.610  1.00  0.00    -0.102 C  
BRANCH  35  36
HETATM   36  N   UNL     1      -7.635   4.537  66.798  1.00  0.00    -0.085 NA 
HETATM   37  C   UNL     1      -8.109   3.679  65.708  1.00  0.00    -0.093 C  
HETATM   38  C   UNL     1      -8.200   4.052  68.063  1.00  0.00    -0.092 C  
ENDBRANCH  35  36
ENDBRANCH  18  35
ENDBRANCH   2   3
TORSDOF 3
ENDMDL
MODEL        7
REMARK 921   NORMALIZED FREE ENERGY PREDICTED BY IDOCK:   -6.67 KCAL/MOL
REMARK 922        TOTAL FREE ENERGY PREDICTED BY IDOCK:   -8.62 KCAL/MOL
REMARK 923 INTER-LIGAND FREE ENERGY PREDICTED BY IDOCK:   -8.08 KCAL/MOL
REMARK 924 INTRA-LIGAND FREE ENERGY PREDICTED BY IDOCK:   -0.54 KCAL/MOL
REMARK 927      BINDING AFFINITY PREDICTED BY RF-SCORE:    0.00 PKD
ROOT
HETATM    1  C   UNL     1     -12.745  11.542  71.215  1.00  0.00    -0.364 C  
HETATM    2  O   UNL     1     -11.744  11.137  70.293  1.00  0.00    -0.311 OA 
ENDROOT
BRANCH   2   3
HETATM    3  C   UNL     1     -11.236   9.875  70.499  1.00  0.00    -0.330 A  
HETATM    4  N   UNL     1     -11.151   9.428  71.783  1.00  0.00    -0.342 NA 
HETATM    5  C   UNL     1     -10.844   8.140  71.997  1.00  0.00    -0.284 A  
HETATM    6  C   UNL     1     -10.698   7.233  70.931  1.00  0.00    -0.251 A  
HETATM    7  C   UNL     1     -10.438   5.872  71.144  1.00  0.00    -0.291 A  
HETATM    8  C   UNL     1     -10.785   7.730  69.635  1.00  0.00    -0.223 A  
HETATM    9  C   UNL     1     -10.306   5.394  72.439  1.00  0.00    -0.209 A  
HETATM   10  C   UNL     1     -10.944   9.097  69.372  1.00  0.00    -0.108 A  
HETATM   11  C   UNL     1     -10.395   6.272  73.512  1.00  0.00    -0.269 A  
HETATM   12 BR   UNL     1     -10.022   3.550  72.726  1.00  0.00    -0.232 Br 
HETATM   13  C   UNL     1     -10.785   9.654  67.921  1.00  0.00    -0.302 C  
HETATM   14  C   UNL     1     -10.657   7.631  73.281  1.00  0.00    -0.411 A  
HETATM   15  C   UNL     1     -10.426  11.155  67.867  1.00  0.00    -0.220 A  
HETATM   16  C   UNL     1     -10.004   8.666  66.853  1.00  0.00    -0.260 C  
HETATM   17  O   UNL     1     -10.941   7.550  66.625  1.00  0.00    -0.410 OA 
HETATM   18  C   UNL     1      -9.898   9.261  65.406  1.00  0.00    -0.060 C  
HETATM   19  C   UNL     1      -8.687   7.936  67.313  1.00  0.00    -0.131 A  
HETATM   20  C   UNL     1      -9.216  11.689  68.341  1.00  0.00    -0.182 A  
HETATM   21  C   UNL     1      -6.574   4.843  66.785  1.00  0.00    -0.050 A  
HETATM   22  C   UNL     1      -8.032   8.367  68.487  1.00  0.00    -0.121 A  
HETATM   23  C   UNL     1      -9.021  13.069  68.450  1.00  0.00    -0.126 A  
HETATM   24  H   UNL     1     -10.492   6.982  66.010  1.00  0.00     0.000 HD 
HETATM   25  C   UNL     1      -7.001   7.656  69.095  1.00  0.00    -0.068 A  
HETATM   26  C   UNL     1      -7.088   4.293  65.619  1.00  0.00    -0.063 A  
HETATM   27  C   UNL     1     -10.023  13.951  68.068  1.00  0.00    -0.241 A  
HETATM   28  C   UNL     1      -6.540   6.492  68.515  1.00  0.00    -0.051 A  
HETATM   29  C   UNL     1     -11.209  13.455  67.542  1.00  0.00    -0.309 A  
HETATM   30  C   UNL     1      -8.151   4.916  64.990  1.00  0.00    -0.107 A  
HETATM   31  C   UNL     1      -8.688   6.094  65.530  1.00  0.00    -0.105 A  
HETATM   32  C   UNL     1     -11.409  12.073  67.438  1.00  0.00    -0.393 A  
HETATM   33  C   UNL     1      -7.097   6.031  67.324  1.00  0.00    -0.070 A  
HETATM   34  C   UNL     1      -8.181   6.724  66.699  1.00  0.00    -0.115 A  
BRANCH  18  35
HETATM   35  C   UNL     1      -8.963  10.442  65.134  1.00  0.00    -0.191 C  
BRANCH  35  36
HETATM   36  N   UNL     1      -9.199  11.068  63.807  1.00  0.00    -0.198 NA 
HETATM   37  C   UNL     1     -10.416  11.885  63.766  1.00  0.00    -0.423 C  
HETATM   38  C   UNL     1      -9.295  10.022  62.782  1.00  0.00    -0.260 C  
ENDBRANCH  35  36
ENDBRANCH  18  35
ENDBRANCH   2   3
TORSDOF 3
ENDMDL
MODEL        8
REMARK 921   NORMALIZED FREE ENERGY PREDICTED BY IDOCK:   -6.58 KCAL/MOL
REMARK 922        TOTAL FREE ENERGY PREDICTED BY IDOCK:   -8.52 KCAL/MOL
REMARK 923 INTER-LIGAND FREE ENERGY PREDICTED BY IDOCK:   -7.94 KCAL/MOL
REMARK 924 INTRA-LIGAND FREE ENERGY PREDICTED BY IDOCK:   -0.58 KCAL/MOL
REMARK 927      BINDING AFFINITY PREDICTED BY RF-SCORE:    0.00 PKD
ROOT
HETATM    1  C   UNL     1     -11.137  16.127  64.581  1.00  0.00    -0.296 C  
HETATM    2  O   UNL     1     -11.085  15.096  65.556  1.00  0.00    -0.336 OA 
ENDROOT
BRANCH   2   3
HETATM    3  C   UNL     1      -9.997  15.141  66.396  1.00  0.00    -0.272 A  
HETATM    4  N   UNL     1      -9.224  16.262  66.372  1.00  0.00    -0.273 NA 
HETATM    5  C   UNL     1      -8.277  16.410  67.312  1.00  0.00    -0.168 A  
HETATM    6  C   UNL     1      -8.131  15.484  68.360  1.00  0.00    -0.136 A  
HETATM    7  C   UNL     1      -7.187  15.660  69.382  1.00  0.00    -0.212 A  
HETATM    8  C   UNL     1      -8.935  14.348  68.345  1.00  0.00    -0.188 A  
HETATM    9  C   UNL     1      -6.358  16.771  69.364  1.00  0.00    -0.222 A  
HETATM   10  C   UNL     1      -9.821  14.080  67.293  1.00  0.00    -0.242 A  
HETATM   11  C   UNL     1      -6.443  17.680  68.316  1.00  0.00    -0.188 A  
HETATM   12 BR   UNL     1      -5.134  17.042  70.776  1.00  0.00    -0.207 Br 
HETATM   13  C   UNL     1     -10.519  12.687  67.175  1.00  0.00    -0.245 C  
HETATM   14  C   UNL     1      -7.394  17.489  67.303  1.00  0.00    -0.203 A  
HETATM   15  C   UNL     1     -10.981  12.343  65.742  1.00  0.00    -0.333 A  
HETATM   16  C   UNL     1      -9.834  11.463  68.046  1.00  0.00    -0.184 C  
HETATM   17  O   UNL     1     -10.120  11.802  69.454  1.00  0.00    -0.407 OA 
HETATM   18  C   UNL     1     -10.591  10.096  67.915  1.00  0.00    -0.294 C  
HETATM   19  C   UNL     1      -8.268  11.301  68.031  1.00  0.00    -0.134 A  
HETATM   20  C   UNL     1     -10.105  12.138  64.664  1.00  0.00    -0.282 A  
HETATM   21  C   UNL     1      -5.311  10.092  70.057  1.00  0.00    -0.039 A  
HETATM   22  C   UNL     1      -7.512  11.981  67.053  1.00  0.00    -0.106 A  
HETATM   23  C   UNL     1     -10.576  12.025  63.352  1.00  0.00    -0.478 A  
HETATM   24  H   UNL     1      -9.727  11.098  69.955  1.00  0.00     0.000 HD 
HETATM   25  C   UNL     1      -6.123  12.082  67.089  1.00  0.00    -0.155 A  
HETATM   26  C   UNL     1      -5.896   9.361  71.082  1.00  0.00    -0.068 A  
HETATM   27  C   UNL     1     -11.938  12.093  63.088  1.00  0.00    -0.336 A  
HETATM   28  C   UNL     1      -5.420  11.453  68.095  1.00  0.00    -0.042 A  
HETATM   29  C   UNL     1     -12.834  12.239  64.140  1.00  0.00    -0.371 A  
HETATM   30  C   UNL     1      -7.274   9.264  71.141  1.00  0.00    -0.055 A  
HETATM   31  C   UNL     1      -8.060   9.893  70.165  1.00  0.00    -0.169 A  
HETATM   32  C   UNL     1     -12.364  12.358  65.453  1.00  0.00    -0.308 A  
HETATM   33  C   UNL     1      -6.090  10.713  69.067  1.00  0.00    -0.041 A  
HETATM   34  C   UNL     1      -7.519  10.623  69.071  1.00  0.00    -0.117 A  
BRANCH  18  35
HETATM   35  C   UNL     1     -10.528   9.314  66.599  1.00  0.00    -0.167 C  
BRANCH  35  36
HETATM   36  N   UNL     1     -10.366   7.851  66.807  1.00  0.00    -0.316 NA 
HETATM   37  C   UNL     1     -10.505   7.453  68.212  1.00  0.00    -0.189 C  
HETATM   38  C   UNL     1      -9.045   7.431  66.324  1.00  0.00    -0.156 C  
ENDBRANCH  35  36
ENDBRANCH  18  35
ENDBRANCH   2   3
TORSDOF 3
ENDMDL
MODEL        9
REMARK 921   NORMALIZED FREE ENERGY PREDICTED BY IDOCK:   -6.35 KCAL/MOL
REMARK 922        TOTAL FREE ENERGY PREDICTED BY IDOCK:   -8.24 KCAL/MOL
REMARK 923 INTER-LIGAND FREE ENERGY PREDICTED BY IDOCK:   -7.57 KCAL/MOL
REMARK 924 INTRA-LIGAND FREE ENERGY PREDICTED BY IDOCK:   -0.68 KCAL/MOL
REMARK 927      BINDING AFFINITY PREDICTED BY RF-SCORE:    0.00 PKD
ROOT
HETATM    1  C   UNL     1      -8.728  10.924  62.399  1.00  0.00    -0.309 C  
HETATM    2  O   UNL     1      -8.336  11.046  63.759  1.00  0.00     0.073 OA 
ENDROOT
BRANCH   2   3
HETATM    3  C   UNL     1      -8.114   9.856  64.412  1.00  0.00    -0.157 A  
HETATM    4  N   UNL     1      -7.634   8.812  63.681  1.00  0.00    -0.118 NA 
HETATM    5  C   UNL     1      -7.230   7.707  64.326  1.00  0.00    -0.079 A  
HETATM    6  C   UNL     1      -7.210   7.643  65.731  1.00  0.00    -0.065 A  
HETATM    7  C   UNL     1      -6.732   6.517  66.416  1.00  0.00    -0.056 A  
HETATM    8  C   UNL     1      -7.716   8.727  66.441  1.00  0.00    -0.099 A  
HETATM    9  C   UNL     1      -6.273   5.422  65.700  1.00  0.00    -0.034 A  
HETATM   10  C   UNL     1      -8.295   9.830  65.800  1.00  0.00    -0.132 A  
HETATM   11  C   UNL     1      -6.325   5.434  64.311  1.00  0.00    -0.026 A  
HETATM   12 BR   UNL     1      -5.568   3.934  66.624  1.00  0.00    -0.018 Br 
HETATM   13  C   UNL     1      -9.077  10.907  66.618  1.00  0.00    -0.175 C  
HETATM   14  C   UNL     1      -6.806   6.570  63.641  1.00  0.00    -0.049 A  
HETATM   15  C   UNL     1     -10.100  11.704  65.779  1.00  0.00    -0.278 A  
HETATM   16  C   UNL     1      -9.554  10.454  68.132  1.00  0.00    -0.144 C  
HETATM   17  O   UNL     1      -8.301  10.368  68.907  1.00  0.00    -0.120 OA 
HETATM   18  C   UNL     1     -10.308  11.582  68.920  1.00  0.00    -0.191 C  
HETATM   19  C   UNL     1     -10.196   9.031  68.335  1.00  0.00    -0.232 A  
HETATM   20  C   UNL     1     -11.242  11.137  65.191  1.00  0.00     0.008 A  
HETATM   21  C   UNL     1     -10.660   6.224  70.829  1.00  0.00    -0.297 A  
HETATM   22  C   UNL     1     -10.637   8.305  67.208  1.00  0.00    -0.335 A  
HETATM   23  C   UNL     1     -12.027  11.853  64.281  1.00  0.00    -0.353 A  
HETATM   24  H   UNL     1      -8.575  10.107  69.778  1.00  0.00     0.000 HD 
HETATM   25  C   UNL     1     -11.009   6.963  67.257  1.00  0.00    -0.406 A  
HETATM   26  C   UNL     1     -10.280   6.796  72.036  1.00  0.00    -0.209 A  
HETATM   27  C   UNL     1     -11.700  13.162  63.953  1.00  0.00    -0.515 A  
HETATM   28  C   UNL     1     -11.003   6.297  68.465  1.00  0.00    -0.421 A  
HETATM   29  C   UNL     1     -10.608  13.770  64.561  1.00  0.00    -0.405 A  
HETATM   30  C   UNL     1      -9.846   8.109  72.054  1.00  0.00    -0.298 A  
HETATM   31  C   UNL     1      -9.804   8.846  70.862  1.00  0.00    -0.304 A  
HETATM   32  C   UNL     1      -9.819  13.052  65.467  1.00  0.00    -0.150 A  
HETATM   33  C   UNL     1     -10.635   6.962  69.633  1.00  0.00    -0.258 A  
HETATM   34  C   UNL     1     -10.215   8.329  69.604  1.00  0.00    -0.209 A  
BRANCH  18  35
HETATM   35  C   UNL     1     -11.723  11.988  68.499  1.00  0.00    -0.332 C  
BRANCH  35  36
HETATM   36  N   UNL     1     -12.071  13.373  68.915  1.00  0.00    -0.309 NA 
HETATM   37  C   UNL     1     -10.999  14.337  68.647  1.00  0.00    -0.252 C  
HETATM   38  C   UNL     1     -12.377  13.390  70.350  1.00  0.00    -0.312 C  
ENDBRANCH  35  36
ENDBRANCH  18  35
ENDBRANCH   2   3
TORSDOF 3
ENDMDL
MODEL       10
REMARK 921   NORMALIZED FREE ENERGY PREDICTED BY IDOCK:   -6.35 KCAL/MOL
REMARK 922        TOTAL FREE ENERGY PREDICTED BY IDOCK:   -8.24 KCAL/MOL
REMARK 923 INTER-LIGAND FREE ENERGY PREDICTED BY IDOCK:   -7.35 KCAL/MOL
REMARK 924 INTRA-LIGAND FREE ENERGY PREDICTED BY IDOCK:   -0.89 KCAL/MOL
REMARK 927      BINDING AFFINITY PREDICTED BY RF-SCORE:    0.00 PKD
ROOT
HETATM    1  C   UNL     1     -12.275   9.659  71.365  1.00  0.00    -0.385 C  
HETATM    2  O   UNL     1     -10.916   9.802  70.976  1.00  0.00    -0.320 OA 
ENDROOT
BRANCH   2   3
HETATM    3  C   UNL     1     -10.699  10.648  69.914  1.00  0.00    -0.204 A  
HETATM    4  N   UNL     1     -11.566  11.684  69.741  1.00  0.00    -0.313 NA 
HETATM    5  C   UNL     1     -11.268  12.628  68.836  1.00  0.00    -0.280 A  
HETATM    6  C   UNL     1     -10.048  12.615  68.136  1.00  0.00    -0.231 A  
HETATM    7  C   UNL     1      -9.699  13.629  67.233  1.00  0.00    -0.243 A  
HETATM    8  C   UNL     1      -9.193  11.537  68.334  1.00  0.00    -0.190 A  
HETATM    9  C   UNL     1     -10.578  14.677  67.005  1.00  0.00    -0.280 A  
HETATM   10  C   UNL     1      -9.542  10.452  69.149  1.00  0.00    -0.226 A  
HETATM   11  C   UNL     1     -11.813  14.694  67.643  1.00  0.00    -0.366 A  
HETATM   12 BR   UNL     1     -10.078  16.076  65.840  1.00  0.00    -0.400 Br 
HETATM   13  C   UNL     1      -8.680   9.149  69.155  1.00  0.00    -0.138 C  
HETATM   14  C   UNL     1     -12.146  13.671  68.545  1.00  0.00    -0.321 A  
HETATM   15  C   UNL     1      -9.452   7.894  69.619  1.00  0.00    -0.160 A  
HETATM   16  C   UNL     1      -7.658   8.957  67.873  1.00  0.00    -0.093 C  
HETATM   17  O   UNL     1      -6.617   9.984  68.070  1.00  0.00    -0.062 OA 
HETATM   18  C   UNL     1      -6.797   7.648  67.943  1.00  0.00    -0.068 C  
HETATM   19  C   UNL     1      -8.189   9.263  66.422  1.00  0.00    -0.111 A  
HETATM   20  C   UNL     1     -10.529   7.331  68.914  1.00  0.00    -0.216 A  
HETATM   21  C   UNL     1      -7.143  10.417  62.975  1.00  0.00    -0.079 A  
HETATM   22  C   UNL     1      -9.578   9.387  66.207  1.00  0.00    -0.297 A  
HETATM   23  C   UNL     1     -11.318   6.320  69.472  1.00  0.00    -0.475 A  
HETATM   24  H   UNL     1      -6.029   9.873  67.332  1.00  0.00     0.000 HD 
HETATM   25  C   UNL     1     -10.132   9.871  65.024  1.00  0.00    -0.110 A  
HETATM   26  C   UNL     1      -5.758  10.332  63.010  1.00  0.00    -0.137 A  
HETATM   27  C   UNL     1     -11.036   5.831  70.741  1.00  0.00    -0.312 A  
HETATM   28  C   UNL     1      -9.305  10.209  63.973  1.00  0.00    -0.339 A  
HETATM   29  C   UNL     1      -9.943   6.328  71.440  1.00  0.00    -0.210 A  
HETATM   30  C   UNL     1      -5.137   9.911  64.171  1.00  0.00    -0.071 A  
HETATM   31  C   UNL     1      -5.909   9.568  65.291  1.00  0.00    -0.064 A  
HETATM   32  C   UNL     1      -9.156   7.345  70.886  1.00  0.00    -0.154 A  
HETATM   33  C   UNL     1      -7.924  10.061  64.087  1.00  0.00    -0.152 A  
HETATM   34  C   UNL     1      -7.330   9.599  65.304  1.00  0.00    -0.113 A  
BRANCH  18  35
HETATM   35  C   UNL     1      -7.462   6.286  67.730  1.00  0.00    -0.093 C  
BRANCH  35  36
HETATM   36  N   UNL     1      -6.824   5.204  68.525  1.00  0.00    -0.054 NA 
HETATM   37  C   UNL     1      -7.789   4.239  69.060  1.00  0.00    -0.061 C  
HETATM   38  C   UNL     1      -6.075   5.794  69.642  1.00  0.00    -0.025 C  
ENDBRANCH  35  36
ENDBRANCH  18  35
ENDBRANCH   2   3
TORSDOF 3
ENDMDL
MODEL       11
REMARK 921   NORMALIZED FREE ENERGY PREDICTED BY IDOCK:   -6.34 KCAL/MOL
REMARK 922        TOTAL FREE ENERGY PREDICTED BY IDOCK:   -8.23 KCAL/MOL
REMARK 923 INTER-LIGAND FREE ENERGY PREDICTED BY IDOCK:   -7.55 KCAL/MOL
REMARK 924 INTRA-LIGAND FREE ENERGY PREDICTED BY IDOCK:   -0.69 KCAL/MOL
REMARK 927      BINDING AFFINITY PREDICTED BY RF-SCORE:    0.00 PKD
ROOT
HETATM    1  C   UNL     1      -8.003   9.459  63.599  1.00  0.00    -0.142 C  
HETATM    2  O   UNL     1      -9.003   8.765  64.332  1.00  0.00    -0.041 OA 
ENDROOT
BRANCH   2   3
HETATM    3  C   UNL     1      -9.420   9.389  65.485  1.00  0.00    -0.260 A  
HETATM    4  N   UNL     1      -9.420  10.751  65.504  1.00  0.00    -0.197 NA 
HETATM    5  C   UNL     1     -10.000  11.379  66.538  1.00  0.00    -0.211 A  
HETATM    6  C   UNL     1     -10.677  10.667  67.544  1.00  0.00    -0.321 A  
HETATM    7  C   UNL     1     -11.339  11.316  68.596  1.00  0.00    -0.336 A  
HETATM    8  C   UNL     1     -10.647   9.277  67.493  1.00  0.00    -0.329 A  
HETATM    9  C   UNL     1     -11.324  12.701  68.666  1.00  0.00    -0.291 A  
HETATM   10  C   UNL     1      -9.916   8.585  66.519  1.00  0.00    -0.350 A  
HETATM   11  C   UNL     1     -10.622  13.432  67.715  1.00  0.00    -0.252 A  
HETATM   12 BR   UNL     1     -12.272  13.574  70.045  1.00  0.00    -0.346 Br 
HETATM   13  C   UNL     1      -9.694   7.043  66.634  1.00  0.00    -0.226 C  
HETATM   14  C   UNL     1      -9.966  12.767  66.668  1.00  0.00    -0.246 A  
HETATM   15  C   UNL     1      -8.457   6.533  65.863  1.00  0.00    -0.147 A  
HETATM   16  C   UNL     1      -9.959   6.388  68.126  1.00  0.00    -0.136 C  
HETATM   17  O   UNL     1     -11.419   6.477  68.319  1.00  0.00    -0.546 OA 
HETATM   18  C   UNL     1      -9.751   4.835  68.179  1.00  0.00    -0.201 C  
HETATM   19  C   UNL     1      -9.388   7.126  69.395  1.00  0.00    -0.147 A  
HETATM   20  C   UNL     1      -7.135   6.876  66.189  1.00  0.00    -0.073 A  
HETATM   21  C   UNL     1      -9.956   7.723  73.087  1.00  0.00    -0.374 A  
HETATM   22  C   UNL     1      -8.415   8.135  69.228  1.00  0.00    -0.134 A  
HETATM   23  C   UNL     1      -6.068   6.551  65.345  1.00  0.00    -0.034 A  
HETATM   24  H   UNL     1     -11.571   6.101  69.177  1.00  0.00     0.000 HD 
HETATM   25  C   UNL     1      -8.014   8.991  70.250  1.00  0.00    -0.124 A  
HETATM   26  C   UNL     1     -10.902   6.766  73.429  1.00  0.00    -0.282 A  
HETATM   27  C   UNL     1      -6.294   5.855  64.165  1.00  0.00    -0.029 A  
HETATM   28  C   UNL     1      -8.542   8.838  71.515  1.00  0.00    -0.253 A  
HETATM   29  C   UNL     1      -7.585   5.452  63.843  1.00  0.00    -0.073 A  
HETATM   30  C   UNL     1     -11.387   5.917  72.452  1.00  0.00    -0.358 A  
HETATM   31  C   UNL     1     -10.914   6.024  71.136  1.00  0.00    -0.341 A  
HETATM   32  C   UNL     1      -8.654   5.782  64.683  1.00  0.00    -0.001 A  
HETATM   33  C   UNL     1      -9.466   7.827  71.774  1.00  0.00    -0.191 A  
HETATM   34  C   UNL     1      -9.920   6.957  70.733  1.00  0.00    -0.201 A  
BRANCH  18  35
HETATM   35  C   UNL     1      -8.339   4.251  68.075  1.00  0.00    -0.094 C  
BRANCH  35  36
HETATM   36  N   UNL     1      -8.138   3.071  68.957  1.00  0.00    -0.055 NA 
HETATM   37  C   UNL     1      -9.058   1.969  68.657  1.00  0.00    -0.149 C  
HETATM   38  C   UNL     1      -8.318   3.470  70.358  1.00  0.00    -0.056 C  
ENDBRANCH  35  36
ENDBRANCH  18  35
ENDBRANCH   2   3
TORSDOF 3
ENDMDL
MODEL       12
REMARK 921   NORMALIZED FREE ENERGY PREDICTED BY IDOCK:   -6.30 KCAL/MOL
REMARK 922        TOTAL FREE ENERGY PREDICTED BY IDOCK:   -8.18 KCAL/MOL
REMARK 923 INTER-LIGAND FREE ENERGY PREDICTED BY IDOCK:   -7.40 KCAL/MOL
REMARK 924 INTRA-LIGAND FREE ENERGY PREDICTED BY IDOCK:   -0.79 KCAL/MOL
REMARK 927      BINDING AFFINITY PREDICTED BY RF-SCORE:    0.00 PKD
ROOT
HETATM    1  C   UNL     1     -12.034  12.839  68.991  1.00  0.00    -0.242 C  
HETATM    2  O   UNL     1     -11.997  11.649  68.218  1.00  0.00    -0.516 OA 
ENDROOT
BRANCH   2   3
HETATM    3  C   UNL     1     -11.442  10.560  68.849  1.00  0.00    -0.226 A  
HETATM    4  N   UNL     1     -11.666  10.419  70.185  1.00  0.00    -0.290 NA 
HETATM    5  C   UNL     1     -11.301   9.274  70.781  1.00  0.00    -0.287 A  
HETATM    6  C   UNL     1     -10.779   8.196  70.043  1.00  0.00    -0.243 A  
HETATM    7  C   UNL     1     -10.452   6.973  70.646  1.00  0.00    -0.229 A  
HETATM    8  C   UNL     1     -10.558   8.382  68.683  1.00  0.00    -0.149 A  
HETATM    9  C   UNL     1     -10.631   6.811  72.011  1.00  0.00    -0.213 A  
HETATM   10  C   UNL     1     -10.776   9.616  68.057  1.00  0.00    -0.284 A  
HETATM   11  C   UNL     1     -11.098   7.873  72.777  1.00  0.00    -0.462 A  
HETATM   12 BR   UNL     1     -10.253   5.143  72.809  1.00  0.00    -0.234 Br 
HETATM   13  C   UNL     1     -10.284   9.867  66.595  1.00  0.00    -0.293 C  
HETATM   14  C   UNL     1     -11.422   9.090  72.157  1.00  0.00    -0.328 A  
HETATM   15  C   UNL     1     -10.075  11.359  66.257  1.00  0.00    -0.263 A  
HETATM   16  C   UNL     1      -9.146   8.813  66.029  1.00  0.00    -0.213 C  
HETATM   17  O   UNL     1      -9.868   7.537  65.867  1.00  0.00    -0.401 OA 
HETATM   18  C   UNL     1      -8.709   9.092  64.549  1.00  0.00    -0.192 C  
HETATM   19  C   UNL     1      -7.938   8.423  66.961  1.00  0.00    -0.100 A  
HETATM   20  C   UNL     1      -9.101  12.171  66.860  1.00  0.00    -0.203 A  
HETATM   21  C   UNL     1      -5.462   5.673  67.748  1.00  0.00    -0.011 A  
HETATM   22  C   UNL     1      -7.675   9.195  68.112  1.00  0.00    -0.092 A  
HETATM   23  C   UNL     1      -9.083  13.556  66.665  1.00  0.00    -0.182 A  
HETATM   24  H   UNL     1      -9.213   6.931  65.541  1.00  0.00     0.000 HD 
HETATM   25  C   UNL     1      -6.783   8.809  69.109  1.00  0.00    -0.051 A  
HETATM   26  C   UNL     1      -5.580   4.810  66.667  1.00  0.00    -0.014 A  
HETATM   27  C   UNL     1     -10.026  14.161  65.844  1.00  0.00    -0.331 A  
HETATM   28  C   UNL     1      -6.067   7.638  68.967  1.00  0.00    -0.035 A  
HETATM   29  C   UNL     1     -10.967  13.377  65.188  1.00  0.00    -0.315 A  
HETATM   30  C   UNL     1      -6.487   5.102  65.666  1.00  0.00    -0.036 A  
HETATM   31  C   UNL     1      -7.266   6.265  65.748  1.00  0.00    -0.074 A  
HETATM   32  C   UNL     1     -10.991  11.992  65.387  1.00  0.00    -0.347 A  
HETATM   33  C   UNL     1      -6.228   6.848  67.831  1.00  0.00    -0.034 A  
HETATM   34  C   UNL     1      -7.165   7.206  66.810  1.00  0.00    -0.083 A  
BRANCH  18  35
HETATM   35  C   UNL     1      -7.858  10.324  64.225  1.00  0.00    -0.117 C  
BRANCH  35  36
HETATM   36  N   UNL     1      -6.514   9.971  63.698  1.00  0.00    -0.127 NA 
HETATM   37  C   UNL     1      -6.464   8.630  63.107  1.00  0.00    -0.090 C  
HETATM   38  C   UNL     1      -5.527  10.049  64.782  1.00  0.00    -0.090 C  
ENDBRANCH  35  36
ENDBRANCH  18  35
ENDBRANCH   2   3
TORSDOF 3
ENDMDL
MODEL       13
REMARK 921   NORMALIZED FREE ENERGY PREDICTED BY IDOCK:   -6.23 KCAL/MOL
REMARK 922        TOTAL FREE ENERGY PREDICTED BY IDOCK:   -8.10 KCAL/MOL
REMARK 923 INTER-LIGAND FREE ENERGY PREDICTED BY IDOCK:   -7.48 KCAL/MOL
REMARK 924 INTRA-LIGAND FREE ENERGY PREDICTED BY IDOCK:   -0.62 KCAL/MOL
REMARK 927      BINDING AFFINITY PREDICTED BY RF-SCORE:    0.00 PKD
ROOT
HETATM    1  C   UNL     1     -12.035  12.156  70.075  1.00  0.00    -0.315 C  
HETATM    2  O   UNL     1     -12.109  10.753  69.869  1.00  0.00    -0.309 OA 
ENDROOT
BRANCH   2   3
HETATM    3  C   UNL     1     -11.373  10.279  68.808  1.00  0.00    -0.167 A  
HETATM    4  N   UNL     1     -11.527  10.897  67.604  1.00  0.00    -0.518 NA 
HETATM    5  C   UNL     1     -10.686  10.582  66.607  1.00  0.00    -0.155 A  
HETATM    6  C   UNL     1      -9.606   9.703  66.808  1.00  0.00    -0.225 A  
HETATM    7  C   UNL     1      -8.685   9.414  65.791  1.00  0.00    -0.183 A  
HETATM    8  C   UNL     1      -9.488   9.086  68.049  1.00  0.00    -0.157 A  
HETATM    9  C   UNL     1      -8.837   9.997  64.542  1.00  0.00    -0.205 A  
HETATM   10  C   UNL     1     -10.440   9.266  69.061  1.00  0.00    -0.233 A  
HETATM   11  C   UNL     1      -9.921  10.832  64.296  1.00  0.00    -0.403 A  
HETATM   12 BR   UNL     1      -7.558   9.660  63.195  1.00  0.00    -0.123 Br 
HETATM   13  C   UNL     1     -10.419   8.373  70.343  1.00  0.00    -0.228 C  
HETATM   14  C   UNL     1     -10.833  11.111  65.326  1.00  0.00    -0.222 A  
HETATM   15  C   UNL     1     -11.784   8.283  71.060  1.00  0.00    -0.293 A  
HETATM   16  C   UNL     1      -9.548   6.975  70.231  1.00  0.00    -0.168 C  
HETATM   17  O   UNL     1      -8.141   7.416  70.173  1.00  0.00    -0.125 OA 
HETATM   18  C   UNL     1      -9.537   6.131  71.553  1.00  0.00    -0.172 C  
HETATM   19  C   UNL     1      -9.695   6.087  68.939  1.00  0.00    -0.159 A  
HETATM   20  C   UNL     1     -12.924   7.681  70.504  1.00  0.00     0.486 A  
HETATM   21  C   UNL     1      -7.880   3.627  66.709  1.00  0.00    -0.084 A  
HETATM   22  C   UNL     1     -10.772   6.321  68.058  1.00  0.00    -0.369 A  
HETATM   23  C   UNL     1     -14.180   7.799  71.106  1.00  0.00    -0.296 A  
HETATM   24  H   UNL     1      -7.640   6.612  70.109  1.00  0.00     0.000 HD 
HETATM   25  C   UNL     1     -10.867   5.749  66.791  1.00  0.00    -0.327 A  
HETATM   26  C   UNL     1      -6.769   3.267  67.459  1.00  0.00    -0.045 A  
HETATM   27  C   UNL     1     -14.324   8.505  72.294  1.00  0.00    -0.483 A  
HETATM   28  C   UNL     1      -9.896   4.866  66.368  1.00  0.00    -0.226 A  
HETATM   29  C   UNL     1     -13.205   9.065  72.899  1.00  0.00    -0.012 A  
HETATM   30  C   UNL     1      -6.581   3.838  68.705  1.00  0.00    -0.041 A  
HETATM   31  C   UNL     1      -7.516   4.760  69.197  1.00  0.00    -0.056 A  
HETATM   32  C   UNL     1     -11.948   8.952  72.293  1.00  0.00    -0.380 A  
HETATM   33  C   UNL     1      -8.829   4.539  67.202  1.00  0.00    -0.112 A  
HETATM   34  C   UNL     1      -8.691   5.140  68.494  1.00  0.00    -0.101 A  
BRANCH  18  35
HETATM   35  C   UNL     1     -10.808   5.407  72.005  1.00  0.00    -0.202 C  
BRANCH  35  36
HETATM   36  N   UNL     1     -10.957   5.379  73.484  1.00  0.00    -0.293 NA 
HETATM   37  C   UNL     1     -10.164   6.410  74.160  1.00  0.00    -0.343 C  
HETATM   38  C   UNL     1     -10.554   4.062  73.992  1.00  0.00    -0.232 C  
ENDBRANCH  35  36
ENDBRANCH  18  35
ENDBRANCH   2   3
TORSDOF 3
ENDMDL
MODEL       14
REMARK 921   NORMALIZED FREE ENERGY PREDICTED BY IDOCK:   -6.11 KCAL/MOL
REMARK 922        TOTAL FREE ENERGY PREDICTED BY IDOCK:   -7.96 KCAL/MOL
REMARK 923 INTER-LIGAND FREE ENERGY PREDICTED BY IDOCK:   -7.25 KCAL/MOL
REMARK 924 INTRA-LIGAND FREE ENERGY PREDICTED BY IDOCK:   -0.71 KCAL/MOL
REMARK 927      BINDING AFFINITY PREDICTED BY RF-SCORE:    0.00 PKD
ROOT
HETATM    1  C   UNL     1     -10.179   5.254  69.853  1.00  0.00    -0.294 C  
HETATM    2  O   UNL     1      -9.364   6.406  69.700  1.00  0.00    -0.144 OA 
ENDROOT
BRANCH   2   3
HETATM    3  C   UNL     1     -10.015   7.608  69.857  1.00  0.00    -0.190 A  
HETATM    4  N   UNL     1     -11.233   7.592  70.465  1.00  0.00    -0.267 NA 
HETATM    5  C   UNL     1     -11.798   8.762  70.802  1.00  0.00    -0.178 A  
HETATM    6  C   UNL     1     -11.123   9.983  70.622  1.00  0.00    -0.408 A  
HETATM    7  C   UNL     1     -11.677  11.205  71.027  1.00  0.00     0.045 A  
HETATM    8  C   UNL     1      -9.884   9.957  69.991  1.00  0.00    -0.291 A  
HETATM    9  C   UNL     1     -12.934  11.228  71.613  1.00  0.00    -0.432 A  
HETATM   10  C   UNL     1      -9.336   8.773  69.480  1.00  0.00    -0.157 A  
HETATM   11  C   UNL     1     -13.649  10.045  71.761  1.00  0.00    -0.330 A  
HETATM   12 BR   UNL     1     -13.650  12.866  72.218  1.00  0.00    -0.481 Br 
HETATM   13  C   UNL     1      -8.073   8.811  68.560  1.00  0.00    -0.116 C  
HETATM   14  C   UNL     1     -13.078   8.830  71.351  1.00  0.00    -0.297 A  
HETATM   15  C   UNL     1      -7.932   7.573  67.647  1.00  0.00    -0.117 A  
HETATM   16  C   UNL     1      -7.720  10.274  67.883  1.00  0.00    -0.089 C  
HETATM   17  O   UNL     1      -7.269  11.109  69.014  1.00  0.00    -0.100 OA 
HETATM   18  C   UNL     1      -6.429  10.263  66.994  1.00  0.00    -0.073 C  
HETATM   19  C   UNL     1      -8.888  11.126  67.257  1.00  0.00    -0.144 A  
HETATM   20  C   UNL     1      -8.830   7.252  66.617  1.00  0.00    -0.151 A  
HETATM   21  C   UNL     1     -10.026  14.657  66.517  1.00  0.00    -0.292 A  
HETATM   22  C   UNL     1     -10.132  10.510  67.002  1.00  0.00    -0.259 A  
HETATM   23  C   UNL     1      -8.770   6.023  65.952  1.00  0.00    -0.157 A  
HETATM   24  H   UNL     1      -7.066  11.951  68.625  1.00  0.00     0.000 HD 
HETATM   25  C   UNL     1     -11.283  11.218  66.664  1.00  0.00    -0.247 A  
HETATM   26  C   UNL     1      -8.878  15.414  66.704  1.00  0.00    -0.330 A  
HETATM   27  C   UNL     1      -7.795   5.093  66.287  1.00  0.00    -0.103 A  
HETATM   28  C   UNL     1     -11.222  12.587  66.514  1.00  0.00    -0.356 A  
HETATM   29  C   UNL     1      -6.857   5.403  67.263  1.00  0.00    -0.060 A  
HETATM   30  C   UNL     1      -7.710  14.785  67.095  1.00  0.00    -0.149 A  
HETATM   31  C   UNL     1      -7.697  13.396  67.287  1.00  0.00    -0.092 A  
HETATM   32  C   UNL     1      -6.919   6.630  67.934  1.00  0.00    -0.083 A  
HETATM   33  C   UNL     1     -10.017  13.263  66.692  1.00  0.00    -0.272 A  
HETATM   34  C   UNL     1      -8.829  12.563  67.075  1.00  0.00    -0.212 A  
BRANCH  18  35
HETATM   35  C   UNL     1      -6.440   9.541  65.644  1.00  0.00    -0.071 C  
BRANCH  35  36
HETATM   36  N   UNL     1      -6.779  10.444  64.512  1.00  0.00    -0.065 NA 
HETATM   37  C   UNL     1      -8.005  10.050  63.812  1.00  0.00    -0.153 C  
HETATM   38  C   UNL     1      -5.669  10.462  63.551  1.00  0.00    -0.141 C  
ENDBRANCH  35  36
ENDBRANCH  18  35
ENDBRANCH   2   3
TORSDOF 3
ENDMDL
MODEL       15
REMARK 921   NORMALIZED FREE ENERGY PREDICTED BY IDOCK:   -6.00 KCAL/MOL
REMARK 922        TOTAL FREE ENERGY PREDICTED BY IDOCK:   -7.83 KCAL/MOL
REMARK 923 INTER-LIGAND FREE ENERGY PREDICTED BY IDOCK:   -7.15 KCAL/MOL
REMARK 924 INTRA-LIGAND FREE ENERGY PREDICTED BY IDOCK:   -0.68 KCAL/MOL
REMARK 927      BINDING AFFINITY PREDICTED BY RF-SCORE:    0.00 PKD
ROOT
HETATM    1  C   UNL     1      -7.976  10.360  62.971  1.00  0.00    -0.138 C  
HETATM    2  O   UNL     1      -7.799  10.585  64.362  1.00  0.00    -0.104 OA 
ENDROOT
BRANCH   2   3
HETATM    3  C   UNL     1      -7.701   9.449  65.130  1.00  0.00    -0.109 A  
HETATM    4  N   UNL     1      -7.145   8.344  64.560  1.00  0.00    -0.076 NA 
HETATM    5  C   UNL     1      -6.864   7.290  65.341  1.00  0.00    -0.052 A  
HETATM    6  C   UNL     1      -7.049   7.338  66.734  1.00  0.00    -0.082 A  
HETATM    7  C   UNL     1      -6.701   6.265  67.567  1.00  0.00    -0.061 A  
HETATM    8  C   UNL     1      -7.626   8.481  67.277  1.00  0.00    -0.097 A  
HETATM    9  C   UNL     1      -6.169   5.111  67.013  1.00  0.00    -0.032 A  
HETATM   10  C   UNL     1      -8.081   9.536  66.475  1.00  0.00    -0.112 A  
HETATM   11  C   UNL     1      -6.020   5.012  65.634  1.00  0.00    -0.022 A  
HETATM   12 BR   UNL     1      -5.640   3.694  68.141  1.00  0.00    -0.018 Br 
HETATM   13  C   UNL     1      -8.947  10.685  67.085  1.00  0.00    -0.143 C  
HETATM   14  C   UNL     1      -6.372   6.096  64.815  1.00  0.00    -0.034 A  
HETATM   15  C   UNL     1      -9.819  11.423  66.047  1.00  0.00    -0.256 A  
HETATM   16  C   UNL     1      -9.648  10.360  68.544  1.00  0.00    -0.158 C  
HETATM   17  O   UNL     1      -8.522  10.321  69.498  1.00  0.00    -0.179 OA 
HETATM   18  C   UNL     1     -10.481  11.556  69.124  1.00  0.00    -0.135 C  
HETATM   19  C   UNL     1     -10.345   8.965  68.761  1.00  0.00    -0.232 A  
HETATM   20  C   UNL     1     -10.878  10.825  65.344  1.00  0.00    -0.062 A  
HETATM   21  C   UNL     1     -11.229   6.373  71.371  1.00  0.00    -0.340 A  
HETATM   22  C   UNL     1     -10.636   8.156  67.642  1.00  0.00    -0.258 A  
HETATM   23  C   UNL     1     -11.506  11.475  64.277  1.00  0.00    -0.271 A  
HETATM   24  H   UNL     1      -8.925  10.134  70.337  1.00  0.00     0.000 HD 
HETATM   25  C   UNL     1     -11.042   6.828  67.740  1.00  0.00    -0.285 A  
HETATM   26  C   UNL     1     -11.014   7.035  72.572  1.00  0.00    -0.298 A  
HETATM   27  C   UNL     1     -11.105  12.750  63.900  1.00  0.00    -0.477 A  
HETATM   28  C   UNL     1     -11.226   6.261  68.983  1.00  0.00    -0.415 A  
HETATM   29  C   UNL     1     -10.099  13.392  64.612  1.00  0.00    -0.256 A  
HETATM   30  C   UNL     1     -10.556   8.340  72.552  1.00  0.00    -0.407 A  
HETATM   31  C   UNL     1     -10.326   8.979  71.325  1.00  0.00    -0.383 A  
HETATM   32  C   UNL     1      -9.465  12.739  65.676  1.00  0.00     0.037 A  
HETATM   33  C   UNL     1     -11.015   7.012  70.138  1.00  0.00    -0.306 A  
HETATM   34  C   UNL     1     -10.564   8.368  70.064  1.00  0.00    -0.235 A  
BRANCH  18  35
HETATM   35  C   UNL     1     -11.811  11.944  68.471  1.00  0.00    -0.297 C  
BRANCH  35  36
HETATM   36  N   UNL     1     -12.282  13.291  68.886  1.00  0.00    -0.203 NA 
HETATM   37  C   UNL     1     -11.689  14.375  68.097  1.00  0.00    -0.342 C  
HETATM   38  C   UNL     1     -11.963  13.507  70.303  1.00  0.00    -0.316 C  
ENDBRANCH  35  36
ENDBRANCH  18  35
ENDBRANCH   2   3
TORSDOF 3
ENDMDL
MODEL       16
REMARK 921   NORMALIZED FREE ENERGY PREDICTED BY IDOCK:   -5.93 KCAL/MOL
REMARK 922        TOTAL FREE ENERGY PREDICTED BY IDOCK:   -7.75 KCAL/MOL
REMARK 923 INTER-LIGAND FREE ENERGY PREDICTED BY IDOCK:   -7.08 KCAL/MOL
REMARK 924 INTRA-LIGAND FREE ENERGY PREDICTED BY IDOCK:   -0.66 KCAL/MOL
REMARK 927      BINDING AFFINITY PREDICTED BY RF-SCORE:    0.00 PKD
ROOT
HETATM    1  C   UNL     1     -10.531   5.383  71.195  1.00  0.00    -0.225 C  
HETATM    2  O   UNL     1     -10.273   6.240  70.092  1.00  0.00    -0.177 OA 
ENDROOT
BRANCH   2   3
HETATM    3  C   UNL     1     -10.758   7.520  70.221  1.00  0.00    -0.238 A  
HETATM    4  N   UNL     1     -11.968   7.681  70.826  1.00  0.00    -0.223 NA 
HETATM    5  C   UNL     1     -12.372   8.923  71.136  1.00  0.00    -0.235 A  
HETATM    6  C   UNL     1     -11.540  10.038  70.930  1.00  0.00    -0.463 A  
HETATM    7  C   UNL     1     -11.927  11.333  71.306  1.00  0.00     0.030 A  
HETATM    8  C   UNL     1     -10.316   9.833  70.302  1.00  0.00    -0.348 A  
HETATM    9  C   UNL     1     -13.168  11.536  71.888  1.00  0.00    -0.374 A  
HETATM   10  C   UNL     1      -9.930   8.576  69.820  1.00  0.00    -0.191 A  
HETATM   11  C   UNL     1     -14.034  10.462  72.061  1.00  0.00     0.215 A  
HETATM   12 BR   UNL     1     -13.660  13.268  72.455  1.00  0.00    -0.620 Br 
HETATM   13  C   UNL     1      -8.674   8.425  68.903  1.00  0.00    -0.136 C  
HETATM   14  C   UNL     1     -13.631   9.173  71.679  1.00  0.00    -0.451 A  
HETATM   15  C   UNL     1      -8.699   7.159  68.018  1.00  0.00    -0.127 A  
HETATM   16  C   UNL     1      -8.130   9.813  68.194  1.00  0.00    -0.108 C  
HETATM   17  O   UNL     1      -7.571  10.605  69.307  1.00  0.00    -0.118 OA 
HETATM   18  C   UNL     1      -6.852   9.610  67.308  1.00  0.00    -0.083 C  
HETATM   19  C   UNL     1      -9.174  10.798  67.546  1.00  0.00    -0.150 A  
HETATM   20  C   UNL     1      -9.633   6.938  66.993  1.00  0.00    -0.197 A  
HETATM   21  C   UNL     1      -9.832  14.431  66.724  1.00  0.00    -0.269 A  
HETATM   22  C   UNL     1     -10.489  10.348  67.302  1.00  0.00    -0.304 A  
HETATM   23  C   UNL     1      -9.737   5.697  66.355  1.00  0.00    -0.180 A  
HETATM   24  H   UNL     1      -7.258  11.403  68.899  1.00  0.00     0.000 HD 
HETATM   25  C   UNL     1     -11.536  11.194  66.945  1.00  0.00    -0.054 A  
HETATM   26  C   UNL     1      -8.593  15.033  66.897  1.00  0.00    -0.280 A  
HETATM   27  C   UNL     1      -8.895   4.653  66.713  1.00  0.00    -0.111 A  
HETATM   28  C   UNL     1     -11.294  12.540  66.764  1.00  0.00    -0.390 A  
HETATM   29  C   UNL     1      -7.923   4.857  67.685  1.00  0.00    -0.094 A  
HETATM   30  C   UNL     1      -7.520  14.263  67.305  1.00  0.00    -0.082 A  
HETATM   31  C   UNL     1      -7.691  12.890  67.529  1.00  0.00    -0.174 A  
HETATM   32  C   UNL     1      -7.822   6.097  68.328  1.00  0.00    -0.104 A  
HETATM   33  C   UNL     1     -10.009  13.053  66.931  1.00  0.00    -0.243 A  
HETATM   34  C   UNL     1      -8.924  12.210  67.332  1.00  0.00    -0.180 A  
BRANCH  18  35
HETATM   35  C   UNL     1      -6.960   8.866  65.974  1.00  0.00    -0.084 C  
BRANCH  35  36
HETATM   36  N   UNL     1      -6.485   9.678  64.823  1.00  0.00    -0.085 NA 
HETATM   37  C   UNL     1      -5.627  10.796  65.226  1.00  0.00    -0.106 C  
HETATM   38  C   UNL     1      -7.641  10.208  64.089  1.00  0.00    -0.125 C  
ENDBRANCH  35  36
ENDBRANCH  18  35
ENDBRANCH   2   3
TORSDOF 3
ENDMDL
MODEL       17
REMARK 921   NORMALIZED FREE ENERGY PREDICTED BY IDOCK:   -5.89 KCAL/MOL
REMARK 922        TOTAL FREE ENERGY PREDICTED BY IDOCK:   -7.70 KCAL/MOL
REMARK 923 INTER-LIGAND FREE ENERGY PREDICTED BY IDOCK:   -7.06 KCAL/MOL
REMARK 924 INTRA-LIGAND FREE ENERGY PREDICTED BY IDOCK:   -0.64 KCAL/MOL
REMARK 927      BINDING AFFINITY PREDICTED BY RF-SCORE:    0.00 PKD
ROOT
HETATM    1  C   UNL     1     -12.559  10.745  71.323  1.00  0.00    -0.426 C  
HETATM    2  O   UNL     1     -11.281  10.336  70.857  1.00  0.00    -0.336 OA 
ENDROOT
BRANCH   2   3
HETATM    3  C   UNL     1     -10.964   9.019  71.101  1.00  0.00    -0.301 A  
HETATM    4  N   UNL     1     -10.856   8.624  72.400  1.00  0.00    -0.311 NA 
HETATM    5  C   UNL     1     -10.739   7.314  72.666  1.00  0.00    -0.278 A  
HETATM    6  C   UNL     1     -10.815   6.348  71.646  1.00  0.00    -0.291 A  
HETATM    7  C   UNL     1     -10.756   4.974  71.919  1.00  0.00    -0.181 A  
HETATM    8  C   UNL     1     -10.918   6.793  70.332  1.00  0.00    -0.330 A  
HETATM    9  C   UNL     1     -10.607   4.540  73.227  1.00  0.00    -0.216 A  
HETATM   10  C   UNL     1     -10.880   8.154  70.003  1.00  0.00    -0.233 A  
HETATM   11  C   UNL     1     -10.479   5.470  74.253  1.00  0.00    -0.275 A  
HETATM   12 BR   UNL     1     -10.595   2.690  73.599  1.00  0.00    -0.274 Br 
HETATM   13  C   UNL     1     -10.743   8.611  68.516  1.00  0.00    -0.091 C  
HETATM   14  C   UNL     1     -10.541   6.842  73.962  1.00  0.00    -0.185 A  
HETATM   15  C   UNL     1     -10.158  10.031  68.353  1.00  0.00    -0.186 A  
HETATM   16  C   UNL     1     -10.207   7.464  67.457  1.00  0.00    -0.224 C  
HETATM   17  O   UNL     1     -11.321   6.502  67.354  1.00  0.00    -0.694 OA 
HETATM   18  C   UNL     1     -10.116   7.967  65.974  1.00  0.00     0.394 C  
HETATM   19  C   UNL     1      -8.990   6.554  67.871  1.00  0.00    -0.115 A  
HETATM   20  C   UNL     1      -8.848  10.386  68.716  1.00  0.00    -0.157 A  
HETATM   21  C   UNL     1      -7.432   3.141  67.383  1.00  0.00    -0.062 A  
HETATM   22  C   UNL     1      -8.192   6.927  68.973  1.00  0.00    -0.125 A  
HETATM   23  C   UNL     1      -8.432  11.721  68.734  1.00  0.00     0.005 A  
HETATM   24  H   UNL     1     -11.013   5.842  66.745  1.00  0.00     0.000 HD 
HETATM   25  C   UNL     1      -7.242   6.089  69.552  1.00  0.00    -0.070 A  
HETATM   26  C   UNL     1      -8.110   2.629  66.285  1.00  0.00    -0.084 A  
HETATM   27  C   UNL     1      -9.309  12.733  68.368  1.00  0.00    -0.143 A  
HETATM   28  C   UNL     1      -7.013   4.841  69.011  1.00  0.00    -0.052 A  
HETATM   29  C   UNL     1     -10.594  12.410  67.950  1.00  0.00    -0.231 A  
HETATM   30  C   UNL     1      -9.105   3.384  65.693  1.00  0.00    -0.151 A  
HETATM   31  C   UNL     1      -9.410   4.656  66.199  1.00  0.00    -0.153 A  
HETATM   32  C   UNL     1     -11.014  11.075  67.937  1.00  0.00    -0.317 A  
HETATM   33  C   UNL     1      -7.721   4.421  67.886  1.00  0.00    -0.080 A  
HETATM   34  C   UNL     1      -8.727   5.250  67.295  1.00  0.00    -0.107 A  
BRANCH  18  35
HETATM   35  C   UNL     1      -9.029   8.970  65.576  1.00  0.00    -0.204 C  
BRANCH  35  36
HETATM   36  N   UNL     1      -9.364   9.716  64.334  1.00  0.00    -0.219 NA 
HETATM   37  C   UNL     1      -8.408   9.479  63.248  1.00  0.00    -0.181 C  
HETATM   38  C   UNL     1      -9.404  11.155  64.624  1.00  0.00    -0.175 C  
ENDBRANCH  35  36
ENDBRANCH  18  35
ENDBRANCH   2   3
TORSDOF 3
ENDMDL
MODEL       18
REMARK 921   NORMALIZED FREE ENERGY PREDICTED BY IDOCK:   -5.86 KCAL/MOL
REMARK 922        TOTAL FREE ENERGY PREDICTED BY IDOCK:   -7.67 KCAL/MOL
REMARK 923 INTER-LIGAND FREE ENERGY PREDICTED BY IDOCK:   -7.00 KCAL/MOL
REMARK 924 INTRA-LIGAND FREE ENERGY PREDICTED BY IDOCK:   -0.66 KCAL/MOL
REMARK 927      BINDING AFFINITY PREDICTED BY RF-SCORE:    0.00 PKD
ROOT
HETATM    1  C   UNL     1      -9.861   4.035  71.979  1.00  0.00    -0.172 C  
HETATM    2  O   UNL     1     -10.513   4.653  70.879  1.00  0.00    -0.123 OA 
ENDROOT
BRANCH   2   3
HETATM    3  C   UNL     1      -9.879   4.505  69.667  1.00  0.00    -0.218 A  
HETATM    4  N   UNL     1      -9.209   3.341  69.441  1.00  0.00    -0.140 NA 
HETATM    5  C   UNL     1      -8.749   3.093  68.205  1.00  0.00    -0.107 A  
HETATM    6  C   UNL     1      -9.022   3.961  67.132  1.00  0.00    -0.152 A  
HETATM    7  C   UNL     1      -8.600   3.683  65.825  1.00  0.00    -0.114 A  
HETATM    8  C   UNL     1      -9.702   5.144  67.406  1.00  0.00    -0.172 A  
HETATM    9  C   UNL     1      -7.881   2.525  65.568  1.00  0.00    -0.078 A  
HETATM   10  C   UNL     1     -10.056   5.512  68.711  1.00  0.00    -0.256 A  
HETATM   11  C   UNL     1      -7.552   1.670  66.614  1.00  0.00    -0.064 A  
HETATM   12 BR   UNL     1      -7.371   2.118  63.797  1.00  0.00    -0.054 Br 
HETATM   13  C   UNL     1     -10.588   6.949  69.016  1.00  0.00    -0.240 C  
HETATM   14  C   UNL     1      -7.984   1.964  67.917  1.00  0.00    -0.061 A  
HETATM   15  C   UNL     1     -10.395   7.383  70.485  1.00  0.00    -0.220 A  
HETATM   16  C   UNL     1     -10.287   8.089  67.861  1.00  0.00    -0.222 C  
HETATM   17  O   UNL     1     -11.149   7.705  66.726  1.00  0.00    -0.421 OA 
HETATM   18  C   UNL     1     -10.868   9.504  68.205  1.00  0.00    -0.208 C  
HETATM   19  C   UNL     1      -8.854   8.156  67.212  1.00  0.00    -0.136 A  
HETATM   20  C   UNL     1      -9.141   7.582  71.086  1.00  0.00    -0.149 A  
HETATM   21  C   UNL     1      -6.974   9.090  64.065  1.00  0.00    -0.087 A  
HETATM   22  C   UNL     1      -7.783   7.475  67.830  1.00  0.00    -0.115 A  
HETATM   23  C   UNL     1      -9.015   7.781  72.464  1.00  0.00    -0.213 A  
HETATM   24  H   UNL     1     -10.975   8.361  66.061  1.00  0.00     0.000 HD 
HETATM   25  C   UNL     1      -6.542   7.288  67.226  1.00  0.00    -0.063 A  
HETATM   26  C   UNL     1      -7.907   9.810  63.331  1.00  0.00    -0.145 A  
HETATM   27  C   UNL     1     -10.143   7.808  73.274  1.00  0.00    -0.374 A  
HETATM   28  C   UNL     1      -6.302   7.827  65.980  1.00  0.00    -0.042 A  
HETATM   29  C   UNL     1     -11.402   7.671  72.703  1.00  0.00    -0.423 A  
HETATM   30  C   UNL     1      -9.179   9.988  63.844  1.00  0.00    -0.317 A  
HETATM   31  C   UNL     1      -9.506   9.451  65.098  1.00  0.00    -0.255 A  
HETATM   32  C   UNL     1     -11.529   7.466  71.324  1.00  0.00    -0.297 A  
HETATM   33  C   UNL     1      -7.290   8.563  65.329  1.00  0.00    -0.084 A  
HETATM   34  C   UNL     1      -8.584   8.739  65.913  1.00  0.00    -0.174 A  
BRANCH  18  35
HETATM   35  C   UNL     1     -10.232  10.338  69.321  1.00  0.00    -0.227 C  
BRANCH  35  36
HETATM   36  N   UNL     1     -11.120  11.429  69.801  1.00  0.00    -0.183 NA 
HETATM   37  C   UNL     1     -12.238  10.941  70.614  1.00  0.00    -0.376 C  
HETATM   38  C   UNL     1     -11.657  12.165  68.650  1.00  0.00    -0.321 C  
ENDBRANCH  35  36
ENDBRANCH  18  35
ENDBRANCH   2   3
TORSDOF 3
ENDMDL
MODEL       19
REMARK 921   NORMALIZED FREE ENERGY PREDICTED BY IDOCK:   -5.85 KCAL/MOL
REMARK 922        TOTAL FREE ENERGY PREDICTED BY IDOCK:   -7.66 KCAL/MOL
REMARK 923 INTER-LIGAND FREE ENERGY PREDICTED BY IDOCK:   -6.84 KCAL/MOL
REMARK 924 INTRA-LIGAND FREE ENERGY PREDICTED BY IDOCK:   -0.81 KCAL/MOL
REMARK 927      BINDING AFFINITY PREDICTED BY RF-SCORE:    0.00 PKD
ROOT
HETATM    1  C   UNL     1     -11.689  10.786  70.068  1.00  0.00    -0.336 C  
HETATM    2  O   UNL     1     -10.537   9.957  70.036  1.00  0.00    -0.247 OA 
ENDROOT
BRANCH   2   3
HETATM    3  C   UNL     1     -10.145   9.547  68.783  1.00  0.00    -0.188 A  
HETATM    4  N   UNL     1     -10.492  10.330  67.724  1.00  0.00    -0.208 NA 
HETATM    5  C   UNL     1      -9.962  10.057  66.522  1.00  0.00    -0.225 A  
HETATM    6  C   UNL     1      -8.998   9.047  66.356  1.00  0.00    -0.189 A  
HETATM    7  C   UNL     1      -8.392   8.793  65.118  1.00  0.00    -0.176 A  
HETATM    8  C   UNL     1      -8.677   8.264  67.460  1.00  0.00    -0.129 A  
HETATM    9  C   UNL     1      -8.753   9.547  64.011  1.00  0.00    -0.216 A  
HETATM   10  C   UNL     1      -9.328   8.414  68.692  1.00  0.00    -0.143 A  
HETATM   11  C   UNL     1      -9.738  10.521  64.129  1.00  0.00    -0.388 A  
HETATM   12 BR   UNL     1      -7.888   9.250  62.360  1.00  0.00    -0.131 Br 
HETATM   13  C   UNL     1      -9.129   7.364  69.832  1.00  0.00    -0.141 C  
HETATM   14  C   UNL     1     -10.334  10.761  65.377  1.00  0.00    -0.315 A  
HETATM   15  C   UNL     1     -10.284   7.332  70.856  1.00  0.00    -0.203 A  
HETATM   16  C   UNL     1      -8.511   5.906  69.367  1.00  0.00    -0.113 C  
HETATM   17  O   UNL     1      -7.110   6.194  69.002  1.00  0.00    -0.075 OA 
HETATM   18  C   UNL     1      -8.304   4.901  70.553  1.00  0.00    -0.098 C  
HETATM   19  C   UNL     1      -9.080   5.215  68.071  1.00  0.00    -0.123 A  
HETATM   20  C   UNL     1     -11.595   6.936  70.546  1.00  0.00    -0.396 A  
HETATM   21  C   UNL     1      -8.202   2.883  65.225  1.00  0.00    -0.091 A  
HETATM   22  C   UNL     1     -10.292   5.679  67.517  1.00  0.00    -0.277 A  
HETATM   23  C   UNL     1     -12.645   7.112  71.454  1.00  0.00    -0.432 A  
HETATM   24  H   UNL     1      -6.755   5.355  68.735  1.00  0.00     0.000 HD 
HETATM   25  C   UNL     1     -10.761   5.291  66.264  1.00  0.00    -0.260 A  
HETATM   26  C   UNL     1      -7.006   2.309  65.633  1.00  0.00    -0.047 A  
HETATM   27  C   UNL     1     -12.405   7.669  72.703  1.00  0.00     0.016 A  
HETATM   28  C   UNL     1     -10.050   4.370  65.524  1.00  0.00    -0.251 A  
HETATM   29  C   UNL     1     -11.108   8.019  73.061  1.00  0.00    -0.301 A  
HETATM   30  C   UNL     1      -6.452   2.688  66.841  1.00  0.00    -0.035 A  
HETATM   31  C   UNL     1      -7.107   3.635  67.642  1.00  0.00    -0.055 A  
HETATM   32  C   UNL     1     -10.058   7.849  72.151  1.00  0.00    -0.279 A  
HETATM   33  C   UNL     1      -8.872   3.822  66.028  1.00  0.00    -0.126 A  
HETATM   34  C   UNL     1      -8.351   4.230  67.297  1.00  0.00    -0.100 A  
BRANCH  18  35
HETATM   35  C   UNL     1      -9.520   4.268  71.236  1.00  0.00    -0.160 C  
BRANCH  35  36
HETATM   36  N   UNL     1      -9.294   4.002  72.680  1.00  0.00    -0.116 NA 
HETATM   37  C   UNL     1     -10.368   4.518  73.534  1.00  0.00    -0.188 C  
HETATM   38  C   UNL     1      -8.024   4.610  73.097  1.00  0.00    -0.100 C  
ENDBRANCH  35  36
ENDBRANCH  18  35
ENDBRANCH   2   3
TORSDOF 3
ENDMDL
MODEL       20
REMARK 921   NORMALIZED FREE ENERGY PREDICTED BY IDOCK:   -5.85 KCAL/MOL
REMARK 922        TOTAL FREE ENERGY PREDICTED BY IDOCK:   -7.65 KCAL/MOL
REMARK 923 INTER-LIGAND FREE ENERGY PREDICTED BY IDOCK:   -6.82 KCAL/MOL
REMARK 924 INTRA-LIGAND FREE ENERGY PREDICTED BY IDOCK:   -0.83 KCAL/MOL
REMARK 927      BINDING AFFINITY PREDICTED BY RF-SCORE:    0.00 PKD
ROOT
HETATM    1  C   UNL     1      -5.145   7.066  66.274  1.00  0.00    -0.022 C  
HETATM    2  O   UNL     1      -5.700   8.083  67.096  1.00  0.00    -0.036 OA 
ENDROOT
BRANCH   2   3
HETATM    3  C   UNL     1      -6.277   7.639  68.264  1.00  0.00    -0.040 A  
HETATM    4  N   UNL     1      -5.745   6.532  68.852  1.00  0.00    -0.016 NA 
HETATM    5  C   UNL     1      -6.162   6.194  70.082  1.00  0.00    -0.031 A  
HETATM    6  C   UNL     1      -7.061   7.003  70.801  1.00  0.00    -0.067 A  
HETATM    7  C   UNL     1      -7.456   6.693  72.109  1.00  0.00    -0.094 A  
HETATM    8  C   UNL     1      -7.586   8.122  70.162  1.00  0.00    -0.077 A  
HETATM    9  C   UNL     1      -6.964   5.551  72.722  1.00  0.00    -0.083 A  
HETATM   10  C   UNL     1      -7.299   8.416  68.823  1.00  0.00    -0.087 A  
HETATM   11  C   UNL     1      -6.113   4.703  72.022  1.00  0.00    -0.021 A  
HETATM   12 BR   UNL     1      -7.444   5.171  74.507  1.00  0.00    -0.089 Br 
HETATM   13  C   UNL     1      -8.094   9.525  68.062  1.00  0.00    -0.102 C  
HETATM   14  C   UNL     1      -5.727   5.030  70.712  1.00  0.00    -0.016 A  
HETATM   15  C   UNL     1      -8.083   9.355  66.527  1.00  0.00    -0.111 A  
HETATM   16  C   UNL     1      -9.525   9.981  68.746  1.00  0.00    -0.162 C  
HETATM   17  O   UNL     1      -9.138  10.705  69.972  1.00  0.00    -0.286 OA 
HETATM   18  C   UNL     1     -10.267  11.116  67.958  1.00  0.00    -0.201 C  
HETATM   19  C   UNL     1     -10.502   8.869  69.284  1.00  0.00    -0.234 A  
HETATM   20  C   UNL     1      -8.686   8.281  65.853  1.00  0.00    -0.187 A  
HETATM   21  C   UNL     1     -13.182   8.152  71.855  1.00  0.00    -0.348 A  
HETATM   22  C   UNL     1     -10.298   7.527  68.901  1.00  0.00    -0.220 A  
HETATM   23  C   UNL     1      -8.480   8.068  64.486  1.00  0.00     0.025 A  
HETATM   24  H   UNL     1      -9.961  10.968  70.366  1.00  0.00     0.000 HD 
HETATM   25  C   UNL     1     -10.959   6.452  69.490  1.00  0.00    -0.421 A  
HETATM   26  C   UNL     1     -13.523   9.411  72.330  1.00  0.00    -0.539 A  
HETATM   27  C   UNL     1      -7.682   8.938  63.754  1.00  0.00    -0.129 A  
HETATM   28  C   UNL     1     -11.904   6.685  70.467  1.00  0.00    -0.430 A  
HETATM   29  C   UNL     1      -7.117  10.042  64.381  1.00  0.00    -0.135 A  
HETATM   30  C   UNL     1     -12.867  10.521  71.830  1.00  0.00    -0.559 A  
HETATM   31  C   UNL     1     -11.879  10.364  70.847  1.00  0.00    -0.475 A  
HETATM   32  C   UNL     1      -7.318  10.253  65.750  1.00  0.00    -0.140 A  
HETATM   33  C   UNL     1     -12.204   7.987  70.860  1.00  0.00    -0.122 A  
HETATM   34  C   UNL     1     -11.513   9.106  70.295  1.00  0.00    -0.174 A  
BRANCH  18  35
HETATM   35  C   UNL     1     -10.911  10.807  66.604  1.00  0.00    -0.106 C  
BRANCH  35  36
HETATM   36  N   UNL     1     -10.807  11.939  65.646  1.00  0.00    -0.278 NA 
HETATM   37  C   UNL     1     -11.980  12.818  65.667  1.00  0.00    -0.452 C  
HETATM   38  C   UNL     1     -10.631  11.416  64.286  1.00  0.00    -0.355 C  
ENDBRANCH  35  36
ENDBRANCH  18  35
ENDBRANCH   2   3
TORSDOF 3
ENDMDL
MODEL       21
REMARK 921   NORMALIZED FREE ENERGY PREDICTED BY IDOCK:   -5.80 KCAL/MOL
REMARK 922        TOTAL FREE ENERGY PREDICTED BY IDOCK:   -7.59 KCAL/MOL
REMARK 923 INTER-LIGAND FREE ENERGY PREDICTED BY IDOCK:   -6.79 KCAL/MOL
REMARK 924 INTRA-LIGAND FREE ENERGY PREDICTED BY IDOCK:   -0.81 KCAL/MOL
REMARK 927      BINDING AFFINITY PREDICTED BY RF-SCORE:    0.00 PKD
ROOT
HETATM    1  C   UNL     1      -9.730   4.455  71.846  1.00  0.00    -0.170 C  
HETATM    2  O   UNL     1     -10.413   5.228  70.871  1.00  0.00    -0.241 OA 
ENDROOT
BRANCH   2   3
HETATM    3  C   UNL     1     -10.038   4.990  69.569  1.00  0.00    -0.231 A  
HETATM    4  N   UNL     1      -9.619   3.734  69.250  1.00  0.00    -0.178 NA 
HETATM    5  C   UNL     1      -9.433   3.427  67.957  1.00  0.00    -0.156 A  
HETATM    6  C   UNL     1      -9.746   4.340  66.933  1.00  0.00    -0.239 A  
HETATM    7  C   UNL     1      -9.614   4.009  65.578  1.00  0.00    -0.189 A  
HETATM    8  C   UNL     1     -10.163   5.615  67.300  1.00  0.00    -0.250 A  
HETATM    9  C   UNL     1      -9.152   2.751  65.220  1.00  0.00    -0.148 A  
HETATM   10  C   UNL     1     -10.214   6.023  68.640  1.00  0.00    -0.233 A  
HETATM   11  C   UNL     1      -8.788   1.843  66.208  1.00  0.00    -0.118 A  
HETATM   12 BR   UNL     1      -9.038   2.284  63.395  1.00  0.00    -0.094 Br 
HETATM   13  C   UNL     1     -10.441   7.524  69.008  1.00  0.00    -0.216 C  
HETATM   14  C   UNL     1      -8.927   2.190  67.560  1.00  0.00    -0.183 A  
HETATM   15  C   UNL     1      -9.922   7.906  70.411  1.00  0.00    -0.192 A  
HETATM   16  C   UNL     1     -10.167   8.611  67.795  1.00  0.00    -0.225 C  
HETATM   17  O   UNL     1     -11.267   8.387  66.838  1.00  0.00    -0.055 OA 
HETATM   18  C   UNL     1     -10.437  10.099  68.210  1.00  0.00    -0.244 C  
HETATM   19  C   UNL     1      -8.880   8.447  66.903  1.00  0.00    -0.157 A  
HETATM   20  C   UNL     1      -8.566   7.889  70.776  1.00  0.00    -0.132 A  
HETATM   21  C   UNL     1      -7.462   9.093  63.455  1.00  0.00    -0.102 A  
HETATM   22  C   UNL     1      -7.843   7.593  67.334  1.00  0.00    -0.118 A  
HETATM   23  C   UNL     1      -8.166   8.050  72.106  1.00  0.00    -0.178 A  
HETATM   24  H   UNL     1     -11.109   9.012  66.141  1.00  0.00     0.000 HD 
HETATM   25  C   UNL     1      -6.777   7.210  66.524  1.00  0.00    -0.057 A  
HETATM   26  C   UNL     1      -8.380   9.964  62.884  1.00  0.00    -0.160 A  
HETATM   27  C   UNL     1      -9.112   8.254  73.102  1.00  0.00    -0.305 A  
HETATM   28  C   UNL     1      -6.676   7.716  65.244  1.00  0.00    -0.044 A  
HETATM   29  C   UNL     1     -10.457   8.332  72.765  1.00  0.00    -0.329 A  
HETATM   30  C   UNL     1      -9.493  10.343  63.611  1.00  0.00    -0.353 A  
HETATM   31  C   UNL     1      -9.676   9.855  64.912  1.00  0.00    -0.332 A  
HETATM   32  C   UNL     1     -10.859   8.165  71.435  1.00  0.00    -0.281 A  
HETATM   33  C   UNL     1      -7.630   8.611  64.764  1.00  0.00    -0.102 A  
HETATM   34  C   UNL     1      -8.754   8.992  65.565  1.00  0.00    -0.212 A  
BRANCH  18  35
HETATM   35  C   UNL     1      -9.485  10.805  69.179  1.00  0.00    -0.134 C  
BRANCH  35  36
HETATM   36  N   UNL     1      -8.806  11.977  68.566  1.00  0.00    -0.140 NA 
HETATM   37  C   UNL     1      -9.541  12.533  67.425  1.00  0.00    -0.192 C  
HETATM   38  C   UNL     1      -7.463  11.588  68.121  1.00  0.00    -0.101 C  
ENDBRANCH  35  36
ENDBRANCH  18  35
ENDBRANCH   2   3
TORSDOF 3
ENDMDL
MODEL       22
REMARK 921   NORMALIZED FREE ENERGY PREDICTED BY IDOCK:   -5.78 KCAL/MOL
REMARK 922        TOTAL FREE ENERGY PREDICTED BY IDOCK:   -7.57 KCAL/MOL
REMARK 923 INTER-LIGAND FREE ENERGY PREDICTED BY IDOCK:   -7.10 KCAL/MOL
REMARK 924 INTRA-LIGAND FREE ENERGY PREDICTED BY IDOCK:   -0.47 KCAL/MOL
REMARK 927      BINDING AFFINITY PREDICTED BY RF-SCORE:    0.00 PKD
ROOT
HETATM    1  C   UNL     1      -8.496   8.592  65.189  1.00  0.00    -0.175 C  
HETATM    2  O   UNL     1      -8.644   9.808  65.906  1.00  0.00    -0.131 OA 
ENDROOT
BRANCH   2   3
HETATM    3  C   UNL     1      -8.943   9.666  67.241  1.00  0.00    -0.134 A  
HETATM    4  N   UNL     1      -8.835   8.422  67.786  1.00  0.00    -0.137 NA 
HETATM    5  C   UNL     1      -8.933   8.293  69.117  1.00  0.00    -0.147 A  
HETATM    6  C   UNL     1      -9.054   9.415  69.958  1.00  0.00    -0.244 A  
HETATM    7  C   UNL     1      -9.096   9.296  71.354  1.00  0.00    -0.050 A  
HETATM    8  C   UNL     1      -9.170  10.667  69.363  1.00  0.00    -0.073 A  
HETATM    9  C   UNL     1      -9.028   8.040  71.938  1.00  0.00    -0.149 A  
HETATM   10  C   UNL     1      -9.234  10.825  67.972  1.00  0.00    -0.150 A  
HETATM   11  C   UNL     1      -8.957   6.908  71.135  1.00  0.00    -0.143 A  
HETATM   12 BR   UNL     1      -9.016   7.887  73.819  1.00  0.00    -0.269 Br 
HETATM   13  C   UNL     1      -9.614  12.204  67.343  1.00  0.00    -0.177 C  
HETATM   14  C   UNL     1      -8.916   7.045  69.739  1.00  0.00    -0.141 A  
HETATM   15  C   UNL     1     -10.187  12.098  65.913  1.00  0.00    -0.272 A  
HETATM   16  C   UNL     1     -10.349  13.278  68.358  1.00  0.00    -0.251 C  
HETATM   17  O   UNL     1      -9.291  13.683  69.303  1.00  0.00    -0.252 OA 
HETATM   18  C   UNL     1     -10.683  14.655  67.685  1.00  0.00    -0.271 C  
HETATM   19  C   UNL     1     -11.496  12.767  69.308  1.00  0.00    -0.349 A  
HETATM   20  C   UNL     1     -11.407  11.475  65.601  1.00  0.00    -0.151 A  
HETATM   21  C   UNL     1     -13.190  13.367  72.637  1.00  0.00    -0.436 A  
HETATM   22  C   UNL     1     -12.085  11.508  69.065  1.00  0.00    -0.303 A  
HETATM   23  C   UNL     1     -11.785  11.232  64.277  1.00  0.00     0.193 A  
HETATM   24  H   UNL     1      -9.713  14.301  69.886  1.00  0.00     0.000 HD 
HETATM   25  C   UNL     1     -12.939  10.874  69.964  1.00  0.00     0.046 A  
HETATM   26  C   UNL     1     -12.722  14.617  73.019  1.00  0.00    -0.520 A  
HETATM   27  C   UNL     1     -10.962  11.625  63.230  1.00  0.00    -0.361 A  
HETATM   28  C   UNL     1     -13.285  11.507  71.140  1.00  0.00    -0.012 A  
HETATM   29  C   UNL     1      -9.775  12.294  63.504  1.00  0.00     0.000 A  
HETATM   30  C   UNL     1     -11.827  15.282  72.201  1.00  0.00    -0.526 A  
HETATM   31  C   UNL     1     -11.412  14.694  70.998  1.00  0.00    -0.211 A  
HETATM   32  C   UNL     1      -9.393  12.533  64.829  1.00  0.00     0.470 A  
HETATM   33  C   UNL     1     -12.790  12.778  71.426  1.00  0.00    -0.371 A  
HETATM   34  C   UNL     1     -11.884  13.435  70.535  1.00  0.00    -0.236 A  
BRANCH  18  35
HETATM   35  C   UNL     1     -11.800  14.741  66.640  1.00  0.00    -0.242 C  
BRANCH  35  36
HETATM   36  N   UNL     1     -11.292  15.070  65.282  1.00  0.00    -0.358 NA 
HETATM   37  C   UNL     1     -10.719  16.416  65.195  1.00  0.00    -0.291 C  
HETATM   38  C   UNL     1     -12.386  14.957  64.310  1.00  0.00    -0.277 C  
ENDBRANCH  35  36
ENDBRANCH  18  35
ENDBRANCH   2   3
TORSDOF 3
ENDMDL
MODEL       23
REMARK 921   NORMALIZED FREE ENERGY PREDICTED BY IDOCK:   -5.77 KCAL/MOL
REMARK 922        TOTAL FREE ENERGY PREDICTED BY IDOCK:   -7.57 KCAL/MOL
REMARK 923 INTER-LIGAND FREE ENERGY PREDICTED BY IDOCK:   -6.96 KCAL/MOL
REMARK 924 INTRA-LIGAND FREE ENERGY PREDICTED BY IDOCK:   -0.60 KCAL/MOL
REMARK 927      BINDING AFFINITY PREDICTED BY RF-SCORE:    0.00 PKD
ROOT
HETATM    1  C   UNL     1      -9.285  11.139  62.471  1.00  0.00    -0.276 C  
HETATM    2  O   UNL     1      -8.652  11.046  63.739  1.00  0.00    -0.028 OA 
ENDROOT
BRANCH   2   3
HETATM    3  C   UNL     1      -8.457   9.765  64.201  1.00  0.00    -0.177 A  
HETATM    4  N   UNL     1      -8.221   8.789  63.281  1.00  0.00    -0.178 NA 
HETATM    5  C   UNL     1      -7.839   7.577  63.713  1.00  0.00    -0.112 A  
HETATM    6  C   UNL     1      -7.595   7.326  65.075  1.00  0.00    -0.107 A  
HETATM    7  C   UNL     1      -7.137   6.082  65.531  1.00  0.00    -0.069 A  
HETATM    8  C   UNL     1      -7.857   8.346  65.984  1.00  0.00    -0.098 A  
HETATM    9  C   UNL     1      -6.924   5.055  64.624  1.00  0.00    -0.050 A  
HETATM   10  C   UNL     1      -8.409   9.571  65.587  1.00  0.00    -0.131 A  
HETATM   11  C   UNL     1      -7.202   5.255  63.277  1.00  0.00    -0.048 A  
HETATM   12 BR   UNL     1      -6.244   3.402  65.231  1.00  0.00    -0.024 Br 
HETATM   13  C   UNL     1      -8.924  10.595  66.649  1.00  0.00    -0.162 C  
HETATM   14  C   UNL     1      -7.659   6.507  62.838  1.00  0.00    -0.085 A  
HETATM   15  C   UNL     1      -9.977  11.582  66.101  1.00  0.00    -0.257 A  
HETATM   16  C   UNL     1      -9.192   9.990  68.161  1.00  0.00    -0.128 C  
HETATM   17  O   UNL     1      -7.846   9.692  68.687  1.00  0.00    -0.080 OA 
HETATM   18  C   UNL     1      -9.679  11.065  69.193  1.00  0.00    -0.096 C  
HETATM   19  C   UNL     1      -9.943   8.614  68.308  1.00  0.00    -0.207 A  
HETATM   20  C   UNL     1     -11.256  11.201  65.662  1.00  0.00     0.008 A  
HETATM   21  C   UNL     1     -10.294   5.554  70.505  1.00  0.00    -0.342 A  
HETATM   22  C   UNL     1     -10.640   8.085  67.201  1.00  0.00    -0.367 A  
HETATM   23  C   UNL     1     -12.096  12.097  64.994  1.00  0.00    -0.311 A  
HETATM   24  H   UNL     1      -8.000   9.344  69.557  1.00  0.00     0.000 HD 
HETATM   25  C   UNL     1     -11.143   6.786  67.160  1.00  0.00    -0.404 A  
HETATM   26  C   UNL     1      -9.661   5.925  71.683  1.00  0.00    -0.185 A  
HETATM   27  C   UNL     1     -11.688  13.404  64.767  1.00  0.00    -0.393 A  
HETATM   28  C   UNL     1     -11.011   5.969  68.263  1.00  0.00    -0.347 A  
HETATM   29  C   UNL     1     -10.451  13.828  65.238  1.00  0.00    -0.376 A  
HETATM   30  C   UNL     1      -9.089   7.181  71.776  1.00  0.00    -0.146 A  
HETATM   31  C   UNL     1      -9.164   8.063  70.688  1.00  0.00    -0.156 A  
HETATM   32  C   UNL     1      -9.606  12.930  65.902  1.00  0.00    -0.133 A  
HETATM   33  C   UNL     1     -10.386   6.438  69.416  1.00  0.00    -0.252 A  
HETATM   34  C   UNL     1      -9.830   7.755  69.471  1.00  0.00    -0.179 A  
BRANCH  18  35
HETATM   35  C   UNL     1     -11.091  11.646  69.079  1.00  0.00    -0.241 C  
BRANCH  35  36
HETATM   36  N   UNL     1     -11.746  11.828  70.401  1.00  0.00    -0.255 NA 
HETATM   37  C   UNL     1     -12.674  10.744  70.735  1.00  0.00    -0.360 C  
HETATM   38  C   UNL     1     -12.480  13.100  70.413  1.00  0.00    -0.210 C  
ENDBRANCH  35  36
ENDBRANCH  18  35
ENDBRANCH   2   3
TORSDOF 3
ENDMDL
MODEL       24
REMARK 921   NORMALIZED FREE ENERGY PREDICTED BY IDOCK:   -5.76 KCAL/MOL
REMARK 922        TOTAL FREE ENERGY PREDICTED BY IDOCK:   -7.55 KCAL/MOL
REMARK 923 INTER-LIGAND FREE ENERGY PREDICTED BY IDOCK:   -6.86 KCAL/MOL
REMARK 924 INTRA-LIGAND FREE ENERGY PREDICTED BY IDOCK:   -0.69 KCAL/MOL
REMARK 927      BINDING AFFINITY PREDICTED BY RF-SCORE:    0.00 PKD
ROOT
HETATM    1  C   UNL     1      -7.844   5.099  68.807  1.00  0.00    -0.079 C  
HETATM    2  O   UNL     1      -8.867   5.954  68.317  1.00  0.00    -0.112 OA 
ENDROOT
BRANCH   2   3
HETATM    3  C   UNL     1      -8.433   6.983  67.513  1.00  0.00    -0.122 A  
HETATM    4  N   UNL     1      -7.330   6.764  66.744  1.00  0.00    -0.080 NA 
HETATM    5  C   UNL     1      -7.003   7.676  65.816  1.00  0.00    -0.060 A  
HETATM    6  C   UNL     1      -7.818   8.794  65.565  1.00  0.00    -0.098 A  
HETATM    7  C   UNL     1      -7.518   9.721  64.557  1.00  0.00    -0.135 A  
HETATM    8  C   UNL     1      -8.931   8.986  66.377  1.00  0.00    -0.189 A  
HETATM    9  C   UNL     1      -6.381   9.548  63.782  1.00  0.00    -0.099 A  
HETATM   10  C   UNL     1      -9.214   8.144  67.461  1.00  0.00    -0.154 A  
HETATM   11  C   UNL     1      -5.528   8.480  64.036  1.00  0.00    -0.060 A  
HETATM   12 BR   UNL     1      -6.016  10.758  62.381  1.00  0.00    -0.118 Br 
HETATM   13  C   UNL     1     -10.317   8.525  68.500  1.00  0.00    -0.230 C  
HETATM   14  C   UNL     1      -5.844   7.562  65.050  1.00  0.00    -0.038 A  
HETATM   15  C   UNL     1     -10.134   7.848  69.876  1.00  0.00    -0.197 A  
HETATM   16  C   UNL     1     -10.779  10.110  68.510  1.00  0.00    -0.230 C  
HETATM   17  O   UNL     1     -11.513  10.292  67.243  1.00  0.00    -0.400 OA 
HETATM   18  C   UNL     1     -11.907  10.431  69.551  1.00  0.00    -0.218 C  
HETATM   19  C   UNL     1      -9.671  11.227  68.442  1.00  0.00    -0.194 A  
HETATM   20  C   UNL     1      -9.054   8.101  70.737  1.00  0.00    -0.159 A  
HETATM   21  C   UNL     1      -8.974  14.761  67.287  1.00  0.00    -0.210 A  
HETATM   22  C   UNL     1      -8.325  10.881  68.688  1.00  0.00    -0.148 A  
HETATM   23  C   UNL     1      -8.831   7.322  71.876  1.00  0.00    -0.133 A  
HETATM   24  H   UNL     1     -11.778  11.203  67.248  1.00  0.00     0.000 HD 
HETATM   25  C   UNL     1      -7.255  11.736  68.437  1.00  0.00    -0.089 A  
HETATM   26  C   UNL     1     -10.237  15.270  67.018  1.00  0.00    -0.260 A  
HETATM   27  C   UNL     1      -9.695   6.282  72.195  1.00  0.00    -0.164 A  
HETATM   28  C   UNL     1      -7.495  13.012  67.970  1.00  0.00    -0.134 A  
HETATM   29  C   UNL     1     -10.804   6.043  71.393  1.00  0.00    -0.328 A  
HETATM   30  C   UNL     1     -11.343  14.458  67.191  1.00  0.00    -0.356 A  
HETATM   31  C   UNL     1     -11.178  13.142  67.645  1.00  0.00    -0.313 A  
HETATM   32  C   UNL     1     -11.026   6.818  70.249  1.00  0.00    -0.339 A  
HETATM   33  C   UNL     1      -8.801  13.448  67.757  1.00  0.00    -0.199 A  
HETATM   34  C   UNL     1      -9.916  12.577  67.973  1.00  0.00    -0.219 A  
BRANCH  18  35
HETATM   35  C   UNL     1     -11.586  10.423  71.048  1.00  0.00    -0.295 C  
BRANCH  35  36
HETATM   36  N   UNL     1     -12.781  10.149  71.889  1.00  0.00    -0.415 NA 
HETATM   37  C   UNL     1     -13.691   9.169  71.290  1.00  0.00    -0.190 C  
HETATM   38  C   UNL     1     -13.515  11.399  72.119  1.00  0.00    -0.098 C  
ENDBRANCH  35  36
ENDBRANCH  18  35
ENDBRANCH   2   3
TORSDOF 3
ENDMDL
MODEL       25
REMARK 921   NORMALIZED FREE ENERGY PREDICTED BY IDOCK:   -5.70 KCAL/MOL
REMARK 922        TOTAL FREE ENERGY PREDICTED BY IDOCK:   -7.48 KCAL/MOL
REMARK 923 INTER-LIGAND FREE ENERGY PREDICTED BY IDOCK:   -6.86 KCAL/MOL
REMARK 924 INTRA-LIGAND FREE ENERGY PREDICTED BY IDOCK:   -0.62 KCAL/MOL
REMARK 927      BINDING AFFINITY PREDICTED BY RF-SCORE:    0.00 PKD
ROOT
HETATM    1  C   UNL     1      -7.615   5.429  64.630  1.00  0.00    -0.081 C  
HETATM    2  O   UNL     1      -7.354   6.118  65.844  1.00  0.00    -0.076 OA 
ENDROOT
BRANCH   2   3
HETATM    3  C   UNL     1      -8.165   7.202  66.086  1.00  0.00    -0.128 A  
HETATM    4  N   UNL     1      -7.946   8.332  65.358  1.00  0.00    -0.119 NA 
HETATM    5  C   UNL     1      -8.838   9.331  65.437  1.00  0.00    -0.192 A  
HETATM    6  C   UNL     1     -10.025   9.199  66.179  1.00  0.00    -0.338 A  
HETATM    7  C   UNL     1     -10.993  10.212  66.219  1.00  0.00     0.182 A  
HETATM    8  C   UNL     1     -10.208   8.033  66.916  1.00  0.00    -0.385 A  
HETATM    9  C   UNL     1     -10.782  11.391  65.520  1.00  0.00    -0.253 A  
HETATM   10  C   UNL     1      -9.225   7.037  66.986  1.00  0.00    -0.167 A  
HETATM   11  C   UNL     1      -9.597  11.573  64.816  1.00  0.00    -0.198 A  
HETATM   12 BR   UNL     1     -12.115  12.726  65.521  1.00  0.00    -0.519 Br 
HETATM   13  C   UNL     1      -9.349   5.866  68.013  1.00  0.00    -0.111 C  
HETATM   14  C   UNL     1      -8.639  10.548  64.786  1.00  0.00    -0.173 A  
HETATM   15  C   UNL     1      -7.999   5.207  68.370  1.00  0.00    -0.087 A  
HETATM   16  C   UNL     1     -10.406   6.109  69.257  1.00  0.00    -0.221 C  
HETATM   17  O   UNL     1     -11.739   6.071  68.626  1.00  0.00    -0.031 OA 
HETATM   18  C   UNL     1     -10.513   4.892  70.241  1.00  0.00    -0.158 C  
HETATM   19  C   UNL     1     -10.403   7.498  69.999  1.00  0.00    -0.222 A  
HETATM   20  C   UNL     1      -6.961   5.864  69.051  1.00  0.00    -0.068 A  
HETATM   21  C   UNL     1     -12.574   9.935  71.912  1.00  0.00    -0.471 A  
HETATM   22  C   UNL     1      -9.317   8.380  69.811  1.00  0.00    -0.158 A  
HETATM   23  C   UNL     1      -5.691   5.291  69.175  1.00  0.00    -0.012 A  
HETATM   24  H   UNL     1     -12.347   6.211  69.342  1.00  0.00     0.000 HD 
HETATM   25  C   UNL     1      -9.323   9.706  70.238  1.00  0.00    -0.292 A  
HETATM   26  C   UNL     1     -13.713   9.197  72.204  1.00  0.00    -0.531 A  
HETATM   27  C   UNL     1      -5.433   4.036  68.639  1.00  0.00    -0.013 A  
HETATM   28  C   UNL     1     -10.413  10.197  70.925  1.00  0.00     0.164 A  
HETATM   29  C   UNL     1      -6.455   3.337  68.008  1.00  0.00    -0.037 A  
HETATM   30  C   UNL     1     -13.800   7.889  71.763  1.00  0.00    -0.449 A  
HETATM   31  C   UNL     1     -12.740   7.324  71.040  1.00  0.00    -0.284 A  
HETATM   32  C   UNL     1      -7.725   3.911  67.878  1.00  0.00    -0.067 A  
HETATM   33  C   UNL     1     -11.501   9.372  71.201  1.00  0.00    -0.422 A  
HETATM   34  C   UNL     1     -11.535   8.016  70.743  1.00  0.00    -0.273 A  
BRANCH  18  35
HETATM   35  C   UNL     1      -9.347   4.566  71.178  1.00  0.00    -0.149 C  
BRANCH  35  36
HETATM   36  N   UNL     1      -9.501   5.180  72.523  1.00  0.00    -0.145 NA 
HETATM   37  C   UNL     1      -8.448   4.778  73.460  1.00  0.00    -0.106 C  
HETATM   38  C   UNL     1     -10.804   4.806  73.086  1.00  0.00    -0.270 C  
ENDBRANCH  35  36
ENDBRANCH  18  35
ENDBRANCH   2   3
TORSDOF 3
ENDMDL
MODEL       26
REMARK 921   NORMALIZED FREE ENERGY PREDICTED BY IDOCK:   -5.69 KCAL/MOL
REMARK 922        TOTAL FREE ENERGY PREDICTED BY IDOCK:   -7.47 KCAL/MOL
REMARK 923 INTER-LIGAND FREE ENERGY PREDICTED BY IDOCK:   -6.68 KCAL/MOL
REMARK 924 INTRA-LIGAND FREE ENERGY PREDICTED BY IDOCK:   -0.79 KCAL/MOL
REMARK 927      BINDING AFFINITY PREDICTED BY RF-SCORE:    0.00 PKD
ROOT
HETATM    1  C   UNL     1     -11.139   4.467  73.813  1.00  0.00    -0.244 C  
HETATM    2  O   UNL     1     -10.031   5.232  73.363  1.00  0.00    -0.158 OA 
ENDROOT
BRANCH   2   3
HETATM    3  C   UNL     1     -10.350   6.317  72.579  1.00  0.00    -0.192 A  
HETATM    4  N   UNL     1     -11.496   6.992  72.869  1.00  0.00    -0.184 NA 
HETATM    5  C   UNL     1     -11.730   8.158  72.248  1.00  0.00    -0.379 A  
HETATM    6  C   UNL     1     -10.782   8.732  71.380  1.00  0.00    -0.356 A  
HETATM    7  C   UNL     1     -10.989   9.978  70.774  1.00  0.00    -0.375 A  
HETATM    8  C   UNL     1      -9.628   8.007  71.104  1.00  0.00    -0.189 A  
HETATM    9  C   UNL     1     -12.163  10.674  71.018  1.00  0.00    -0.393 A  
HETATM   10  C   UNL     1      -9.424   6.715  71.607  1.00  0.00    -0.160 A  
HETATM   11  C   UNL     1     -13.142  10.113  71.831  1.00  0.00    -0.571 A  
HETATM   12 BR   UNL     1     -12.410  12.382  70.254  1.00  0.00    -0.198 Br 
HETATM   13  C   UNL     1      -8.248   5.831  71.081  1.00  0.00    -0.122 C  
HETATM   14  C   UNL     1     -12.918   8.864  72.431  1.00  0.00    -0.467 A  
HETATM   15  C   UNL     1      -8.473   4.316  71.275  1.00  0.00    -0.111 A  
HETATM   16  C   UNL     1      -7.579   6.303  69.647  1.00  0.00    -0.094 C  
HETATM   17  O   UNL     1      -6.869   7.557  69.961  1.00  0.00    -0.049 OA 
HETATM   18  C   UNL     1      -6.385   5.399  69.180  1.00  0.00    -0.034 C  
HETATM   19  C   UNL     1      -8.531   6.720  68.464  1.00  0.00    -0.123 A  
HETATM   20  C   UNL     1      -9.482   3.584  70.627  1.00  0.00    -0.243 A  
HETATM   21  C   UNL     1      -8.789   8.908  65.389  1.00  0.00    -0.234 A  
HETATM   22  C   UNL     1      -9.902   6.393  68.531  1.00  0.00    -0.145 A  
HETATM   23  C   UNL     1      -9.769   2.263  70.984  1.00  0.00    -0.157 A  
HETATM   24  H   UNL     1      -6.485   7.829  69.137  1.00  0.00     0.000 HD 
HETATM   25  C   UNL     1     -10.856   6.904  67.655  1.00  0.00    -0.333 A  
HETATM   26  C   UNL     1      -7.479   9.309  65.163  1.00  0.00    -0.105 A  
HETATM   27  C   UNL     1      -9.041   1.633  71.985  1.00  0.00    -0.115 A  
HETATM   28  C   UNL     1     -10.464   7.737  66.628  1.00  0.00    -0.196 A  
HETATM   29  C   UNL     1      -8.000   2.312  72.606  1.00  0.00    -0.054 A  
HETATM   30  C   UNL     1      -6.486   8.884  66.026  1.00  0.00    -0.061 A  
HETATM   31  C   UNL     1      -6.809   8.051  67.107  1.00  0.00    -0.073 A  
HETATM   32  C   UNL     1      -7.714   3.636  72.254  1.00  0.00    -0.063 A  
HETATM   33  C   UNL     1      -9.119   8.061  66.460  1.00  0.00    -0.213 A  
HETATM   34  C   UNL     1      -8.124   7.577  67.367  1.00  0.00    -0.116 A  
BRANCH  18  35
HETATM   35  C   UNL     1      -6.655   3.974  68.688  1.00  0.00    -0.045 C  
BRANCH  35  36
HETATM   36  N   UNL     1      -6.296   3.783  67.259  1.00  0.00    -0.036 NA 
HETATM   37  C   UNL     1      -5.270   4.721  66.795  1.00  0.00    -0.008 C  
HETATM   38  C   UNL     1      -7.495   3.942  66.427  1.00  0.00    -0.084 C  
ENDBRANCH  35  36
ENDBRANCH  18  35
ENDBRANCH   2   3
TORSDOF 3
ENDMDL
MODEL       27
REMARK 921   NORMALIZED FREE ENERGY PREDICTED BY IDOCK:   -5.65 KCAL/MOL
REMARK 922        TOTAL FREE ENERGY PREDICTED BY IDOCK:   -7.42 KCAL/MOL
REMARK 923 INTER-LIGAND FREE ENERGY PREDICTED BY IDOCK:   -6.71 KCAL/MOL
REMARK 924 INTRA-LIGAND FREE ENERGY PREDICTED BY IDOCK:   -0.71 KCAL/MOL
REMARK 927      BINDING AFFINITY PREDICTED BY RF-SCORE:    0.00 PKD
ROOT
HETATM    1  C   UNL     1     -12.185  10.687  70.756  1.00  0.00    -0.375 C  
HETATM    2  O   UNL     1     -10.991  11.195  70.178  1.00  0.00    -0.138 OA 
ENDROOT
BRANCH   2   3
HETATM    3  C   UNL     1     -10.071  10.242  69.806  1.00  0.00    -0.203 A  
HETATM    4  N   UNL     1      -9.444   9.547  70.794  1.00  0.00    -0.228 NA 
HETATM    5  C   UNL     1      -8.692   8.488  70.458  1.00  0.00    -0.152 A  
HETATM    6  C   UNL     1      -8.613   8.035  69.128  1.00  0.00    -0.137 A  
HETATM    7  C   UNL     1      -7.880   6.894  68.774  1.00  0.00    -0.118 A  
HETATM    8  C   UNL     1      -9.262   8.778  68.146  1.00  0.00    -0.145 A  
HETATM    9  C   UNL     1      -7.198   6.186  69.751  1.00  0.00    -0.074 A  
HETATM   10  C   UNL     1      -9.922   9.979  68.438  1.00  0.00    -0.178 A  
HETATM   11  C   UNL     1      -7.214   6.634  71.067  1.00  0.00    -0.078 A  
HETATM   12 BR   UNL     1      -6.267   4.612  69.283  1.00  0.00    -0.031 Br 
HETATM   13  C   UNL     1     -10.420  10.914  67.290  1.00  0.00    -0.275 C  
HETATM   14  C   UNL     1      -7.954   7.779  71.404  1.00  0.00    -0.097 A  
HETATM   15  C   UNL     1     -10.593  12.387  67.720  1.00  0.00    -0.236 A  
HETATM   16  C   UNL     1      -9.749  10.649  65.805  1.00  0.00    -0.221 C  
HETATM   17  O   UNL     1     -10.304   9.353  65.372  1.00  0.00    -0.177 OA 
HETATM   18  C   UNL     1     -10.305  11.595  64.685  1.00  0.00    -0.341 C  
HETATM   19  C   UNL     1      -8.195  10.423  65.701  1.00  0.00    -0.158 A  
HETATM   20  C   UNL     1      -9.532  13.220  68.111  1.00  0.00    -0.222 A  
HETATM   21  C   UNL     1      -5.493   8.714  63.677  1.00  0.00    -0.062 A  
HETATM   22  C   UNL     1      -7.373  10.755  66.798  1.00  0.00    -0.129 A  
HETATM   23  C   UNL     1      -9.761  14.478  68.677  1.00  0.00    -0.221 A  
HETATM   24  H   UNL     1      -9.919   9.200  64.517  1.00  0.00     0.000 HD 
HETATM   25  C   UNL     1      -6.031  10.391  66.891  1.00  0.00    -0.057 A  
HETATM   26  C   UNL     1      -6.150   8.334  62.515  1.00  0.00    -0.087 A  
HETATM   27  C   UNL     1     -11.058  14.944  68.847  1.00  0.00    -0.267 A  
HETATM   28  C   UNL     1      -5.435   9.713  65.848  1.00  0.00    -0.044 A  
HETATM   29  C   UNL     1     -12.128  14.167  68.418  1.00  0.00    -0.308 A  
HETATM   30  C   UNL     1      -7.497   8.613  62.377  1.00  0.00    -0.104 A  
HETATM   31  C   UNL     1      -8.178   9.283  63.404  1.00  0.00    -0.176 A  
HETATM   32  C   UNL     1     -11.900  12.905  67.857  1.00  0.00    -0.388 A  
HETATM   33  C   UNL     1      -6.166   9.399  64.704  1.00  0.00    -0.078 A  
HETATM   34  C   UNL     1      -7.554   9.731  64.600  1.00  0.00    -0.134 A  
BRANCH  18  35
HETATM   35  C   UNL     1      -9.932  13.080  64.687  1.00  0.00    -0.126 C  
BRANCH  35  36
HETATM   36  N   UNL     1     -10.936  13.926  63.990  1.00  0.00    -0.039 NA 
HETATM   37  C   UNL     1     -11.339  15.099  64.772  1.00  0.00    -0.395 C  
HETATM   38  C   UNL     1     -12.129  13.124  63.690  1.00  0.00    -0.513 C  
ENDBRANCH  35  36
ENDBRANCH  18  35
ENDBRANCH   2   3
TORSDOF 3
ENDMDL
MODEL       28
REMARK 921   NORMALIZED FREE ENERGY PREDICTED BY IDOCK:   -5.65 KCAL/MOL
REMARK 922        TOTAL FREE ENERGY PREDICTED BY IDOCK:   -7.42 KCAL/MOL
REMARK 923 INTER-LIGAND FREE ENERGY PREDICTED BY IDOCK:   -6.57 KCAL/MOL
REMARK 924 INTRA-LIGAND FREE ENERGY PREDICTED BY IDOCK:   -0.85 KCAL/MOL
REMARK 927      BINDING AFFINITY PREDICTED BY RF-SCORE:    0.00 PKD
ROOT
HETATM    1  C   UNL     1     -11.518  10.341  70.744  1.00  0.00    -0.351 C  
HETATM    2  O   UNL     1     -10.208   9.917  70.396  1.00  0.00    -0.277 OA 
ENDROOT
BRANCH   2   3
HETATM    3  C   UNL     1     -10.022   9.629  69.063  1.00  0.00    -0.185 A  
HETATM    4  N   UNL     1     -10.607  10.453  68.150  1.00  0.00    -0.195 NA 
HETATM    5  C   UNL     1     -10.285  10.309  66.856  1.00  0.00    -0.230 A  
HETATM    6  C   UNL     1      -9.300   9.393  66.441  1.00  0.00    -0.241 A  
HETATM    7  C   UNL     1      -8.912   9.277  65.099  1.00  0.00    -0.257 A  
HETATM    8  C   UNL     1      -8.733   8.564  67.403  1.00  0.00    -0.136 A  
HETATM    9  C   UNL     1      -9.516  10.074  64.139  1.00  0.00    -0.252 A  
HETATM   10  C   UNL     1      -9.160   8.575  68.738  1.00  0.00    -0.143 A  
HETATM   11  C   UNL     1     -10.527  10.954  64.508  1.00  0.00    -0.393 A  
HETATM   12 BR   UNL     1      -8.945   9.964  62.343  1.00  0.00    -0.313 Br 
HETATM   13  C   UNL     1      -8.688   7.468  69.734  1.00  0.00    -0.140 C  
HETATM   14  C   UNL     1     -10.903  11.058  65.856  1.00  0.00    -0.183 A  
HETATM   15  C   UNL     1      -9.635   7.271  70.938  1.00  0.00    -0.170 A  
HETATM   16  C   UNL     1      -8.067   6.100  69.049  1.00  0.00    -0.112 C  
HETATM   17  O   UNL     1      -6.778   6.526  68.471  1.00  0.00    -0.062 OA 
HETATM   18  C   UNL     1      -7.583   5.036  70.093  1.00  0.00    -0.060 C  
HETATM   19  C   UNL     1      -8.813   5.458  67.820  1.00  0.00    -0.105 A  
HETATM   20  C   UNL     1     -10.951   6.792  70.830  1.00  0.00    -0.303 A  
HETATM   21  C   UNL     1      -8.307   3.409  64.680  1.00  0.00    -0.093 A  
HETATM   22  C   UNL     1     -10.133   5.859  67.526  1.00  0.00    -0.197 A  
HETATM   23  C   UNL     1     -11.829   6.819  71.918  1.00  0.00    -0.366 A  
HETATM   24  H   UNL     1      -6.421   5.739  68.077  1.00  0.00     0.000 HD 
HETATM   25  C   UNL     1     -10.793   5.523  66.346  1.00  0.00    -0.195 A  
HETATM   26  C   UNL     1      -7.020   2.906  64.824  1.00  0.00    -0.049 A  
HETATM   27  C   UNL     1     -11.406   7.305  73.148  1.00  0.00    -0.173 A  
HETATM   28  C   UNL     1     -10.166   4.716  65.420  1.00  0.00    -0.172 A  
HETATM   29  C   UNL     1     -10.093   7.733  73.302  1.00  0.00    -0.374 A  
HETATM   30  C   UNL     1      -6.285   3.244  65.945  1.00  0.00    -0.027 A  
HETATM   31  C   UNL     1      -6.847   4.077  66.923  1.00  0.00    -0.055 A  
HETATM   32  C   UNL     1      -9.215   7.713  72.212  1.00  0.00    -0.189 A  
HETATM   33  C   UNL     1      -8.882   4.232  65.663  1.00  0.00    -0.123 A  
HETATM   34  C   UNL     1      -8.170   4.592  66.851  1.00  0.00    -0.102 A  
BRANCH  18  35
HETATM   35  C   UNL     1      -8.610   4.260  70.923  1.00  0.00    -0.084 C  
BRANCH  35  36
HETATM   36  N   UNL     1      -8.120   3.937  72.288  1.00  0.00    -0.083 NA 
HETATM   37  C   UNL     1      -9.135   4.145  73.326  1.00  0.00    -0.106 C  
HETATM   38  C   UNL     1      -6.949   4.766  72.597  1.00  0.00    -0.075 C  
ENDBRANCH  35  36
ENDBRANCH  18  35
ENDBRANCH   2   3
TORSDOF 3
ENDMDL
MODEL       29
REMARK 921   NORMALIZED FREE ENERGY PREDICTED BY IDOCK:   -5.61 KCAL/MOL
REMARK 922        TOTAL FREE ENERGY PREDICTED BY IDOCK:   -7.37 KCAL/MOL
REMARK 923 INTER-LIGAND FREE ENERGY PREDICTED BY IDOCK:   -6.66 KCAL/MOL
REMARK 924 INTRA-LIGAND FREE ENERGY PREDICTED BY IDOCK:   -0.71 KCAL/MOL
REMARK 927      BINDING AFFINITY PREDICTED BY RF-SCORE:    0.00 PKD
ROOT
HETATM    1  C   UNL     1      -5.258   7.613  65.953  1.00  0.00    -0.025 C  
HETATM    2  O   UNL     1      -5.675   8.810  66.593  1.00  0.00    -0.045 OA 
ENDROOT
BRANCH   2   3
HETATM    3  C   UNL     1      -6.173   8.649  67.865  1.00  0.00    -0.052 A  
HETATM    4  N   UNL     1      -5.612   7.685  68.647  1.00  0.00    -0.026 NA 
HETATM    5  C   UNL     1      -5.945   7.637  69.946  1.00  0.00    -0.023 A  
HETATM    6  C   UNL     1      -6.783   8.607  70.526  1.00  0.00    -0.040 A  
HETATM    7  C   UNL     1      -7.089   8.602  71.894  1.00  0.00    -0.090 A  
HETATM    8  C   UNL     1      -7.342   9.570  69.692  1.00  0.00    -0.084 A  
HETATM    9  C   UNL     1      -6.565   7.611  72.711  1.00  0.00    -0.063 A  
HETATM   10  C   UNL     1      -7.146   9.555  68.305  1.00  0.00    -0.075 A  
HETATM   11  C   UNL     1      -5.774   6.610  72.160  1.00  0.00    -0.037 A  
HETATM   12 BR   UNL     1      -6.923   7.645  74.564  1.00  0.00    -0.144 Br 
HETATM   13  C   UNL     1      -7.982  10.488  67.372  1.00  0.00    -0.110 C  
HETATM   14  C   UNL     1      -5.477   6.630  70.789  1.00  0.00    -0.023 A  
HETATM   15  C   UNL     1      -8.081   9.984  65.915  1.00  0.00    -0.126 A  
HETATM   16  C   UNL     1      -9.358  11.119  68.031  1.00  0.00    -0.166 C  
HETATM   17  O   UNL     1      -8.879  12.086  69.038  1.00  0.00    -0.369 OA 
HETATM   18  C   UNL     1     -10.143  12.071  67.063  1.00  0.00    -0.221 C  
HETATM   19  C   UNL     1     -10.305  10.177  68.865  1.00  0.00    -0.223 A  
HETATM   20  C   UNL     1      -8.739   8.803  65.537  1.00  0.00    -0.217 A  
HETATM   21  C   UNL     1     -12.805  10.110  71.704  1.00  0.00    -0.559 A  
HETATM   22  C   UNL     1     -10.141   8.779  68.776  1.00  0.00    -0.213 A  
HETATM   23  C   UNL     1      -8.631   8.290  64.240  1.00  0.00     0.095 A  
HETATM   24  H   UNL     1      -9.670  12.449  69.418  1.00  0.00     0.000 HD 
HETATM   25  C   UNL     1     -10.769   7.876  69.631  1.00  0.00    -0.218 A  
HETATM   26  C   UNL     1     -13.099  11.451  71.909  1.00  0.00    -0.505 A  
HETATM   27  C   UNL     1      -7.879   8.957  63.283  1.00  0.00    -0.143 A  
HETATM   28  C   UNL     1     -11.641   8.342  70.593  1.00  0.00    -0.199 A  
HETATM   29  C   UNL     1      -7.262  10.158  63.611  1.00  0.00    -0.112 A  
HETATM   30  C   UNL     1     -12.470  12.407  71.134  1.00  0.00    -0.323 A  
HETATM   31  C   UNL     1     -11.555  12.013  70.147  1.00  0.00    -0.228 A  
HETATM   32  C   UNL     1      -7.364  10.670  64.910  1.00  0.00     0.118 A  
HETATM   33  C   UNL     1     -11.900   9.706  70.707  1.00  0.00    -0.378 A  
HETATM   34  C   UNL     1     -11.241  10.656  69.864  1.00  0.00    -0.378 A  
BRANCH  18  35
HETATM   35  C   UNL     1     -10.883  11.487  65.856  1.00  0.00    -0.260 C  
BRANCH  35  36
HETATM   36  N   UNL     1     -11.183  12.507  64.817  1.00  0.00    -0.296 NA 
HETATM   37  C   UNL     1     -12.621  12.705  64.607  1.00  0.00    -0.440 C  
HETATM   38  C   UNL     1     -10.569  12.107  63.546  1.00  0.00    -0.458 C  
ENDBRANCH  35  36
ENDBRANCH  18  35
ENDBRANCH   2   3
TORSDOF 3
ENDMDL
MODEL       30
REMARK 921   NORMALIZED FREE ENERGY PREDICTED BY IDOCK:   -5.60 KCAL/MOL
REMARK 922        TOTAL FREE ENERGY PREDICTED BY IDOCK:   -7.36 KCAL/MOL
REMARK 923 INTER-LIGAND FREE ENERGY PREDICTED BY IDOCK:   -6.77 KCAL/MOL
REMARK 924 INTRA-LIGAND FREE ENERGY PREDICTED BY IDOCK:   -0.59 KCAL/MOL
REMARK 927      BINDING AFFINITY PREDICTED BY RF-SCORE:    0.00 PKD
ROOT
HETATM    1  C   UNL     1     -11.966  15.422  68.982  1.00  0.00    -0.288 C  
HETATM    2  O   UNL     1     -10.988  14.420  68.742  1.00  0.00    -0.233 OA 
ENDROOT
BRANCH   2   3
HETATM    3  C   UNL     1     -11.298  13.172  69.232  1.00  0.00    -0.253 A  
HETATM    4  N   UNL     1     -12.053  13.106  70.363  1.00  0.00    -0.350 NA 
HETATM    5  C   UNL     1     -12.527  11.912  70.750  1.00  0.00    -0.291 A  
HETATM    6  C   UNL     1     -12.335  10.757  69.970  1.00  0.00    -0.371 A  
HETATM    7  C   UNL     1     -12.878   9.517  70.333  1.00  0.00     0.285 A  
HETATM    8  C   UNL     1     -11.552  10.865  68.826  1.00  0.00    -0.378 A  
HETATM    9  C   UNL     1     -13.619   9.407  71.500  1.00  0.00    -0.336 A  
HETATM   10  C   UNL     1     -10.907  12.060  68.477  1.00  0.00    -0.267 A  
HETATM   11  C   UNL     1     -13.786  10.517  72.319  1.00  0.00     0.052 A  
HETATM   12 BR   UNL     1     -14.405   7.752  71.952  1.00  0.00    -0.547 Br 
HETATM   13  C   UNL     1      -9.839  12.086  67.337  1.00  0.00    -0.191 C  
HETATM   14  C   UNL     1     -13.236  11.752  71.940  1.00  0.00    -0.468 A  
HETATM   15  C   UNL     1      -8.844  13.262  67.444  1.00  0.00    -0.204 A  
HETATM   16  C   UNL     1      -9.210  10.621  66.907  1.00  0.00    -0.155 C  
HETATM   17  O   UNL     1     -10.322   9.921  66.234  1.00  0.00    -0.227 OA 
HETATM   18  C   UNL     1      -8.166  10.701  65.740  1.00  0.00    -0.161 C  
HETATM   19  C   UNL     1      -8.788   9.611  68.039  1.00  0.00    -0.119 A  
HETATM   20  C   UNL     1      -7.918  13.413  68.489  1.00  0.00    -0.107 A  
HETATM   21  C   UNL     1      -8.407   5.937  68.857  1.00  0.00    -0.102 A  
HETATM   22  C   UNL     1      -8.657  10.074  69.365  1.00  0.00    -0.182 A  
HETATM   23  C   UNL     1      -7.180  14.590  68.646  1.00  0.00    -0.124 A  
HETATM   24  H   UNL     1      -9.961   9.079  65.987  1.00  0.00     0.000 HD 
HETATM   25  C   UNL     1      -8.509   9.230  70.462  1.00  0.00    -0.251 A  
HETATM   26  C   UNL     1      -8.492   5.317  67.618  1.00  0.00    -0.105 A  
HETATM   27  C   UNL     1      -7.333  15.638  67.748  1.00  0.00    -0.169 A  
HETATM   28  C   UNL     1      -8.433   7.866  70.268  1.00  0.00    -0.128 A  
HETATM   29  C   UNL     1      -8.200  15.497  66.671  1.00  0.00    -0.244 A  
HETATM   30  C   UNL     1      -8.695   6.090  66.489  1.00  0.00    -0.128 A  
HETATM   31  C   UNL     1      -8.801   7.483  66.607  1.00  0.00    -0.162 A  
HETATM   32  C   UNL     1      -8.944  14.322  66.516  1.00  0.00    -0.161 A  
HETATM   33  C   UNL     1      -8.498   7.334  68.982  1.00  0.00    -0.129 A  
HETATM   34  C   UNL     1      -8.685   8.178  67.842  1.00  0.00    -0.128 A  
BRANCH  18  35
HETATM   35  C   UNL     1      -6.787  11.318  65.993  1.00  0.00     0.139 C  
BRANCH  35  36
HETATM   36  N   UNL     1      -5.677  10.478  65.472  1.00  0.00    -0.118 NA 
HETATM   37  C   UNL     1      -5.972   9.886  64.163  1.00  0.00    -0.120 C  
HETATM   38  C   UNL     1      -5.390   9.400  66.425  1.00  0.00    -0.044 C  
ENDBRANCH  35  36
ENDBRANCH  18  35
ENDBRANCH   2   3
TORSDOF 3
ENDMDL
MODEL       31
REMARK 921   NORMALIZED FREE ENERGY PREDICTED BY IDOCK:   -5.44 KCAL/MOL
REMARK 922        TOTAL FREE ENERGY PREDICTED BY IDOCK:   -7.18 KCAL/MOL
REMARK 923 INTER-LIGAND FREE ENERGY PREDICTED BY IDOCK:   -6.47 KCAL/MOL
REMARK 924 INTRA-LIGAND FREE ENERGY PREDICTED BY IDOCK:   -0.70 KCAL/MOL
REMARK 927      BINDING AFFINITY PREDICTED BY RF-SCORE:    0.00 PKD
ROOT
HETATM    1  C   UNL     1     -10.007  12.325  64.842  1.00  0.00    -0.195 C  
HETATM    2  O   UNL     1      -9.043  11.735  65.704  1.00  0.00    -0.153 OA 
ENDROOT
BRANCH   2   3
HETATM    3  C   UNL     1      -8.801  10.400  65.482  1.00  0.00    -0.176 A  
HETATM    4  N   UNL     1      -8.771   9.968  64.190  1.00  0.00    -0.187 NA 
HETATM    5  C   UNL     1      -8.349   8.719  63.940  1.00  0.00    -0.141 A  
HETATM    6  C   UNL     1      -7.859   7.890  64.965  1.00  0.00    -0.120 A  
HETATM    7  C   UNL     1      -7.358   6.606  64.707  1.00  0.00    -0.084 A  
HETATM    8  C   UNL     1      -7.914   8.365  66.272  1.00  0.00    -0.099 A  
HETATM    9  C   UNL     1      -7.350   6.121  63.408  1.00  0.00    -0.066 A  
HETATM   10  C   UNL     1      -8.497   9.599  66.589  1.00  0.00    -0.126 A  
HETATM   11  C   UNL     1      -7.872   6.896  62.379  1.00  0.00    -0.118 A  
HETATM   12 BR   UNL     1      -6.614   4.420  63.053  1.00  0.00    -0.031 Br 
HETATM   13  C   UNL     1      -8.772   9.991  68.076  1.00  0.00    -0.125 C  
HETATM   14  C   UNL     1      -8.369   8.179  62.655  1.00  0.00    -0.102 A  
HETATM   15  C   UNL     1      -9.882  11.052  68.244  1.00  0.00    -0.185 A  
HETATM   16  C   UNL     1      -8.766   8.747  69.161  1.00  0.00    -0.136 C  
HETATM   17  O   UNL     1      -7.353   8.327  69.238  1.00  0.00    -0.072 OA 
HETATM   18  C   UNL     1      -9.018   9.200  70.642  1.00  0.00    -0.292 C  
HETATM   19  C   UNL     1      -9.515   7.412  68.794  1.00  0.00    -0.143 A  
HETATM   20  C   UNL     1     -11.230  10.833  67.919  1.00  0.00    -0.386 A  
HETATM   21  C   UNL     1      -9.530   3.671  69.361  1.00  0.00    -0.249 A  
HETATM   22  C   UNL     1     -10.423   7.403  67.714  1.00  0.00    -0.298 A  
HETATM   23  C   UNL     1     -12.156  11.881  67.902  1.00  0.00     0.019 A  
HETATM   24  H   UNL     1      -7.350   7.611  69.863  1.00  0.00     0.000 HD 
HETATM   25  C   UNL     1     -10.961   6.239  67.172  1.00  0.00    -0.453 A  
HETATM   26  C   UNL     1      -8.675   3.503  70.441  1.00  0.00    -0.127 A  
HETATM   27  C   UNL     1     -11.761  13.171  68.231  1.00  0.00    -0.384 A  
HETATM   28  C   UNL     1     -10.647   5.018  67.732  1.00  0.00     0.032 A  
HETATM   29  C   UNL     1     -10.446  13.409  68.612  1.00  0.00    -0.237 A  
HETATM   30  C   UNL     1      -8.060   4.611  70.995  1.00  0.00    -0.086 A  
HETATM   31  C   UNL     1      -8.315   5.886  70.469  1.00  0.00    -0.123 A  
HETATM   32  C   UNL     1      -9.516  12.362  68.624  1.00  0.00    -0.018 A  
HETATM   33  C   UNL     1      -9.801   4.947  68.837  1.00  0.00    -0.241 A  
HETATM   34  C   UNL     1      -9.208   6.126  69.389  1.00  0.00    -0.137 A  
BRANCH  18  35
HETATM   35  C   UNL     1     -10.409   9.680  71.065  1.00  0.00    -0.222 C  
BRANCH  35  36
HETATM   36  N   UNL     1     -11.228   8.601  71.677  1.00  0.00    -0.285 NA 
HETATM   37  C   UNL     1     -12.510   9.082  72.200  1.00  0.00    -0.380 C  
HETATM   38  C   UNL     1     -10.475   7.976  72.771  1.00  0.00    -0.345 C  
ENDBRANCH  35  36
ENDBRANCH  18  35
ENDBRANCH   2   3
TORSDOF 3
ENDMDL
MODEL       32
REMARK 921   NORMALIZED FREE ENERGY PREDICTED BY IDOCK:   -5.42 KCAL/MOL
REMARK 922        TOTAL FREE ENERGY PREDICTED BY IDOCK:   -7.16 KCAL/MOL
REMARK 923 INTER-LIGAND FREE ENERGY PREDICTED BY IDOCK:   -6.39 KCAL/MOL
REMARK 924 INTRA-LIGAND FREE ENERGY PREDICTED BY IDOCK:   -0.76 KCAL/MOL
REMARK 927      BINDING AFFINITY PREDICTED BY RF-SCORE:    0.00 PKD
ROOT
HETATM    1  C   UNL     1      -7.861   6.106  63.207  1.00  0.00    -0.100 C  
HETATM    2  O   UNL     1      -7.436   6.510  64.501  1.00  0.00    -0.076 OA 
ENDROOT
BRANCH   2   3
HETATM    3  C   UNL     1      -8.160   7.538  65.059  1.00  0.00    -0.127 A  
HETATM    4  N   UNL     1      -8.010   8.781  64.523  1.00  0.00    -0.133 NA 
HETATM    5  C   UNL     1      -8.841   9.757  64.920  1.00  0.00    -0.197 A  
HETATM    6  C   UNL     1      -9.908   9.500  65.799  1.00  0.00    -0.363 A  
HETATM    7  C   UNL     1     -10.820  10.497  66.172  1.00  0.00    -0.028 A  
HETATM    8  C   UNL     1     -10.023   8.219  66.330  1.00  0.00    -0.264 A  
HETATM    9  C   UNL     1     -10.671  11.783  65.676  1.00  0.00    -0.280 A  
HETATM   10  C   UNL     1      -9.079   7.218  66.066  1.00  0.00    -0.117 A  
HETATM   11  C   UNL     1      -9.599  12.082  64.843  1.00  0.00    -0.040 A  
HETATM   12 BR   UNL     1     -11.938  13.108  66.126  1.00  0.00    -0.485 Br 
HETATM   13  C   UNL     1      -9.092   5.878  66.868  1.00  0.00    -0.120 C  
HETATM   14  C   UNL     1      -8.696  11.071  64.479  1.00  0.00     0.060 A  
HETATM   15  C   UNL     1      -7.730   5.151  66.886  1.00  0.00    -0.092 A  
HETATM   16  C   UNL     1      -9.941   5.895  68.284  1.00  0.00    -0.146 C  
HETATM   17  O   UNL     1     -11.354   5.988  67.869  1.00  0.00    -0.346 OA 
HETATM   18  C   UNL     1      -9.946   4.518  69.033  1.00  0.00    -0.151 C  
HETATM   19  C   UNL     1      -9.775   7.122  69.257  1.00  0.00    -0.159 A  
HETATM   20  C   UNL     1      -6.578   5.660  67.508  1.00  0.00    -0.053 A  
HETATM   21  C   UNL     1     -11.541   9.181  71.893  1.00  0.00    -0.430 A  
HETATM   22  C   UNL     1      -8.697   8.013  69.068  1.00  0.00    -0.137 A  
HETATM   23  C   UNL     1      -5.326   5.062  67.329  1.00  0.00    -0.012 A  
HETATM   24  H   UNL     1     -11.843   5.998  68.683  1.00  0.00     0.000 HD 
HETATM   25  C   UNL     1      -8.588   9.236  69.725  1.00  0.00    -0.164 A  
HETATM   26  C   UNL     1     -12.651   8.412  72.218  1.00  0.00    -0.401 A  
HETATM   27  C   UNL     1      -5.199   3.927  66.539  1.00  0.00    -0.009 A  
HETATM   28  C   UNL     1      -9.543   9.601  70.650  1.00  0.00    -0.214 A  
HETATM   29  C   UNL     1      -6.329   3.366  65.957  1.00  0.00    -0.032 A  
HETATM   30  C   UNL     1     -12.853   7.210  71.565  1.00  0.00    -0.434 A  
HETATM   31  C   UNL     1     -11.935   6.779  70.596  1.00  0.00    -0.418 A  
HETATM   32  C   UNL     1      -7.581   3.967  66.130  1.00  0.00    -0.089 A  
HETATM   33  C   UNL     1     -10.609   8.749  70.935  1.00  0.00    -0.276 A  
HETATM   34  C   UNL     1     -10.762   7.503  70.248  1.00  0.00    -0.247 A  
BRANCH  18  35
HETATM   35  C   UNL     1      -8.666   4.011  69.704  1.00  0.00    -0.079 C  
BRANCH  35  36
HETATM   36  N   UNL     1      -8.514   2.536  69.611  1.00  0.00    -0.048 NA 
HETATM   37  C   UNL     1      -7.165   2.123  69.210  1.00  0.00    -0.043 C  
HETATM   38  C   UNL     1      -9.479   2.004  68.641  1.00  0.00    -0.143 C  
ENDBRANCH  35  36
ENDBRANCH  18  35
ENDBRANCH   2   3
TORSDOF 3
ENDMDL
MODEL       33
REMARK 921   NORMALIZED FREE ENERGY PREDICTED BY IDOCK:   -5.18 KCAL/MOL
REMARK 922        TOTAL FREE ENERGY PREDICTED BY IDOCK:   -6.87 KCAL/MOL
REMARK 923 INTER-LIGAND FREE ENERGY PREDICTED BY IDOCK:   -6.31 KCAL/MOL
REMARK 924 INTRA-LIGAND FREE ENERGY PREDICTED BY IDOCK:   -0.56 KCAL/MOL
REMARK 927      BINDING AFFINITY PREDICTED BY RF-SCORE:    0.00 PKD
ROOT
HETATM    1  C   UNL     1     -10.812   4.645  73.291  1.00  0.00    -0.272 C  
HETATM    2  O   UNL     1     -10.874   4.969  71.910  1.00  0.00    -0.161 OA 
ENDROOT
BRANCH   2   3
HETATM    3  C   UNL     1     -11.148   6.288  71.631  1.00  0.00    -0.274 A  
HETATM    4  N   UNL     1     -12.404   6.744  71.896  1.00  0.00    -0.343 NA 
HETATM    5  C   UNL     1     -12.639   8.062  71.816  1.00  0.00    -0.325 A  
HETATM    6  C   UNL     1     -11.605   8.978  71.553  1.00  0.00    -0.413 A  
HETATM    7  C   UNL     1     -11.828  10.362  71.527  1.00  0.00    -0.208 A  
HETATM    8  C   UNL     1     -10.338   8.473  71.280  1.00  0.00    -0.288 A  
HETATM    9  C   UNL     1     -13.104  10.856  71.754  1.00  0.00    -0.459 A  
HETATM   10  C   UNL     1     -10.091   7.096  71.196  1.00  0.00    -0.193 A  
HETATM   11  C   UNL     1     -14.158   9.975  71.968  1.00  0.00     0.153 A  
HETATM   12 BR   UNL     1     -13.388  12.722  71.785  1.00  0.00    -0.329 Br 
HETATM   13  C   UNL     1      -8.730   6.564  70.643  1.00  0.00    -0.144 C  
HETATM   14  C   UNL     1     -13.916   8.593  71.991  1.00  0.00    -0.506 A  
HETATM   15  C   UNL     1      -8.804   5.125  70.088  1.00  0.00    -0.139 A  
HETATM   16  C   UNL     1      -7.832   7.646  69.778  1.00  0.00    -0.110 C  
HETATM   17  O   UNL     1      -7.365   8.626  70.777  1.00  0.00    -0.055 OA 
HETATM   18  C   UNL     1      -6.464   7.069  69.272  1.00  0.00    -0.043 C  
HETATM   19  C   UNL     1      -8.551   8.547  68.705  1.00  0.00    -0.131 A  
HETATM   20  C   UNL     1      -9.553   4.759  68.958  1.00  0.00    -0.233 A  
HETATM   21  C   UNL     1      -8.410  11.895  66.950  1.00  0.00    -0.169 A  
HETATM   22  C   UNL     1      -9.854   8.210  68.281  1.00  0.00    -0.191 A  
HETATM   23  C   UNL     1      -9.747   3.417  68.613  1.00  0.00    -0.004 A  
HETATM   24  H   UNL     1      -6.849   9.249  70.279  1.00  0.00     0.000 HD 
HETATM   25  C   UNL     1     -10.654   9.054  67.514  1.00  0.00    -0.306 A  
HETATM   26  C   UNL     1      -7.141  12.369  67.255  1.00  0.00    -0.128 A  
HETATM   27  C   UNL     1      -9.178   2.408  69.380  1.00  0.00    -0.190 A  
HETATM   28  C   UNL     1     -10.156  10.268  67.091  1.00  0.00    -0.259 A  
HETATM   29  C   UNL     1      -8.386   2.740  70.472  1.00  0.00    -0.080 A  
HETATM   30  C   UNL     1      -6.312  11.608  68.058  1.00  0.00    -0.047 A  
HETATM   31  C   UNL     1      -6.755  10.370  68.544  1.00  0.00    -0.056 A  
HETATM   32  C   UNL     1      -8.196   4.082  70.821  1.00  0.00    -0.076 A  
HETATM   33  C   UNL     1      -8.856  10.648  67.421  1.00  0.00    -0.132 A  
HETATM   34  C   UNL     1      -8.027   9.815  68.236  1.00  0.00    -0.096 A  
BRANCH  18  35
HETATM   35  C   UNL     1      -6.446   6.023  68.154  1.00  0.00    -0.046 C  
BRANCH  35  36
HETATM   36  N   UNL     1      -5.458   6.339  67.088  1.00  0.00    -0.009 NA 
HETATM   37  C   UNL     1      -5.688   7.645  66.463  1.00  0.00    -0.036 C  
HETATM   38  C   UNL     1      -5.508   5.301  66.051  1.00  0.00    -0.013 C  
ENDBRANCH  35  36
ENDBRANCH  18  35
ENDBRANCH   2   3
TORSDOF 3
ENDMDL
MODEL       34
REMARK 921   NORMALIZED FREE ENERGY PREDICTED BY IDOCK:   -4.96 KCAL/MOL
REMARK 922        TOTAL FREE ENERGY PREDICTED BY IDOCK:   -6.61 KCAL/MOL
REMARK 923 INTER-LIGAND FREE ENERGY PREDICTED BY IDOCK:   -5.95 KCAL/MOL
REMARK 924 INTRA-LIGAND FREE ENERGY PREDICTED BY IDOCK:   -0.65 KCAL/MOL
REMARK 927      BINDING AFFINITY PREDICTED BY RF-SCORE:    0.00 PKD
ROOT
HETATM    1  C   UNL     1      -8.101   5.877  65.382  1.00  0.00    -0.130 C  
HETATM    2  O   UNL     1      -7.698   7.023  66.118  1.00  0.00    -0.089 OA 
ENDROOT
BRANCH   2   3
HETATM    3  C   UNL     1      -8.434   8.160  65.878  1.00  0.00    -0.142 A  
HETATM    4  N   UNL     1      -8.324   8.738  64.650  1.00  0.00    -0.165 NA 
HETATM    5  C   UNL     1      -9.170   9.728  64.328  1.00  0.00    -0.232 A  
HETATM    6  C   UNL     1     -10.213  10.113  65.190  1.00  0.00    -0.233 A  
HETATM    7  C   UNL     1     -11.140  11.104  64.837  1.00  0.00    -0.118 A  
HETATM    8  C   UNL     1     -10.287   9.504  66.438  1.00  0.00    -0.243 A  
HETATM    9  C   UNL     1     -11.032  11.740  63.610  1.00  0.00    -0.439 A  
HETATM   10  C   UNL     1      -9.325   8.582  66.873  1.00  0.00    -0.219 A  
HETATM   11  C   UNL     1      -9.984  11.418  62.756  1.00  0.00    -0.164 A  
HETATM   12 BR   UNL     1     -12.320  13.025  63.110  1.00  0.00     0.053 Br 
HETATM   13  C   UNL     1      -9.291   8.108  68.361  1.00  0.00    -0.135 C  
HETATM   14  C   UNL     1      -9.065  10.423  63.124  1.00  0.00    -0.274 A  
HETATM   15  C   UNL     1      -7.912   7.581  68.814  1.00  0.00    -0.126 A  
HETATM   16  C   UNL     1     -10.112   9.054  69.436  1.00  0.00    -0.198 C  
HETATM   17  O   UNL     1     -11.535   8.844  69.107  1.00  0.00    -0.295 OA 
HETATM   18  C   UNL     1     -10.069   8.518  70.909  1.00  0.00    -0.246 C  
HETATM   19  C   UNL     1      -9.955  10.619  69.349  1.00  0.00    -0.183 A  
HETATM   20  C   UNL     1      -6.760   8.379  68.908  1.00  0.00    -0.053 A  
HETATM   21  C   UNL     1     -11.715  13.900  70.018  1.00  0.00    -0.338 A  
HETATM   22  C   UNL     1      -8.902  11.166  68.586  1.00  0.00    -0.155 A  
HETATM   23  C   UNL     1      -5.499   7.818  69.130  1.00  0.00    -0.022 A  
HETATM   24  H   UNL     1     -12.007   9.388  69.726  1.00  0.00     0.000 HD 
HETATM   25  C   UNL     1      -8.808  12.519  68.266  1.00  0.00    -0.171 A  
HETATM   26  C   UNL     1     -12.800  13.533  70.803  1.00  0.00    -0.243 A  
HETATM   27  C   UNL     1      -5.361   6.445  69.286  1.00  0.00    -0.013 A  
HETATM   28  C   UNL     1      -9.753  13.400  68.747  1.00  0.00     0.002 A  
HETATM   29  C   UNL     1      -6.489   5.634  69.255  1.00  0.00    -0.045 A  
HETATM   30  C   UNL     1     -12.987  12.199  71.115  1.00  0.00    -0.240 A  
HETATM   31  C   UNL     1     -12.079  11.239  70.645  1.00  0.00    -0.480 A  
HETATM   32  C   UNL     1      -7.751   6.194  69.026  1.00  0.00    -0.096 A  
HETATM   33  C   UNL     1     -10.793  12.946  69.556  1.00  0.00     0.157 A  
HETATM   34  C   UNL     1     -10.930  11.556  69.870  1.00  0.00     0.044 A  
BRANCH  18  35
HETATM   35  C   UNL     1      -8.764   8.587  71.708  1.00  0.00    -0.201 C  
BRANCH  35  36
HETATM   36  N   UNL     1      -8.565   7.405  72.587  1.00  0.00    -0.110 NA 
HETATM   37  C   UNL     1      -9.549   6.345  72.353  1.00  0.00    -0.146 C  
HETATM   38  C   UNL     1      -8.642   7.822  73.992  1.00  0.00    -0.265 C  
ENDBRANCH  35  36
ENDBRANCH  18  35
ENDBRANCH   2   3
TORSDOF 3
ENDMDL
MODEL       35
REMARK 921   NORMALIZED FREE ENERGY PREDICTED BY IDOCK:   -4.89 KCAL/MOL
REMARK 922        TOTAL FREE ENERGY PREDICTED BY IDOCK:   -6.52 KCAL/MOL
REMARK 923 INTER-LIGAND FREE ENERGY PREDICTED BY IDOCK:   -5.96 KCAL/MOL
REMARK 924 INTRA-LIGAND FREE ENERGY PREDICTED BY IDOCK:   -0.56 KCAL/MOL
REMARK 927      BINDING AFFINITY PREDICTED BY RF-SCORE:    0.00 PKD
ROOT
HETATM    1  C   UNL     1      -7.483  10.096  69.572  1.00  0.00    -0.133 C  
HETATM    2  O   UNL     1      -7.270  11.031  68.524  1.00  0.00    -0.075 OA 
ENDROOT
BRANCH   2   3
HETATM    3  C   UNL     1      -7.189  12.346  68.922  1.00  0.00    -0.061 A  
HETATM    4  N   UNL     1      -6.536  12.616  70.086  1.00  0.00     0.067 NA 
HETATM    5  C   UNL     1      -6.277  13.896  70.396  1.00  0.00    -0.105 A  
HETATM    6  C   UNL     1      -6.586  14.943  69.508  1.00  0.00    -0.154 A  
HETATM    7  C   UNL     1      -6.265  16.277  69.794  1.00  0.00    -0.192 A  
HETATM    8  C   UNL     1      -7.260  14.626  68.334  1.00  0.00    -0.117 A  
HETATM    9  C   UNL     1      -5.634  16.590  70.989  1.00  0.00     0.181 A  
HETATM   10  C   UNL     1      -7.690  13.322  68.052  1.00  0.00    -0.147 A  
HETATM   11  C   UNL     1      -5.360  15.586  71.909  1.00  0.00     0.176 A  
HETATM   12 BR   UNL     1      -5.143  18.378  71.342  1.00  0.00    -0.098 Br 
HETATM   13  C   UNL     1      -8.657  13.042  66.858  1.00  0.00    -0.126 C  
HETATM   14  C   UNL     1      -5.688  14.255  71.606  1.00  0.00    -0.164 A  
HETATM   15  C   UNL     1      -9.467  11.736  67.008  1.00  0.00    -0.191 A  
HETATM   16  C   UNL     1      -9.468  14.353  66.267  1.00  0.00    -0.271 C  
HETATM   17  O   UNL     1      -8.430  15.165  65.603  1.00  0.00     0.288 OA 
HETATM   18  C   UNL     1     -10.402  14.021  65.052  1.00  0.00    -0.432 C  
HETATM   19  C   UNL     1     -10.118  15.367  67.280  1.00  0.00    -0.238 A  
HETATM   20  C   UNL     1     -10.432  11.521  68.006  1.00  0.00    -0.214 A  
HETATM   21  C   UNL     1     -11.110  18.987  67.755  1.00  0.00    -0.088 A  
HETATM   22  C   UNL     1     -10.272  14.991  68.632  1.00  0.00    -0.231 A  
HETATM   23  C   UNL     1     -10.992  10.258  68.220  1.00  0.00    -0.315 A  
HETATM   24  H   UNL     1      -8.897  15.919  65.263  1.00  0.00     0.000 HD 
HETATM   25  C   UNL     1     -10.625  15.884  69.641  1.00  0.00    -0.301 A  
HETATM   26  C   UNL     1     -11.032  19.516  66.474  1.00  0.00    -0.343 A  
HETATM   27  C   UNL     1     -10.618   9.182  67.426  1.00  0.00    -0.315 A  
HETATM   28  C   UNL     1     -10.892  17.199  69.326  1.00  0.00    -0.035 A  
HETATM   29  C   UNL     1      -9.708   9.374  66.394  1.00  0.00    -0.315 A  
HETATM   30  C   UNL     1     -10.634  18.701  65.430  1.00  0.00     0.209 A  
HETATM   31  C   UNL     1     -10.326  17.355  65.674  1.00  0.00    -0.161 A  
HETATM   32  C   UNL     1      -9.141  10.637  66.182  1.00  0.00    -0.190 A  
HETATM   33  C   UNL     1     -10.818  17.636  68.005  1.00  0.00    -0.240 A  
HETATM   34  C   UNL     1     -10.423  16.747  66.955  1.00  0.00    -0.285 A  
BRANCH  18  35
HETATM   35  C   UNL     1     -11.686  13.216  65.275  1.00  0.00    -0.344 C  
BRANCH  35  36
HETATM   36  N   UNL     1     -11.779  12.026  64.390  1.00  0.00    -0.338 NA 
HETATM   37  C   UNL     1     -10.644  11.906  63.469  1.00  0.00    -0.453 C  
HETATM   38  C   UNL     1     -13.019  12.094  63.606  1.00  0.00    -0.213 C  
ENDBRANCH  35  36
ENDBRANCH  18  35
ENDBRANCH   2   3
TORSDOF 3
ENDMDL
MODEL       36
REMARK 921   NORMALIZED FREE ENERGY PREDICTED BY IDOCK:   -4.84 KCAL/MOL
REMARK 922        TOTAL FREE ENERGY PREDICTED BY IDOCK:   -6.47 KCAL/MOL
REMARK 923 INTER-LIGAND FREE ENERGY PREDICTED BY IDOCK:   -5.87 KCAL/MOL
REMARK 924 INTRA-LIGAND FREE ENERGY PREDICTED BY IDOCK:   -0.60 KCAL/MOL
REMARK 927      BINDING AFFINITY PREDICTED BY RF-SCORE:    0.00 PKD
ROOT
HETATM    1  C   UNL     1     -11.507  11.305  69.634  1.00  0.00    -0.309 C  
HETATM    2  O   UNL     1     -11.752   9.917  69.465  1.00  0.00    -0.078 OA 
ENDROOT
BRANCH   2   3
HETATM    3  C   UNL     1     -10.769   9.228  68.794  1.00  0.00    -0.154 A  
HETATM    4  N   UNL     1     -10.655   9.432  67.452  1.00  0.00    -0.274 NA 
HETATM    5  C   UNL     1      -9.590   8.924  66.813  1.00  0.00    -0.202 A  
HETATM    6  C   UNL     1      -8.558   8.271  67.510  1.00  0.00    -0.129 A  
HETATM    7  C   UNL     1      -7.411   7.790  66.861  1.00  0.00    -0.094 A  
HETATM    8  C   UNL     1      -8.715   8.075  68.878  1.00  0.00    -0.131 A  
HETATM    9  C   UNL     1      -7.283   7.948  65.489  1.00  0.00    -0.067 A  
HETATM   10  C   UNL     1      -9.886   8.447  69.551  1.00  0.00    -0.181 A  
HETATM   11  C   UNL     1      -8.307   8.545  64.764  1.00  0.00    -0.163 A  
HETATM   12 BR   UNL     1      -5.710   7.361  64.627  1.00  0.00    -0.037 Br 
HETATM   13  C   UNL     1     -10.138   7.991  71.024  1.00  0.00    -0.213 C  
HETATM   14  C   UNL     1      -9.448   9.021  65.430  1.00  0.00    -0.163 A  
HETATM   15  C   UNL     1     -11.630   7.974  71.423  1.00  0.00    -0.301 A  
HETATM   16  C   UNL     1      -9.215   6.729  71.554  1.00  0.00    -0.149 C  
HETATM   17  O   UNL     1      -7.852   7.284  71.661  1.00  0.00    -0.090 OA 
HETATM   18  C   UNL     1      -9.488   6.332  73.046  1.00  0.00    -0.145 C  
HETATM   19  C   UNL     1      -9.019   5.482  70.614  1.00  0.00    -0.160 A  
HETATM   20  C   UNL     1     -12.583   7.111  70.858  1.00  0.00    -0.268 A  
HETATM   21  C   UNL     1      -6.639   2.677  69.731  1.00  0.00    -0.033 A  
HETATM   22  C   UNL     1      -9.864   5.319  69.496  1.00  0.00    -0.270 A  
HETATM   23  C   UNL     1     -13.950   7.268  71.108  1.00  0.00    -0.226 A  
HETATM   24  H   UNL     1      -7.321   6.558  71.966  1.00  0.00     0.000 HD 
HETATM   25  C   UNL     1      -9.634   4.384  68.489  1.00  0.00    -0.208 A  
HETATM   26  C   UNL     1      -5.725   2.684  70.776  1.00  0.00    -0.013 A  
HETATM   27  C   UNL     1     -14.397   8.280  71.947  1.00  0.00    -0.564 A  
HETATM   28  C   UNL     1      -8.559   3.526  68.588  1.00  0.00    -0.122 A  
HETATM   29  C   UNL     1     -13.474   9.115  72.566  1.00  0.00    -0.490 A  
HETATM   30  C   UNL     1      -5.860   3.622  71.783  1.00  0.00    -0.013 A  
HETATM   31  C   UNL     1      -6.917   4.542  71.743  1.00  0.00    -0.043 A  
HETATM   32  C   UNL     1     -12.106   8.963  72.312  1.00  0.00    -0.392 A  
HETATM   33  C   UNL     1      -7.710   3.586  69.691  1.00  0.00    -0.051 A  
HETATM   34  C   UNL     1      -7.904   4.560  70.721  1.00  0.00    -0.064 A  
BRANCH  18  35
HETATM   35  C   UNL     1     -10.803   5.644  73.424  1.00  0.00    -0.275 C  
BRANCH  35  36
HETATM   36  N   UNL     1     -10.791   4.185  73.140  1.00  0.00    -0.200 NA 
HETATM   37  C   UNL     1     -12.099   3.553  73.334  1.00  0.00     0.516 C  
HETATM   38  C   UNL     1      -9.812   3.525  74.013  1.00  0.00    -0.115 C  
ENDBRANCH  35  36
ENDBRANCH  18  35
ENDBRANCH   2   3
TORSDOF 3
ENDMDL
MODEL       37
REMARK 921   NORMALIZED FREE ENERGY PREDICTED BY IDOCK:   -4.73 KCAL/MOL
REMARK 922        TOTAL FREE ENERGY PREDICTED BY IDOCK:   -6.34 KCAL/MOL
REMARK 923 INTER-LIGAND FREE ENERGY PREDICTED BY IDOCK:   -5.77 KCAL/MOL
REMARK 924 INTRA-LIGAND FREE ENERGY PREDICTED BY IDOCK:   -0.57 KCAL/MOL
REMARK 927      BINDING AFFINITY PREDICTED BY RF-SCORE:    0.00 PKD
ROOT
HETATM    1  C   UNL     1     -12.615   9.806  71.067  1.00  0.00    -0.314 C  
HETATM    2  O   UNL     1     -11.357   9.792  70.408  1.00  0.00    -0.262 OA 
ENDROOT
BRANCH   2   3
HETATM    3  C   UNL     1     -10.687   8.591  70.454  1.00  0.00    -0.228 A  
HETATM    4  N   UNL     1     -10.480   8.028  71.676  1.00  0.00    -0.211 NA 
HETATM    5  C   UNL     1     -10.004   6.775  71.734  1.00  0.00    -0.174 A  
HETATM    6  C   UNL     1      -9.803   6.011  70.570  1.00  0.00    -0.222 A  
HETATM    7  C   UNL     1      -9.364   4.680  70.622  1.00  0.00    -0.220 A  
HETATM    8  C   UNL     1     -10.018   6.625  69.341  1.00  0.00    -0.169 A  
HETATM    9  C   UNL     1      -9.106   4.090  71.850  1.00  0.00    -0.121 A  
HETATM   10  C   UNL     1     -10.359   7.980  69.237  1.00  0.00    -0.224 A  
HETATM   11  C   UNL     1      -9.247   4.832  73.016  1.00  0.00    -0.130 A  
HETATM   12 BR   UNL     1      -8.581   2.278  71.920  1.00  0.00    -0.092 Br 
HETATM   13  C   UNL     1     -10.348   8.701  67.851  1.00  0.00    -0.286 C  
HETATM   14  C   UNL     1      -9.688   6.163  72.946  1.00  0.00    -0.162 A  
HETATM   15  C   UNL     1     -10.181  10.233  67.949  1.00  0.00    -0.217 A  
HETATM   16  C   UNL     1      -9.508   7.940  66.651  1.00  0.00    -0.211 C  
HETATM   17  O   UNL     1     -10.309   6.741  66.338  1.00  0.00    -0.452 OA 
HETATM   18  C   UNL     1      -9.553   8.691  65.275  1.00  0.00     0.350 C  
HETATM   19  C   UNL     1      -8.088   7.342  66.977  1.00  0.00    -0.117 A  
HETATM   20  C   UNL     1      -9.024  10.866  68.432  1.00  0.00    -0.154 A  
HETATM   21  C   UNL     1      -5.638   4.620  66.029  1.00  0.00    -0.017 A  
HETATM   22  C   UNL     1      -7.431   7.728  68.164  1.00  0.00    -0.108 A  
HETATM   23  C   UNL     1      -8.996  12.241  68.685  1.00  0.00     0.016 A  
HETATM   24  H   UNL     1      -9.826   6.303  65.648  1.00  0.00     0.000 HD 
HETATM   25  C   UNL     1      -6.288   7.097  68.650  1.00  0.00    -0.035 A  
HETATM   26  C   UNL     1      -6.140   4.133  64.830  1.00  0.00    -0.023 A  
HETATM   27  C   UNL     1     -10.119  13.022  68.441  1.00  0.00    -0.225 A  
HETATM   28  C   UNL     1      -5.718   6.069  67.928  1.00  0.00    -0.012 A  
HETATM   29  C   UNL     1     -11.261  12.434  67.911  1.00  0.00    -0.316 A  
HETATM   30  C   UNL     1      -7.303   4.676  64.315  1.00  0.00    -0.062 A  
HETATM   31  C   UNL     1      -7.953   5.711  65.002  1.00  0.00    -0.115 A  
HETATM   32  C   UNL     1     -11.292  11.057  67.662  1.00  0.00    -0.355 A  
HETATM   33  C   UNL     1      -6.274   5.667  66.716  1.00  0.00    -0.034 A  
HETATM   34  C   UNL     1      -7.468   6.276  66.213  1.00  0.00    -0.086 A  
BRANCH  18  35
HETATM   35  C   UNL     1      -8.787  10.005  65.100  1.00  0.00    -0.180 C  
BRANCH  35  36
HETATM   36  N   UNL     1      -8.218  10.160  63.735  1.00  0.00    -0.159 NA 
HETATM   37  C   UNL     1      -9.013  11.046  62.880  1.00  0.00    -0.274 C  
HETATM   38  C   UNL     1      -8.119   8.844  63.093  1.00  0.00    -0.173 C  
ENDBRANCH  35  36
ENDBRANCH  18  35
ENDBRANCH   2   3
TORSDOF 3
ENDMDL
MODEL       38
REMARK 921   NORMALIZED FREE ENERGY PREDICTED BY IDOCK:   -4.73 KCAL/MOL
REMARK 922        TOTAL FREE ENERGY PREDICTED BY IDOCK:   -6.34 KCAL/MOL
REMARK 923 INTER-LIGAND FREE ENERGY PREDICTED BY IDOCK:   -5.63 KCAL/MOL
REMARK 924 INTRA-LIGAND FREE ENERGY PREDICTED BY IDOCK:   -0.70 KCAL/MOL
REMARK 927      BINDING AFFINITY PREDICTED BY RF-SCORE:    0.00 PKD
ROOT
HETATM    1  C   UNL     1      -8.353  10.709  63.911  1.00  0.00    -0.023 C  
HETATM    2  O   UNL     1      -7.809  10.460  65.199  1.00  0.00    -0.148 OA 
ENDROOT
BRANCH   2   3
HETATM    3  C   UNL     1      -7.608   9.133  65.501  1.00  0.00    -0.090 A  
HETATM    4  N   UNL     1      -7.235   8.302  64.488  1.00  0.00    -0.080 NA 
HETATM    5  C   UNL     1      -6.849   7.054  64.790  1.00  0.00    -0.047 A  
HETATM    6  C   UNL     1      -6.737   6.622  66.124  1.00  0.00    -0.049 A  
HETATM    7  C   UNL     1      -6.275   5.340  66.454  1.00  0.00    -0.035 A  
HETATM    8  C   UNL     1      -7.134   7.497  67.130  1.00  0.00    -0.085 A  
HETATM    9  C   UNL     1      -5.925   4.456  65.444  1.00  0.00    -0.023 A  
HETATM   10  C   UNL     1      -7.695   8.749  66.845  1.00  0.00    -0.094 A  
HETATM   11  C   UNL     1      -6.070   4.834  64.115  1.00  0.00    -0.022 A  
HETATM   12 BR   UNL     1      -5.240   2.755  65.891  1.00  0.00    -0.009 Br 
HETATM   13  C   UNL     1      -8.360   9.600  67.974  1.00  0.00    -0.117 C  
HETATM   14  C   UNL     1      -6.534   6.122  63.803  1.00  0.00    -0.029 A  
HETATM   15  C   UNL     1      -9.393  10.623  67.454  1.00  0.00    -0.157 A  
HETATM   16  C   UNL     1      -8.757   8.782  69.352  1.00  0.00    -0.142 C  
HETATM   17  O   UNL     1      -7.461   8.452  69.975  1.00  0.00    -0.061 OA 
HETATM   18  C   UNL     1      -9.394   9.688  70.462  1.00  0.00    -0.227 C  
HETATM   19  C   UNL     1      -9.460   7.378  69.229  1.00  0.00    -0.154 A  
HETATM   20  C   UNL     1     -10.602  10.271  66.832  1.00  0.00    -0.282 A  
HETATM   21  C   UNL     1      -9.903   4.033  70.938  1.00  0.00    -0.229 A  
HETATM   22  C   UNL     1     -10.014   6.989  67.991  1.00  0.00    -0.178 A  
HETATM   23  C   UNL     1     -11.407  11.227  66.205  1.00  0.00    -0.035 A  
HETATM   24  H   UNL     1      -7.689   7.981  70.768  1.00  0.00     0.000 HD 
HETATM   25  C   UNL     1     -10.454   5.695  67.720  1.00  0.00    -0.275 A  
HETATM   26  C   UNL     1      -9.412   4.254  72.218  1.00  0.00    -0.183 A  
HETATM   27  C   UNL     1     -11.034  12.564  66.203  1.00  0.00    -0.318 A  
HETATM   28  C   UNL     1     -10.402   4.736  68.709  1.00  0.00     0.028 A  
HETATM   29  C   UNL     1      -9.872  12.953  66.859  1.00  0.00    -0.235 A  
HETATM   30  C   UNL     1      -8.908   5.500  72.542  1.00  0.00    -0.130 A  
HETATM   31  C   UNL     1      -8.908   6.523  71.582  1.00  0.00    -0.135 A  
HETATM   32  C   UNL     1      -9.062  11.996  67.482  1.00  0.00    -0.177 A  
HETATM   33  C   UNL     1      -9.920   5.057  69.976  1.00  0.00    -0.324 A  
HETATM   34  C   UNL     1      -9.430   6.369  70.269  1.00  0.00    -0.171 A  
BRANCH  18  35
HETATM   35  C   UNL     1     -10.811  10.239  70.275  1.00  0.00    -0.286 C  
BRANCH  35  36
HETATM   36  N   UNL     1     -11.670  10.032  71.470  1.00  0.00    -0.339 NA 
HETATM   37  C   UNL     1     -12.101   8.639  71.631  1.00  0.00    -0.326 C  
HETATM   38  C   UNL     1     -12.859  10.887  71.373  1.00  0.00    -0.449 C  
ENDBRANCH  35  36
ENDBRANCH  18  35
ENDBRANCH   2   3
TORSDOF 3
ENDMDL
MODEL       39
REMARK 921   NORMALIZED FREE ENERGY PREDICTED BY IDOCK:   -4.58 KCAL/MOL
REMARK 922        TOTAL FREE ENERGY PREDICTED BY IDOCK:   -6.16 KCAL/MOL
REMARK 923 INTER-LIGAND FREE ENERGY PREDICTED BY IDOCK:   -5.59 KCAL/MOL
REMARK 924 INTRA-LIGAND FREE ENERGY PREDICTED BY IDOCK:   -0.57 KCAL/MOL
REMARK 927      BINDING AFFINITY PREDICTED BY RF-SCORE:    0.00 PKD
ROOT
HETATM    1  C   UNL     1      -5.443   9.351  72.149  1.00  0.00    -0.063 C  
HETATM    2  O   UNL     1      -5.300   9.459  70.740  1.00  0.00    -0.027 OA 
ENDROOT
BRANCH   2   3
HETATM    3  C   UNL     1      -5.881  10.573  70.178  1.00  0.00    -0.080 A  
HETATM    4  N   UNL     1      -5.739  11.759  70.831  1.00  0.00    -0.348 NA 
HETATM    5  C   UNL     1      -6.127  12.884  70.212  1.00  0.00    -0.068 A  
HETATM    6  C   UNL     1      -6.589  12.870  68.884  1.00  0.00    -0.095 A  
HETATM    7  C   UNL     1      -6.939  14.046  68.206  1.00  0.00    -0.107 A  
HETATM    8  C   UNL     1      -6.728  11.637  68.254  1.00  0.00    -0.064 A  
HETATM    9  C   UNL     1      -6.843  15.267  68.856  1.00  0.00    -0.122 A  
HETATM   10  C   UNL     1      -6.486  10.430  68.923  1.00  0.00    -0.052 A  
HETATM   11  C   UNL     1      -6.437  15.312  70.185  1.00  0.00    -0.089 A  
HETATM   12 BR   UNL     1      -7.251  16.855  67.921  1.00  0.00    -0.166 Br 
HETATM   13  C   UNL     1      -6.889   9.066  68.277  1.00  0.00    -0.065 C  
HETATM   14  C   UNL     1      -6.090  14.124  70.848  1.00  0.00    -0.149 A  
HETATM   15  C   UNL     1      -7.093   7.929  69.302  1.00  0.00    -0.071 A  
HETATM   16  C   UNL     1      -7.977   9.150  67.039  1.00  0.00    -0.102 C  
HETATM   17  O   UNL     1      -7.231   9.776  65.930  1.00  0.00    -0.096 OA 
HETATM   18  C   UNL     1      -8.324   7.757  66.408  1.00  0.00    -0.131 C  
HETATM   19  C   UNL     1      -9.235  10.084  67.193  1.00  0.00    -0.161 A  
HETATM   20  C   UNL     1      -8.112   7.918  70.269  1.00  0.00    -0.115 A  
HETATM   21  C   UNL     1     -11.724  12.185  65.268  1.00  0.00    -0.364 A  
HETATM   22  C   UNL     1      -9.578  10.577  68.469  1.00  0.00    -0.164 A  
HETATM   23  C   UNL     1      -8.134   6.969  71.295  1.00  0.00    -0.108 A  
HETATM   24  H   UNL     1      -7.857   9.825  65.217  1.00  0.00     0.000 HD 
HETATM   25  C   UNL     1     -10.527  11.575  68.677  1.00  0.00    -0.224 A  
HETATM   26  C   UNL     1     -11.529  11.794  63.950  1.00  0.00    -0.481 A  
HETATM   27  C   UNL     1      -7.149   5.993  71.369  1.00  0.00    -0.078 A  
HETATM   28  C   UNL     1     -11.218  12.094  67.603  1.00  0.00    -0.345 A  
HETATM   29  C   UNL     1      -6.159   5.942  70.395  1.00  0.00    -0.030 A  
HETATM   30  C   UNL     1     -10.564  10.846  63.663  1.00  0.00    -0.226 A  
HETATM   31  C   UNL     1      -9.805  10.287  64.701  1.00  0.00    -0.396 A  
HETATM   32  C   UNL     1      -6.132   6.895  69.370  1.00  0.00    -0.033 A  
HETATM   33  C   UNL     1     -10.978  11.618  66.315  1.00  0.00    -0.338 A  
HETATM   34  C   UNL     1      -9.984  10.618  66.072  1.00  0.00    -0.295 A  
BRANCH  18  35
HETATM   35  C   UNL     1      -9.167   6.752  67.198  1.00  0.00    -0.134 C  
BRANCH  35  36
HETATM   36  N   UNL     1      -9.040   5.364  66.682  1.00  0.00    -0.121 NA 
HETATM   37  C   UNL     1      -7.750   4.748  67.004  1.00  0.00    -0.091 C  
HETATM   38  C   UNL     1      -9.213   5.366  65.224  1.00  0.00     0.005 C  
ENDBRANCH  35  36
ENDBRANCH  18  35
ENDBRANCH   2   3
TORSDOF 3
ENDMDL
MODEL       40
REMARK 921   NORMALIZED FREE ENERGY PREDICTED BY IDOCK:   -4.53 KCAL/MOL
REMARK 922        TOTAL FREE ENERGY PREDICTED BY IDOCK:   -6.10 KCAL/MOL
REMARK 923 INTER-LIGAND FREE ENERGY PREDICTED BY IDOCK:   -5.49 KCAL/MOL
REMARK 924 INTRA-LIGAND FREE ENERGY PREDICTED BY IDOCK:   -0.62 KCAL/MOL
REMARK 927      BINDING AFFINITY PREDICTED BY RF-SCORE:    0.00 PKD
ROOT
HETATM    1  C   UNL     1      -5.245  11.478  70.296  1.00  0.00    -0.093 C  
HETATM    2  O   UNL     1      -6.645  11.706  70.217  1.00  0.00    -0.154 OA 
ENDROOT
BRANCH   2   3
HETATM    3  C   UNL     1      -7.332  10.841  69.397  1.00  0.00    -0.128 A  
HETATM    4  N   UNL     1      -6.927   9.541  69.366  1.00  0.00    -0.049 NA 
HETATM    5  C   UNL     1      -7.694   8.644  68.729  1.00  0.00    -0.097 A  
HETATM    6  C   UNL     1      -8.937   9.001  68.176  1.00  0.00    -0.133 A  
HETATM    7  C   UNL     1      -9.775   8.059  67.562  1.00  0.00    -0.206 A  
HETATM    8  C   UNL     1      -9.311  10.340  68.221  1.00  0.00    -0.140 A  
HETATM    9  C   UNL     1      -9.373   6.734  67.479  1.00  0.00    -0.124 A  
HETATM   10  C   UNL     1      -8.464  11.331  68.734  1.00  0.00    -0.112 A  
HETATM   11  C   UNL     1      -8.129   6.358  67.971  1.00  0.00    -0.116 A  
HETATM   12 BR   UNL     1     -10.531   5.456  66.712  1.00  0.00    -0.345 Br 
HETATM   13  C   UNL     1      -8.800  12.844  68.543  1.00  0.00    -0.044 C  
HETATM   14  C   UNL     1      -7.304   7.313  68.584  1.00  0.00    -0.100 A  
HETATM   15  C   UNL     1      -7.569  13.771  68.634  1.00  0.00    -0.125 A  
HETATM   16  C   UNL     1      -9.904  13.193  67.366  1.00  0.00    -0.226 C  
HETATM   17  O   UNL     1     -11.185  12.685  67.894  1.00  0.00    -0.235 OA 
HETATM   18  C   UNL     1     -10.227  14.722  67.236  1.00  0.00    -0.241 C  
HETATM   19  C   UNL     1      -9.784  12.471  65.971  1.00  0.00    -0.247 A  
HETATM   20  C   UNL     1      -6.509  13.759  67.713  1.00  0.00    -0.178 A  
HETATM   21  C   UNL     1     -11.769  11.244  62.994  1.00  0.00     0.545 A  
HETATM   22  C   UNL     1      -8.588  11.798  65.643  1.00  0.00     0.295 A  
HETATM   23  C   UNL     1      -5.330  14.474  67.947  1.00  0.00    -0.082 A  
HETATM   24  H   UNL     1     -11.820  12.885  67.217  1.00  0.00     0.000 HD 
HETATM   25  C   UNL     1      -8.462  10.951  64.544  1.00  0.00     0.086 A  
HETATM   26  C   UNL     1     -13.007  11.852  63.156  1.00  0.00    -0.023 A  
HETATM   27  C   UNL     1      -5.190  15.237  69.099  1.00  0.00    -0.095 A  
HETATM   28  C   UNL     1      -9.529  10.781  63.687  1.00  0.00    -0.325 A  
HETATM   29  C   UNL     1      -6.243  15.314  70.003  1.00  0.00    -0.151 A  
HETATM   30  C   UNL     1     -13.222  12.663  64.255  1.00  0.00     0.175 A  
HETATM   31  C   UNL     1     -12.191  12.869  65.183  1.00  0.00    -0.519 A  
HETATM   32  C   UNL     1      -7.421  14.594  69.773  1.00  0.00     0.032 A  
HETATM   33  C   UNL     1     -10.726  11.457  63.911  1.00  0.00    -0.462 A  
HETATM   34  C   UNL     1     -10.892  12.305  65.052  1.00  0.00    -0.337 A  
BRANCH  18  35
HETATM   35  C   UNL     1      -9.177  15.675  66.659  1.00  0.00    -0.266 C  
BRANCH  35  36
HETATM   36  N   UNL     1      -9.770  16.724  65.788  1.00  0.00    -0.543 NA 
HETATM   37  C   UNL     1     -10.195  17.913  66.533  1.00  0.00    -0.379 C  
HETATM   38  C   UNL     1     -10.929  16.172  65.076  1.00  0.00    -0.344 C  
ENDBRANCH  35  36
ENDBRANCH  18  35
ENDBRANCH   2   3
TORSDOF 3
ENDMDL
MODEL       41
REMARK 921   NORMALIZED FREE ENERGY PREDICTED BY IDOCK:   -4.10 KCAL/MOL
REMARK 922        TOTAL FREE ENERGY PREDICTED BY IDOCK:   -5.60 KCAL/MOL
REMARK 923 INTER-LIGAND FREE ENERGY PREDICTED BY IDOCK:   -4.82 KCAL/MOL
REMARK 924 INTRA-LIGAND FREE ENERGY PREDICTED BY IDOCK:   -0.78 KCAL/MOL
REMARK 927      BINDING AFFINITY PREDICTED BY RF-SCORE:    0.00 PKD
ROOT
HETATM    1  C   UNL     1      -7.698   7.031  63.862  1.00  0.00    -0.119 C  
HETATM    2  O   UNL     1      -8.605   7.234  64.935  1.00  0.00     0.001 OA 
ENDROOT
BRANCH   2   3
HETATM    3  C   UNL     1      -8.165   8.091  65.918  1.00  0.00    -0.127 A  
HETATM    4  N   UNL     1      -7.339   9.108  65.548  1.00  0.00    -0.088 NA 
HETATM    5  C   UNL     1      -7.054  10.063  66.446  1.00  0.00    -0.102 A  
HETATM    6  C   UNL     1      -7.656  10.080  67.717  1.00  0.00    -0.090 A  
HETATM    7  C   UNL     1      -7.412  11.106  68.641  1.00  0.00    -0.119 A  
HETATM    8  C   UNL     1      -8.487   9.019  68.060  1.00  0.00    -0.125 A  
HETATM    9  C   UNL     1      -6.545  12.136  68.310  1.00  0.00    -0.056 A  
HETATM   10  C   UNL     1      -8.681   7.922  67.209  1.00  0.00    -0.131 A  
HETATM   11  C   UNL     1      -5.896  12.124  67.081  1.00  0.00    -0.139 A  
HETATM   12 BR   UNL     1      -6.271  13.551  69.528  1.00  0.00    -0.113 Br 
HETATM   13  C   UNL     1      -9.411   6.638  67.717  1.00  0.00    -0.119 C  
HETATM   14  C   UNL     1      -6.152  11.089  66.167  1.00  0.00    -0.119 A  
HETATM   15  C   UNL     1      -9.060   5.365  66.916  1.00  0.00    -0.114 A  
HETATM   16  C   UNL     1      -9.521   6.475  69.357  1.00  0.00    -0.145 C  
HETATM   17  O   UNL     1     -10.474   7.522  69.772  1.00  0.00    -0.219 OA 
HETATM   18  C   UNL     1     -10.288   5.185  69.812  1.00  0.00    -0.332 C  
HETATM   19  C   UNL     1      -8.253   6.777  70.239  1.00  0.00    -0.125 A  
HETATM   20  C   UNL     1      -7.782   4.783  66.890  1.00  0.00    -0.091 A  
HETATM   21  C   UNL     1      -7.127   7.971  73.648  1.00  0.00    -0.158 A  
HETATM   22  C   UNL     1      -6.988   6.872  69.622  1.00  0.00    -0.063 A  
HETATM   23  C   UNL     1      -7.468   3.753  65.998  1.00  0.00    -0.080 A  
HETATM   24  H   UNL     1     -10.537   7.428  70.715  1.00  0.00     0.000 HD 
HETATM   25  C   UNL     1      -5.851   7.351  70.270  1.00  0.00    -0.024 A  
HETATM   26  C   UNL     1      -8.286   7.915  74.411  1.00  0.00    -0.288 A  
HETATM   27  C   UNL     1      -8.431   3.263  65.125  1.00  0.00    -0.100 A  
HETATM   28  C   UNL     1      -5.925   7.712  71.599  1.00  0.00    -0.035 A  
HETATM   29  C   UNL     1      -9.720   3.780  65.166  1.00  0.00    -0.176 A  
HETATM   30  C   UNL     1      -9.465   7.502  73.819  1.00  0.00    -0.330 A  
HETATM   31  C   UNL     1      -9.475   7.137  72.465  1.00  0.00    -0.167 A  
HETATM   32  C   UNL     1     -10.034   4.816  66.054  1.00  0.00    -0.255 A  
HETATM   33  C   UNL     1      -7.126   7.593  72.295  1.00  0.00    -0.071 A  
HETATM   34  C   UNL     1      -8.315   7.137  71.642  1.00  0.00    -0.110 A  
BRANCH  18  35
HETATM   35  C   UNL     1      -9.640   3.809  69.629  1.00  0.00    -0.172 C  
BRANCH  35  36
HETATM   36  N   UNL     1      -9.321   3.148  70.921  1.00  0.00    -0.138 NA 
HETATM   37  C   UNL     1     -10.105   3.674  72.043  1.00  0.00    -0.129 C  
HETATM   38  C   UNL     1      -7.894   3.318  71.220  1.00  0.00    -0.055 C  
ENDBRANCH  35  36
ENDBRANCH  18  35
ENDBRANCH   2   3
TORSDOF 3
ENDMDL
MODEL       42
REMARK 921   NORMALIZED FREE ENERGY PREDICTED BY IDOCK:   -4.08 KCAL/MOL
REMARK 922        TOTAL FREE ENERGY PREDICTED BY IDOCK:   -5.58 KCAL/MOL
REMARK 923 INTER-LIGAND FREE ENERGY PREDICTED BY IDOCK:   -6.07 KCAL/MOL
REMARK 924 INTRA-LIGAND FREE ENERGY PREDICTED BY IDOCK:    0.50 KCAL/MOL
REMARK 927      BINDING AFFINITY PREDICTED BY RF-SCORE:    0.00 PKD
ROOT
HETATM    1  C   UNL     1      -9.954   7.895  71.474  1.00  0.00    -0.173 C  
HETATM    2  O   UNL     1     -11.072   8.162  70.640  1.00  0.00    -0.250 OA 
ENDROOT
BRANCH   2   3
HETATM    3  C   UNL     1     -11.477   9.476  70.609  1.00  0.00    -0.297 A  
HETATM    4  N   UNL     1     -12.610   9.807  71.288  1.00  0.00    -0.341 NA 
HETATM    5  C   UNL     1     -12.917  11.105  71.432  1.00  0.00    -0.403 A  
HETATM    6  C   UNL     1     -12.055  12.119  70.978  1.00  0.00    -0.058 A  
HETATM    7  C   UNL     1     -12.335  13.478  71.178  1.00  0.00    -0.377 A  
HETATM    8  C   UNL     1     -10.911  11.740  70.282  1.00  0.00     0.755 A  
HETATM    9  C   UNL     1     -13.501  13.849  71.831  1.00  0.00    -0.427 A  
HETATM   10  C   UNL     1     -10.640  10.401  69.972  1.00  0.00    -0.282 A  
HETATM   11  C   UNL     1     -14.399  12.873  72.249  1.00  0.00     0.128 A  
HETATM   12 BR   UNL     1     -13.845  15.675  72.159  1.00  0.00    -0.491 Br 
HETATM   13  C   UNL     1      -9.491  10.030  68.980  1.00  0.00    -0.190 C  
HETATM   14  C   UNL     1     -14.101  11.517  72.041  1.00  0.00     0.808 A  
HETATM   15  C   UNL     1      -9.669   8.648  68.313  1.00  0.00    -0.171 A  
HETATM   16  C   UNL     1      -8.951  11.255  68.015  1.00  0.00    -0.156 C  
HETATM   17  O   UNL     1      -8.244  12.169  68.933  1.00  0.00    -0.342 OA 
HETATM   18  C   UNL     1      -7.779  10.835  67.060  1.00  0.00    -0.121 C  
HETATM   19  C   UNL     1     -10.003  12.195  67.317  1.00  0.00    -0.211 A  
HETATM   20  C   UNL     1     -10.710   8.335  67.424  1.00  0.00    -0.236 A  
HETATM   21  C   UNL     1     -10.554  15.696  65.993  1.00  0.00    -0.336 A  
HETATM   22  C   UNL     1     -11.356  11.801  67.267  1.00  0.00    -0.379 A  
HETATM   23  C   UNL     1     -10.941   7.021  67.004  1.00  0.00    -0.357 A  
HETATM   24  H   UNL     1      -7.933  12.873  68.377  1.00  0.00     0.000 HD 
HETATM   25  C   UNL     1     -12.389  12.650  66.876  1.00  0.00     0.214 A  
HETATM   26  C   UNL     1      -9.275  16.235  65.956  1.00  0.00    -0.351 A  
HETATM   27  C   UNL     1     -10.121   5.991  67.444  1.00  0.00    -0.196 A  
HETATM   28  C   UNL     1     -12.098  13.934  66.464  1.00  0.00    -0.484 A  
HETATM   29  C   UNL     1      -9.048   6.277  68.279  1.00  0.00    -0.113 A  
HETATM   30  C   UNL     1      -8.206  15.468  66.382  1.00  0.00    -0.055 A  
HETATM   31  C   UNL     1      -8.424  14.158  66.834  1.00  0.00    -0.117 A  
HETATM   32  C   UNL     1      -8.820   7.590  68.706  1.00  0.00    -0.131 A  
HETATM   33  C   UNL     1     -10.779  14.380  66.430  1.00  0.00    -0.306 A  
HETATM   34  C   UNL     1      -9.704  13.539  66.860  1.00  0.00    -0.261 A  
BRANCH  18  35
HETATM   35  C   UNL     1      -8.057   9.905  65.876  1.00  0.00    -0.121 C  
BRANCH  35  36
HETATM   36  N   UNL     1      -6.965   9.916  64.868  1.00  0.00    -0.125 NA 
HETATM   37  C   UNL     1      -6.398   8.587  64.623  1.00  0.00    -0.065 C  
HETATM   38  C   UNL     1      -5.894  10.814  65.316  1.00  0.00    -0.057 C  
ENDBRANCH  35  36
ENDBRANCH  18  35
ENDBRANCH   2   3
TORSDOF 3
ENDMDL
MODEL       43
REMARK 921   NORMALIZED FREE ENERGY PREDICTED BY IDOCK:   -3.98 KCAL/MOL
REMARK 922        TOTAL FREE ENERGY PREDICTED BY IDOCK:   -5.46 KCAL/MOL
REMARK 923 INTER-LIGAND FREE ENERGY PREDICTED BY IDOCK:   -4.77 KCAL/MOL
REMARK 924 INTRA-LIGAND FREE ENERGY PREDICTED BY IDOCK:   -0.69 KCAL/MOL
REMARK 927      BINDING AFFINITY PREDICTED BY RF-SCORE:    0.00 PKD
ROOT
HETATM    1  C   UNL     1     -10.306   6.833  72.739  1.00  0.00    -0.209 C  
HETATM    2  O   UNL     1      -9.194   7.524  72.188  1.00  0.00    -0.132 OA 
ENDROOT
BRANCH   2   3
HETATM    3  C   UNL     1      -9.505   8.469  71.238  1.00  0.00    -0.205 A  
HETATM    4  N   UNL     1     -10.666   9.164  71.394  1.00  0.00    -0.318 NA 
HETATM    5  C   UNL     1     -10.896  10.216  70.593  1.00  0.00    -0.235 A  
HETATM    6  C   UNL     1      -9.933  10.662  69.670  1.00  0.00    -0.090 A  
HETATM    7  C   UNL     1     -10.138  11.797  68.873  1.00  0.00    -0.088 A  
HETATM    8  C   UNL     1      -8.764   9.920  69.536  1.00  0.00    -0.200 A  
HETATM    9  C   UNL     1     -11.326  12.504  68.978  1.00  0.00    -0.290 A  
HETATM   10  C   UNL     1      -8.559   8.725  70.238  1.00  0.00    -0.158 A  
HETATM   11  C   UNL     1     -12.318  12.062  69.845  1.00  0.00    -0.143 A  
HETATM   12 BR   UNL     1     -11.572  14.070  67.953  1.00  0.00    -0.398 Br 
HETATM   13  C   UNL     1      -7.360   7.788  69.883  1.00  0.00    -0.079 C  
HETATM   14  C   UNL     1     -12.096  10.925  70.637  1.00  0.00    -0.468 A  
HETATM   15  C   UNL     1      -7.574   6.318  70.305  1.00  0.00    -0.096 A  
HETATM   16  C   UNL     1      -6.661   8.041  68.409  1.00  0.00    -0.067 C  
HETATM   17  O   UNL     1      -5.973   9.340  68.542  1.00  0.00    -0.044 OA 
HETATM   18  C   UNL     1      -5.446   7.094  68.117  1.00  0.00    -0.021 C  
HETATM   19  C   UNL     1      -7.587   8.256  67.154  1.00  0.00    -0.093 A  
HETATM   20  C   UNL     1      -8.558   5.480  69.755  1.00  0.00    -0.112 A  
HETATM   21  C   UNL     1      -7.792   9.938  63.771  1.00  0.00    -0.147 A  
HETATM   22  C   UNL     1      -8.955   7.924  67.240  1.00  0.00    -0.137 A  
HETATM   23  C   UNL     1      -8.840   4.226  70.306  1.00  0.00    -0.133 A  
HETATM   24  H   UNL     1      -5.571   9.486  67.694  1.00  0.00     0.000 HD 
HETATM   25  C   UNL     1      -9.894   8.279  66.273  1.00  0.00    -0.227 A  
HETATM   26  C   UNL     1      -6.481  10.318  63.517  1.00  0.00    -0.105 A  
HETATM   27  C   UNL     1      -8.130   3.770  71.409  1.00  0.00    -0.068 A  
HETATM   28  C   UNL     1      -9.484   8.948  65.139  1.00  0.00     0.098 A  
HETATM   29  C   UNL     1      -7.113   4.552  71.942  1.00  0.00    -0.056 A  
HETATM   30  C   UNL     1      -5.505  10.047  64.458  1.00  0.00    -0.094 A  
HETATM   31  C   UNL     1      -5.847   9.386  65.647  1.00  0.00    -0.054 A  
HETATM   32  C   UNL     1      -6.833   5.809  71.395  1.00  0.00    -0.063 A  
HETATM   33  C   UNL     1      -8.140   9.262  64.953  1.00  0.00    -0.130 A  
HETATM   34  C   UNL     1      -7.162   8.939  65.948  1.00  0.00    -0.089 A  
BRANCH  18  35
HETATM   35  C   UNL     1      -5.688   5.607  67.846  1.00  0.00    -0.013 C  
BRANCH  35  36
HETATM   36  N   UNL     1      -6.295   5.357  66.512  1.00  0.00    -0.038 NA 
HETATM   37  C   UNL     1      -6.901   4.027  66.399  1.00  0.00    -0.058 C  
HETATM   38  C   UNL     1      -5.268   5.500  65.472  1.00  0.00    -0.009 C  
ENDBRANCH  35  36
ENDBRANCH  18  35
ENDBRANCH   2   3
TORSDOF 3
ENDMDL
MODEL       44
REMARK 921   NORMALIZED FREE ENERGY PREDICTED BY IDOCK:   -3.96 KCAL/MOL
REMARK 922        TOTAL FREE ENERGY PREDICTED BY IDOCK:   -5.43 KCAL/MOL
REMARK 923 INTER-LIGAND FREE ENERGY PREDICTED BY IDOCK:   -4.60 KCAL/MOL
REMARK 924 INTRA-LIGAND FREE ENERGY PREDICTED BY IDOCK:   -0.83 KCAL/MOL
REMARK 927      BINDING AFFINITY PREDICTED BY RF-SCORE:    0.00 PKD
ROOT
HETATM    1  C   UNL     1     -13.425   9.722  72.370  1.00  0.00    -0.272 C  
HETATM    2  O   UNL     1     -12.027   9.635  72.138  1.00  0.00    -0.258 OA 
ENDROOT
BRANCH   2   3
HETATM    3  C   UNL     1     -11.579  10.293  71.016  1.00  0.00    -0.343 A  
HETATM    4  N   UNL     1     -12.338  11.317  70.538  1.00  0.00    -0.352 NA 
HETATM    5  C   UNL     1     -11.832  12.094  69.568  1.00  0.00    -0.321 A  
HETATM    6  C   UNL     1     -10.514  11.927  69.106  1.00  0.00    -0.035 A  
HETATM    7  C   UNL     1      -9.954  12.772  68.137  1.00  0.00    -0.229 A  
HETATM    8  C   UNL     1      -9.773  10.865  69.614  1.00  0.00     0.206 A  
HETATM    9  C   UNL     1     -10.714  13.800  67.601  1.00  0.00    -0.249 A  
HETATM   10  C   UNL     1     -10.324   9.937  70.508  1.00  0.00    -0.298 A  
HETATM   11  C   UNL     1     -12.036  13.962  68.000  1.00  0.00    -0.390 A  
HETATM   12 BR   UNL     1      -9.937  14.977  66.347  1.00  0.00    -0.316 Br 
HETATM   13  C   UNL     1      -9.558   8.622  70.863  1.00  0.00    -0.252 C  
HETATM   14  C   UNL     1     -12.580  13.108  68.971  1.00  0.00     0.538 A  
HETATM   15  C   UNL     1     -10.475   7.485  71.366  1.00  0.00    -0.226 A  
HETATM   16  C   UNL     1      -8.347   8.192  69.827  1.00  0.00    -0.124 C  
HETATM   17  O   UNL     1      -7.292   9.200  70.049  1.00  0.00    -0.055 OA 
HETATM   18  C   UNL     1      -7.593   6.883  70.246  1.00  0.00    -0.091 C  
HETATM   19  C   UNL     1      -8.603   8.282  68.276  1.00  0.00    -0.133 A  
HETATM   20  C   UNL     1     -11.449   6.855  70.574  1.00  0.00    -0.390 A  
HETATM   21  C   UNL     1      -6.916   8.834  64.935  1.00  0.00    -0.073 A  
HETATM   22  C   UNL     1      -9.925   8.418  67.801  1.00  0.00    -0.236 A  
HETATM   23  C   UNL     1     -12.383   5.974  71.129  1.00  0.00     0.604 A  
HETATM   24  H   UNL     1      -6.595   8.953  69.453  1.00  0.00     0.000 HD 
HETATM   25  C   UNL     1     -10.237   8.727  66.479  1.00  0.00    -0.314 A  
HETATM   26  C   UNL     1      -5.565   8.707  65.229  1.00  0.00    -0.047 A  
HETATM   27  C   UNL     1     -12.352   5.684  72.486  1.00  0.00     0.161 A  
HETATM   28  C   UNL     1      -9.225   8.864  65.553  1.00  0.00    -0.242 A  
HETATM   29  C   UNL     1     -11.365   6.248  73.286  1.00  0.00     0.078 A  
HETATM   30  C   UNL     1      -5.178   8.456  66.532  1.00  0.00    -0.028 A  
HETATM   31  C   UNL     1      -6.149   8.323  67.535  1.00  0.00    -0.052 A  
HETATM   32  C   UNL     1     -10.434   7.135  72.734  1.00  0.00    -0.278 A  
HETATM   33  C   UNL     1      -7.896   8.688  65.932  1.00  0.00    -0.102 A  
HETATM   34  C   UNL     1      -7.547   8.405  67.291  1.00  0.00    -0.097 A  
BRANCH  18  35
HETATM   35  C   UNL     1      -8.297   5.528  70.126  1.00  0.00    -0.116 C  
BRANCH  35  36
HETATM   36  N   UNL     1      -7.816   4.540  71.128  1.00  0.00    -0.075 NA 
HETATM   37  C   UNL     1      -8.886   3.681  71.644  1.00  0.00    -0.099 C  
HETATM   38  C   UNL     1      -7.192   5.248  72.252  1.00  0.00    -0.091 C  
ENDBRANCH  35  36
ENDBRANCH  18  35
ENDBRANCH   2   3
TORSDOF 3
ENDMDL
MODEL       45
REMARK 921   NORMALIZED FREE ENERGY PREDICTED BY IDOCK:   -3.95 KCAL/MOL
REMARK 922        TOTAL FREE ENERGY PREDICTED BY IDOCK:   -5.42 KCAL/MOL
REMARK 923 INTER-LIGAND FREE ENERGY PREDICTED BY IDOCK:   -5.22 KCAL/MOL
REMARK 924 INTRA-LIGAND FREE ENERGY PREDICTED BY IDOCK:   -0.20 KCAL/MOL
REMARK 927      BINDING AFFINITY PREDICTED BY RF-SCORE:    0.00 PKD
ROOT
HETATM    1  C   UNL     1      -7.280  13.379  67.091  1.00  0.00     0.155 C  
HETATM    2  O   UNL     1      -8.246  12.468  66.588  1.00  0.00    -0.060 OA 
ENDROOT
BRANCH   2   3
HETATM    3  C   UNL     1      -8.004  11.144  66.874  1.00  0.00    -0.151 A  
HETATM    4  N   UNL     1      -7.211  10.444  66.016  1.00  0.00    -0.128 NA 
HETATM    5  C   UNL     1      -6.806   9.216  66.371  1.00  0.00    -0.079 A  
HETATM    6  C   UNL     1      -7.108   8.680  67.636  1.00  0.00    -0.080 A  
HETATM    7  C   UNL     1      -6.638   7.423  68.042  1.00  0.00    -0.054 A  
HETATM    8  C   UNL     1      -7.927   9.422  68.481  1.00  0.00    -0.093 A  
HETATM    9  C   UNL     1      -5.861   6.669  67.176  1.00  0.00    -0.014 A  
HETATM   10  C   UNL     1      -8.500  10.637  68.081  1.00  0.00    -0.122 A  
HETATM   11  C   UNL     1      -5.586   7.147  65.900  1.00  0.00    -0.031 A  
HETATM   12 BR   UNL     1      -5.175   5.007  67.748  1.00  0.00    -0.008 Br 
HETATM   13  C   UNL     1      -9.608  11.318  68.947  1.00  0.00    -0.119 C  
HETATM   14  C   UNL     1      -6.064   8.408  65.511  1.00  0.00    -0.045 A  
HETATM   15  C   UNL     1     -10.514  12.282  68.151  1.00  0.00    -0.228 A  
HETATM   16  C   UNL     1     -10.353  10.348  70.056  1.00  0.00    -0.128 C  
HETATM   17  O   UNL     1      -9.319  10.087  71.077  1.00  0.00    -0.211 OA 
HETATM   18  C   UNL     1     -11.434  11.089  70.917  1.00  0.00     0.155 C  
HETATM   19  C   UNL     1     -10.799   8.901  69.624  1.00  0.00    -0.186 A  
HETATM   20  C   UNL     1     -11.385  11.874  67.128  1.00  0.00    -0.393 A  
HETATM   21  C   UNL     1     -11.401   5.391  70.900  1.00  0.00     0.327 A  
HETATM   22  C   UNL     1     -10.846   8.572  68.253  1.00  0.00     0.013 A  
HETATM   23  C   UNL     1     -12.034  12.802  66.307  1.00  0.00    -0.460 A  
HETATM   24  H   UNL     1      -9.748   9.529  71.714  1.00  0.00     0.000 HD 
HETATM   25  C   UNL     1     -11.009   7.272  67.780  1.00  0.00    -0.141 A  
HETATM   26  C   UNL     1     -11.408   5.543  72.280  1.00  0.00    -0.257 A  
HETATM   27  C   UNL     1     -11.844  14.164  66.503  1.00  0.00    -0.439 A  
HETATM   28  C   UNL     1     -11.185   6.238  68.676  1.00  0.00    -0.328 A  
HETATM   29  C   UNL     1     -11.032  14.600  67.543  1.00  0.00    -0.301 A  
HETATM   30  C   UNL     1     -11.196   6.797  72.822  1.00  0.00    -0.267 A  
HETATM   31  C   UNL     1     -10.989   7.897  71.976  1.00  0.00    -0.329 A  
HETATM   32  C   UNL     1     -10.378  13.672  68.361  1.00  0.00    -0.248 A  
HETATM   33  C   UNL     1     -11.209   6.490  70.046  1.00  0.00    -0.453 A  
HETATM   34  C   UNL     1     -11.008   7.811  70.557  1.00  0.00    -0.251 A  
BRANCH  18  35
HETATM   35  C   UNL     1     -12.756  11.519  70.274  1.00  0.00    -0.010 C  
BRANCH  35  36
HETATM   36  N   UNL     1     -13.394  12.660  70.981  1.00  0.00     0.195 NA 
HETATM   37  C   UNL     1     -12.785  13.952  70.650  1.00  0.00    -0.281 C  
HETATM   38  C   UNL     1     -13.302  12.451  72.431  1.00  0.00    -0.175 C  
ENDBRANCH  35  36
ENDBRANCH  18  35
ENDBRANCH   2   3
TORSDOF 3
ENDMDL
MODEL       46
REMARK 921   NORMALIZED FREE ENERGY PREDICTED BY IDOCK:   -3.92 KCAL/MOL
REMARK 922        TOTAL FREE ENERGY PREDICTED BY IDOCK:   -5.38 KCAL/MOL
REMARK 923 INTER-LIGAND FREE ENERGY PREDICTED BY IDOCK:   -4.67 KCAL/MOL
REMARK 924 INTRA-LIGAND FREE ENERGY PREDICTED BY IDOCK:   -0.72 KCAL/MOL
REMARK 927      BINDING AFFINITY PREDICTED BY RF-SCORE:    0.00 PKD
ROOT
HETATM    1  C   UNL     1     -11.232  11.196  68.139  1.00  0.00    -0.292 C  
HETATM    2  O   UNL     1     -10.320  10.245  68.669  1.00  0.00    -0.167 OA 
ENDROOT
BRANCH   2   3
HETATM    3  C   UNL     1      -9.646   9.496  67.732  1.00  0.00    -0.133 A  
HETATM    4  N   UNL     1      -9.802   9.833  66.422  1.00  0.00    -0.219 NA 
HETATM    5  C   UNL     1      -9.012   9.246  65.510  1.00  0.00    -0.205 A  
HETATM    6  C   UNL     1      -7.979   8.369  65.887  1.00  0.00    -0.099 A  
HETATM    7  C   UNL     1      -7.109   7.798  64.948  1.00  0.00    -0.060 A  
HETATM    8  C   UNL     1      -7.858   8.044  67.235  1.00  0.00    -0.109 A  
HETATM    9  C   UNL     1      -7.266   8.089  63.602  1.00  0.00    -0.093 A  
HETATM   10  C   UNL     1      -8.766   8.511  68.195  1.00  0.00    -0.142 A  
HETATM   11  C   UNL     1      -8.306   8.913  63.190  1.00  0.00    -0.185 A  
HETATM   12 BR   UNL     1      -6.052   7.373  62.346  1.00  0.00    -0.059 Br 
HETATM   13  C   UNL     1      -8.757   7.933  69.647  1.00  0.00    -0.134 C  
HETATM   14  C   UNL     1      -9.168   9.477  64.144  1.00  0.00    -0.142 A  
HETATM   15  C   UNL     1     -10.101   8.096  70.389  1.00  0.00    -0.196 A  
HETATM   16  C   UNL     1      -7.972   6.494  69.843  1.00  0.00    -0.116 C  
HETATM   17  O   UNL     1      -6.545   6.820  69.662  1.00  0.00    -0.045 OA 
HETATM   18  C   UNL     1      -7.969   5.975  71.323  1.00  0.00    -0.113 C  
HETATM   19  C   UNL     1      -8.211   5.346  68.792  1.00  0.00    -0.094 A  
HETATM   20  C   UNL     1     -11.291   7.457  70.005  1.00  0.00    -0.150 A  
HETATM   21  C   UNL     1      -6.613   2.333  67.155  1.00  0.00    -0.039 A  
HETATM   22  C   UNL     1      -9.300   5.441  67.900  1.00  0.00    -0.123 A  
HETATM   23  C   UNL     1     -12.519   7.789  70.586  1.00  0.00     0.146 A  
HETATM   24  H   UNL     1      -6.093   5.992  69.775  1.00  0.00     0.000 HD 
HETATM   25  C   UNL     1      -9.467   4.604  66.800  1.00  0.00    -0.172 A  
HETATM   26  C   UNL     1      -5.501   2.083  67.949  1.00  0.00    -0.017 A  
HETATM   27  C   UNL     1     -12.584   8.755  71.582  1.00  0.00    -0.393 A  
HETATM   28  C   UNL     1      -8.563   3.587  66.573  1.00  0.00    -0.116 A  
HETATM   29  C   UNL     1     -11.416   9.365  72.023  1.00  0.00    -0.166 A  
HETATM   30  C   UNL     1      -5.242   2.910  69.027  1.00  0.00    -0.012 A  
HETATM   31  C   UNL     1      -6.105   3.978  69.311  1.00  0.00    -0.027 A  
HETATM   32  C   UNL     1     -10.188   9.038  71.438  1.00  0.00    -0.399 A  
HETATM   33  C   UNL     1      -7.491   3.392  67.442  1.00  0.00    -0.066 A  
HETATM   34  C   UNL     1      -7.278   4.261  68.559  1.00  0.00    -0.056 A  
BRANCH  18  35
HETATM   35  C   UNL     1      -9.265   5.455  71.951  1.00  0.00    -0.138 C  
BRANCH  35  36
HETATM   36  N   UNL     1      -9.168   4.034  72.377  1.00  0.00    -0.114 NA 
HETATM   37  C   UNL     1      -7.788   3.598  72.609  1.00  0.00    -0.072 C  
HETATM   38  C   UNL     1      -9.772   3.174  71.352  1.00  0.00    -0.149 C  
ENDBRANCH  35  36
ENDBRANCH  18  35
ENDBRANCH   2   3
TORSDOF 3
ENDMDL
MODEL       47
REMARK 921   NORMALIZED FREE ENERGY PREDICTED BY IDOCK:   -3.74 KCAL/MOL
REMARK 922        TOTAL FREE ENERGY PREDICTED BY IDOCK:   -5.18 KCAL/MOL
REMARK 923 INTER-LIGAND FREE ENERGY PREDICTED BY IDOCK:   -4.69 KCAL/MOL
REMARK 924 INTRA-LIGAND FREE ENERGY PREDICTED BY IDOCK:   -0.49 KCAL/MOL
REMARK 927      BINDING AFFINITY PREDICTED BY RF-SCORE:    0.00 PKD
ROOT
HETATM    1  C   UNL     1     -10.908   4.551  64.912  1.00  0.00     0.017 C  
HETATM    2  O   UNL     1      -9.684   4.940  65.518  1.00  0.00    -0.162 OA 
ENDROOT
BRANCH   2   3
HETATM    3  C   UNL     1      -9.744   6.091  66.269  1.00  0.00    -0.078 A  
HETATM    4  N   UNL     1      -9.732   7.281  65.607  1.00  0.00     0.572 NA 
HETATM    5  C   UNL     1      -9.983   8.404  66.298  1.00  0.00    -0.146 A  
HETATM    6  C   UNL     1     -10.341   8.365  67.658  1.00  0.00    -0.317 A  
HETATM    7  C   UNL     1     -10.665   9.525  68.374  1.00  0.00    -0.230 A  
HETATM    8  C   UNL     1     -10.334   7.131  68.300  1.00  0.00    -0.227 A  
HETATM    9  C   UNL     1     -10.624  10.757  67.739  1.00  0.00    -0.228 A  
HETATM   10  C   UNL     1      -9.921   5.959  67.652  1.00  0.00    -0.159 A  
HETATM   11  C   UNL     1     -10.226  10.836  66.410  1.00  0.00    -0.294 A  
HETATM   12 BR   UNL     1     -11.125  12.311  68.687  1.00  0.00    -0.318 Br 
HETATM   13  C   UNL     1      -9.683   4.643  68.460  1.00  0.00    -0.208 C  
HETATM   14  C   UNL     1      -9.906   9.664  65.707  1.00  0.00    -0.373 A  
HETATM   15  C   UNL     1      -8.727   3.651  67.763  1.00  0.00    -0.126 A  
HETATM   16  C   UNL     1      -9.505   4.823  70.091  1.00  0.00    -0.175 C  
HETATM   17  O   UNL     1     -10.846   5.209  70.572  1.00  0.00    -0.147 OA 
HETATM   18  C   UNL     1      -9.298   3.469  70.856  1.00  0.00    -0.217 C  
HETATM   19  C   UNL     1      -8.586   5.980  70.634  1.00  0.00    -0.134 A  
HETATM   20  C   UNL     1      -7.365   3.905  67.532  1.00  0.00    -0.067 A  
HETATM   21  C   UNL     1      -8.052   8.336  73.545  1.00  0.00    -0.237 A  
HETATM   22  C   UNL     1      -7.699   6.631  69.750  1.00  0.00    -0.113 A  
HETATM   23  C   UNL     1      -6.592   3.064  66.726  1.00  0.00    -0.037 A  
HETATM   24  H   UNL     1     -10.743   5.312  71.510  1.00  0.00     0.000 HD 
HETATM   25  C   UNL     1      -7.014   7.800  70.072  1.00  0.00    -0.050 A  
HETATM   26  C   UNL     1      -8.862   7.809  74.543  1.00  0.00     0.019 A  
HETATM   27  C   UNL     1      -7.155   1.934  66.149  1.00  0.00    -0.051 A  
HETATM   28  C   UNL     1      -7.151   8.346  71.331  1.00  0.00    -0.074 A  
HETATM   29  C   UNL     1      -8.486   1.623  66.406  1.00  0.00    -0.101 A  
HETATM   30  C   UNL     1      -9.614   6.681  74.275  1.00  0.00    -0.296 A  
HETATM   31  C   UNL     1      -9.544   6.079  73.011  1.00  0.00    -0.155 A  
HETATM   32  C   UNL     1      -9.263   2.468  67.207  1.00  0.00    -0.163 A  
HETATM   33  C   UNL     1      -7.964   7.730  72.281  1.00  0.00    -0.136 A  
HETATM   34  C   UNL     1      -8.706   6.548  71.962  1.00  0.00    -0.132 A  
BRANCH  18  35
HETATM   35  C   UNL     1      -7.980   2.704  70.706  1.00  0.00    -0.045 C  
BRANCH  35  36
HETATM   36  N   UNL     1      -7.655   1.881  71.901  1.00  0.00    -0.040 NA 
HETATM   37  C   UNL     1      -7.912   2.579  73.165  1.00  0.00    -0.051 C  
HETATM   38  C   UNL     1      -6.241   1.488  71.855  1.00  0.00    -0.014 C  
ENDBRANCH  35  36
ENDBRANCH  18  35
ENDBRANCH   2   3
TORSDOF 3
ENDMDL
MODEL       48
REMARK 921   NORMALIZED FREE ENERGY PREDICTED BY IDOCK:   -3.07 KCAL/MOL
REMARK 922        TOTAL FREE ENERGY PREDICTED BY IDOCK:   -4.38 KCAL/MOL
REMARK 923 INTER-LIGAND FREE ENERGY PREDICTED BY IDOCK:   -3.73 KCAL/MOL
REMARK 924 INTRA-LIGAND FREE ENERGY PREDICTED BY IDOCK:   -0.66 KCAL/MOL
REMARK 927      BINDING AFFINITY PREDICTED BY RF-SCORE:    0.00 PKD
ROOT
HETATM    1  C   UNL     1      -9.328  19.235  65.962  1.00  0.00    -0.145 C  
HETATM    2  O   UNL     1      -8.495  18.085  65.944  1.00  0.00    -0.509 OA 
ENDROOT
BRANCH   2   3
HETATM    3  C   UNL     1      -9.155  16.889  65.779  1.00  0.00     0.106 A  
HETATM    4  N   UNL     1     -10.331  16.904  65.093  1.00  0.00    -0.592 NA 
HETATM    5  C   UNL     1     -10.893  15.733  64.755  1.00  0.00    -0.344 A  
HETATM    6  C   UNL     1     -10.251  14.509  65.014  1.00  0.00    -0.398 A  
HETATM    7  C   UNL     1     -10.799  13.283  64.610  1.00  0.00    -0.396 A  
HETATM    8  C   UNL     1      -9.055  14.535  65.723  1.00  0.00     0.322 A  
HETATM    9  C   UNL     1     -12.015  13.261  63.944  1.00  0.00    -0.483 A  
HETATM   10  C   UNL     1      -8.521  15.726  66.234  1.00  0.00    -0.245 A  
HETATM   11  C   UNL     1     -12.699  14.450  63.715  1.00  0.00     0.538 A  
HETATM   12 BR   UNL     1     -12.719  11.617  63.341  1.00  0.00     0.090 Br 
HETATM   13  C   UNL     1      -7.322  15.697  67.234  1.00  0.00    -0.255 C  
HETATM   14  C   UNL     1     -12.135  15.668  64.126  1.00  0.00    -0.002 A  
HETATM   15  C   UNL     1      -7.219  16.959  68.118  1.00  0.00    -0.171 A  
HETATM   16  C   UNL     1      -7.038  14.249  67.975  1.00  0.00    -0.140 C  
HETATM   17  O   UNL     1      -6.529  13.374  66.901  1.00  0.00    -0.359 OA 
HETATM   18  C   UNL     1      -5.807  14.268  68.946  1.00  0.00    -0.086 C  
HETATM   19  C   UNL     1      -8.258  13.434  68.548  1.00  0.00    -0.093 A  
HETATM   20  C   UNL     1      -8.176  17.324  69.078  1.00  0.00    -0.096 A  
HETATM   21  C   UNL     1      -9.501   9.945  69.316  1.00  0.00    -0.218 A  
HETATM   22  C   UNL     1      -9.505  14.076  68.704  1.00  0.00    -0.142 A  
HETATM   23  C   UNL     1      -8.138  18.571  69.710  1.00  0.00     0.942 A  
HETATM   24  H   UNL     1      -6.366  12.541  67.327  1.00  0.00     0.000 HD 
HETATM   25  C   UNL     1     -10.687  13.396  68.988  1.00  0.00    -0.160 A  
HETATM   26  C   UNL     1      -8.356   9.165  69.226  1.00  0.00    -0.123 A  
HETATM   27  C   UNL     1      -7.129  19.477  69.412  1.00  0.00    -0.329 A  
HETATM   28  C   UNL     1     -10.660  12.031  69.181  1.00  0.00    -0.067 A  
HETATM   29  C   UNL     1      -6.134  19.123  68.508  1.00  0.00    -0.242 A  
HETATM   30  C   UNL     1      -7.155   9.764  68.893  1.00  0.00    -0.067 A  
HETATM   31  C   UNL     1      -7.106  11.146  68.662  1.00  0.00    -0.090 A  
HETATM   32  C   UNL     1      -6.174  17.877  67.871  1.00  0.00    -0.163 A  
HETATM   33  C   UNL     1      -9.457  11.333  69.101  1.00  0.00     0.064 A  
HETATM   34  C   UNL     1      -8.235  12.003  68.776  1.00  0.00     0.027 A  
BRANCH  18  35
HETATM   35  C   UNL     1      -5.893  15.030  70.271  1.00  0.00    -0.147 C  
BRANCH  35  36
HETATM   36  N   UNL     1      -5.250  14.301  71.396  1.00  0.00    -0.143 NA 
HETATM   37  C   UNL     1      -5.641  12.890  71.463  1.00  0.00     0.101 C  
HETATM   38  C   UNL     1      -5.601  14.951  72.665  1.00  0.00     0.289 C  
ENDBRANCH  35  36
ENDBRANCH  18  35
ENDBRANCH   2   3
TORSDOF 3
ENDMDL
MODEL       49
REMARK 921   NORMALIZED FREE ENERGY PREDICTED BY IDOCK:   -2.90 KCAL/MOL
REMARK 922        TOTAL FREE ENERGY PREDICTED BY IDOCK:   -4.18 KCAL/MOL
REMARK 923 INTER-LIGAND FREE ENERGY PREDICTED BY IDOCK:   -3.77 KCAL/MOL
REMARK 924 INTRA-LIGAND FREE ENERGY PREDICTED BY IDOCK:   -0.42 KCAL/MOL
REMARK 927      BINDING AFFINITY PREDICTED BY RF-SCORE:    0.00 PKD
ROOT
HETATM    1  C   UNL     1     -12.159  15.187  72.029  1.00  0.00    -0.379 C  
HETATM    2  O   UNL     1     -12.678  14.603  70.843  1.00  0.00    -0.313 OA 
ENDROOT
BRANCH   2   3
HETATM    3  C   UNL     1     -12.446  13.254  70.706  1.00  0.00    -0.324 A  
HETATM    4  N   UNL     1     -12.668  12.460  71.790  1.00  0.00    -0.207 NA 
HETATM    5  C   UNL     1     -12.635  11.128  71.628  1.00  0.00    -0.281 A  
HETATM    6  C   UNL     1     -12.467  10.546  70.358  1.00  0.00    -0.392 A  
HETATM    7  C   UNL     1     -12.493   9.157  70.169  1.00  0.00     0.663 A  
HETATM    8  C   UNL     1     -12.235  11.392  69.278  1.00  0.00    -0.271 A  
HETATM    9  C   UNL     1     -12.677   8.319  71.258  1.00  0.00    -0.197 A  
HETATM   10  C   UNL     1     -12.102  12.777  69.435  1.00  0.00    -0.248 A  
HETATM   11  C   UNL     1     -12.797   8.860  72.533  1.00  0.00    -0.401 A  
HETATM   12 BR   UNL     1     -12.778   6.454  70.991  1.00  0.00     0.581 Br 
HETATM   13  C   UNL     1     -11.595  13.668  68.256  1.00  0.00    -0.374 C  
HETATM   14  C   UNL     1     -12.770  10.253  72.704  1.00  0.00     0.847 A  
HETATM   15  C   UNL     1     -10.972  15.006  68.710  1.00  0.00    -0.259 A  
HETATM   16  C   UNL     1     -10.826  12.871  67.032  1.00  0.00    -0.260 C  
HETATM   17  O   UNL     1     -11.890  12.098  66.363  1.00  0.00    -0.563 OA 
HETATM   18  C   UNL     1     -10.364  13.807  65.862  1.00  0.00    -0.315 C  
HETATM   19  C   UNL     1      -9.760  11.769  67.392  1.00  0.00    -0.186 A  
HETATM   20  C   UNL     1      -9.790  15.105  69.462  1.00  0.00    -0.191 A  
HETATM   21  C   UNL     1      -8.167   8.559  66.179  1.00  0.00    -0.115 A  
HETATM   22  C   UNL     1      -9.256  11.699  68.708  1.00  0.00    -0.042 A  
HETATM   23  C   UNL     1      -9.377  16.322  70.014  1.00  0.00     0.741 A  
HETATM   24  H   UNL     1     -11.447  11.640  65.659  1.00  0.00     0.000 HD 
HETATM   25  C   UNL     1      -8.489  10.637  69.181  1.00  0.00    -0.134 A  
HETATM   26  C   UNL     1      -8.556   8.485  64.849  1.00  0.00    -0.135 A  
HETATM   27  C   UNL     1     -10.124  17.474  69.811  1.00  0.00     0.368 A  
HETATM   28  C   UNL     1      -8.147   9.609  68.327  1.00  0.00    -0.105 A  
HETATM   29  C   UNL     1     -11.268  17.419  69.025  1.00  0.00     0.611 A  
HETATM   30  C   UNL     1      -9.365   9.477  64.326  1.00  0.00    -0.077 A  
HETATM   31  C   UNL     1      -9.772  10.546  65.138  1.00  0.00    -0.341 A  
HETATM   32  C   UNL     1     -11.687  16.202  68.476  1.00  0.00    -0.170 A  
HETATM   33  C   UNL     1      -8.558   9.634  66.995  1.00  0.00    -0.131 A  
HETATM   34  C   UNL     1      -9.376  10.696  66.495  1.00  0.00    -0.192 A  
BRANCH  18  35
HETATM   35  C   UNL     1      -9.201  14.780  66.078  1.00  0.00    -0.140 C  
BRANCH  35  36
HETATM   36  N   UNL     1      -9.446  16.113  65.466  1.00  0.00    -0.409 NA 
HETATM   37  C   UNL     1      -8.783  17.205  66.186  1.00  0.00    -0.188 C  
HETATM   38  C   UNL     1     -10.890  16.377  65.430  1.00  0.00    -0.239 C  
ENDBRANCH  35  36
ENDBRANCH  18  35
ENDBRANCH   2   3
TORSDOF 3
ENDMDL
MODEL       50
REMARK 921   NORMALIZED FREE ENERGY PREDICTED BY IDOCK:   -2.85 KCAL/MOL
REMARK 922        TOTAL FREE ENERGY PREDICTED BY IDOCK:   -4.13 KCAL/MOL
REMARK 923 INTER-LIGAND FREE ENERGY PREDICTED BY IDOCK:   -3.67 KCAL/MOL
REMARK 924 INTRA-LIGAND FREE ENERGY PREDICTED BY IDOCK:   -0.46 KCAL/MOL
REMARK 927      BINDING AFFINITY PREDICTED BY RF-SCORE:    0.00 PKD
ROOT
HETATM    1  C   UNL     1     -10.810   9.464  71.513  1.00  0.00    -0.328 C  
HETATM    2  O   UNL     1     -11.178   8.672  70.393  1.00  0.00    -0.254 OA 
ENDROOT
BRANCH   2   3
HETATM    3  C   UNL     1     -10.258   7.718  70.024  1.00  0.00    -0.210 A  
HETATM    4  N   UNL     1      -9.756   6.911  71.000  1.00  0.00    -0.174 NA 
HETATM    5  C   UNL     1      -9.010   5.856  70.641  1.00  0.00    -0.145 A  
HETATM    6  C   UNL     1      -8.813   5.521  69.289  1.00  0.00    -0.112 A  
HETATM    7  C   UNL     1      -8.086   4.386  68.903  1.00  0.00    -0.072 A  
HETATM    8  C   UNL     1      -9.335   6.375  68.323  1.00  0.00    -0.109 A  
HETATM    9  C   UNL     1      -7.529   3.566  69.872  1.00  0.00    -0.045 A  
HETATM   10  C   UNL     1      -9.980   7.572  68.659  1.00  0.00    -0.178 A  
HETATM   11  C   UNL     1      -7.663   3.895  71.216  1.00  0.00    -0.059 A  
HETATM   12 BR   UNL     1      -6.609   2.002  69.353  1.00  0.00    -0.029 Br 
HETATM   13  C   UNL     1     -10.329   8.626  67.560  1.00  0.00    -0.336 C  
HETATM   14  C   UNL     1      -8.395   5.035  71.585  1.00  0.00    -0.116 A  
HETATM   15  C   UNL     1     -10.496  10.061  68.106  1.00  0.00    -0.250 A  
HETATM   16  C   UNL     1      -9.522   8.467  66.129  1.00  0.00    -0.194 C  
HETATM   17  O   UNL     1     -10.073   7.239  65.525  1.00  0.00     0.513 OA 
HETATM   18  C   UNL     1      -9.931   9.532  65.053  1.00  0.00     0.147 C  
HETATM   19  C   UNL     1      -7.973   8.186  66.156  1.00  0.00    -0.102 A  
HETATM   20  C   UNL     1      -9.452  10.810  68.674  1.00  0.00    -0.188 A  
HETATM   21  C   UNL     1      -5.140   6.551  64.254  1.00  0.00    -0.025 A  
HETATM   22  C   UNL     1      -7.255   8.383  67.354  1.00  0.00    -0.088 A  
HETATM   23  C   UNL     1      -9.695  12.021  69.330  1.00  0.00     0.532 A  
HETATM   24  H   UNL     1      -9.609   7.147  64.702  1.00  0.00     0.000 HD 
HETATM   25  C   UNL     1      -5.942   7.956  67.542  1.00  0.00    -0.046 A  
HETATM   26  C   UNL     1      -5.688   6.304  63.003  1.00  0.00    -0.026 A  
HETATM   27  C   UNL     1     -10.986  12.524  69.415  1.00  0.00    -0.055 A  
HETATM   28  C   UNL     1      -5.267   7.349  66.504  1.00  0.00    -0.024 A  
HETATM   29  C   UNL     1     -12.033  11.835  68.814  1.00  0.00    -0.317 A  
HETATM   30  C   UNL     1      -7.005   6.652  62.762  1.00  0.00    -0.044 A  
HETATM   31  C   UNL     1      -7.763   7.255  63.775  1.00  0.00    -0.120 A  
HETATM   32  C   UNL     1     -11.792  10.620  68.163  1.00  0.00     0.082 A  
HETATM   33  C   UNL     1      -5.889   7.170  65.270  1.00  0.00    -0.037 A  
HETATM   34  C   UNL     1      -7.248   7.568  65.063  1.00  0.00    -0.066 A  
BRANCH  18  35
HETATM   35  C   UNL     1      -9.510  10.994  65.230  1.00  0.00    -0.223 C  
BRANCH  35  36
HETATM   36  N   UNL     1     -10.609  11.948  64.924  1.00  0.00    -0.275 NA 
HETATM   37  C   UNL     1     -10.568  12.447  63.547  1.00  0.00    -0.413 C  
HETATM   38  C   UNL     1     -10.535  13.089  65.844  1.00  0.00    -0.281 C  
ENDBRANCH  35  36
ENDBRANCH  18  35
ENDBRANCH   2   3
TORSDOF 3
ENDMDL
MODEL       51
REMARK 921   NORMALIZED FREE ENERGY PREDICTED BY IDOCK:   -2.64 KCAL/MOL
REMARK 922        TOTAL FREE ENERGY PREDICTED BY IDOCK:   -3.89 KCAL/MOL
REMARK 923 INTER-LIGAND FREE ENERGY PREDICTED BY IDOCK:   -3.11 KCAL/MOL
REMARK 924 INTRA-LIGAND FREE ENERGY PREDICTED BY IDOCK:   -0.78 KCAL/MOL
REMARK 927      BINDING AFFINITY PREDICTED BY RF-SCORE:    0.00 PKD
ROOT
HETATM    1  C   UNL     1     -11.489  13.011  66.566  1.00  0.00    -0.340 C  
HETATM    2  O   UNL     1     -10.482  12.347  67.316  1.00  0.00    -0.220 OA 
ENDROOT
BRANCH   2   3
HETATM    3  C   UNL     1      -9.974  11.209  66.734  1.00  0.00    -0.208 A  
HETATM    4  N   UNL     1     -10.007  11.124  65.375  1.00  0.00    -0.245 NA 
HETATM    5  C   UNL     1      -9.349  10.119  64.778  1.00  0.00    -0.268 A  
HETATM    6  C   UNL     1      -8.563   9.215  65.515  1.00  0.00    -0.192 A  
HETATM    7  C   UNL     1      -7.822   8.199  64.895  1.00  0.00    -0.128 A  
HETATM    8  C   UNL     1      -8.562   9.330  66.901  1.00  0.00    -0.132 A  
HETATM    9  C   UNL     1      -7.865   8.061  63.516  1.00  0.00    -0.146 A  
HETATM   10  C   UNL     1      -9.364  10.265  67.569  1.00  0.00    -0.164 A  
HETATM   11  C   UNL     1      -8.671   8.907  62.763  1.00  0.00    -0.118 A  
HETATM   12 BR   UNL     1      -6.815   6.735  62.679  1.00  0.00    -0.048 Br 
HETATM   13  C   UNL     1      -9.534  10.205  69.121  1.00  0.00    -0.215 C  
HETATM   14  C   UNL     1      -9.406   9.919  63.399  1.00  0.00    -0.223 A  
HETATM   15  C   UNL     1     -10.825  10.882  69.631  1.00  0.00    -0.271 A  
HETATM   16  C   UNL     1      -9.114   8.777  69.835  1.00  0.00    -0.157 C  
HETATM   17  O   UNL     1      -7.645   8.716  69.712  1.00  0.00    -0.075 OA 
HETATM   18  C   UNL     1      -9.277   8.780  71.395  1.00  0.00    -0.325 C  
HETATM   19  C   UNL     1      -9.583   7.427  69.173  1.00  0.00    -0.156 A  
HETATM   20  C   UNL     1     -12.119  10.419  69.343  1.00  0.00    -0.085 A  
HETATM   21  C   UNL     1      -8.686   3.779  68.730  1.00  0.00    -0.138 A  
HETATM   22  C   UNL     1     -10.592   7.454  68.188  1.00  0.00    -0.216 A  
HETATM   23  C   UNL     1     -13.252  11.175  69.661  1.00  0.00     1.116 A  
HETATM   24  H   UNL     1      -7.404   7.895  70.123  1.00  0.00     0.000 HD 
HETATM   25  C   UNL     1     -10.917   6.359  67.391  1.00  0.00    -0.463 A  
HETATM   26  C   UNL     1      -7.688   3.572  69.672  1.00  0.00    -0.051 A  
HETATM   27  C   UNL     1     -13.119  12.404  70.295  1.00  0.00     0.692 A  
HETATM   28  C   UNL     1     -10.269   5.157  67.587  1.00  0.00    -0.197 A  
HETATM   29  C   UNL     1     -11.855  12.862  70.644  1.00  0.00    -0.044 A  
HETATM   30  C   UNL     1      -7.275   4.630  70.462  1.00  0.00    -0.049 A  
HETATM   31  C   UNL     1      -7.873   5.889  70.308  1.00  0.00    -0.101 A  
HETATM   32  C   UNL     1     -10.720  12.110  70.321  1.00  0.00     1.585 A  
HETATM   33  C   UNL     1      -9.300   5.034  68.580  1.00  0.00    -0.173 A  
HETATM   34  C   UNL     1      -8.924   6.154  69.388  1.00  0.00    -0.128 A  
BRANCH  18  35
HETATM   35  C   UNL     1     -10.677   8.781  72.015  1.00  0.00    -0.347 C  
BRANCH  35  36
HETATM   36  N   UNL     1     -10.937   7.580  72.851  1.00  0.00    -0.356 NA 
HETATM   37  C   UNL     1      -9.719   7.027  73.453  1.00  0.00    -0.218 C  
HETATM   38  C   UNL     1     -11.574   6.542  72.032  1.00  0.00    -0.311 C  
ENDBRANCH  35  36
ENDBRANCH  18  35
ENDBRANCH   2   3
TORSDOF 3
ENDMDL
MODEL       52
REMARK 921   NORMALIZED FREE ENERGY PREDICTED BY IDOCK:   -2.47 KCAL/MOL
REMARK 922        TOTAL FREE ENERGY PREDICTED BY IDOCK:   -3.68 KCAL/MOL
REMARK 923 INTER-LIGAND FREE ENERGY PREDICTED BY IDOCK:   -3.61 KCAL/MOL
REMARK 924 INTRA-LIGAND FREE ENERGY PREDICTED BY IDOCK:   -0.07 KCAL/MOL
REMARK 927      BINDING AFFINITY PREDICTED BY RF-SCORE:    0.00 PKD
ROOT
HETATM    1  C   UNL     1     -11.094  17.917  72.164  1.00  0.00     2.674 C  
HETATM    2  O   UNL     1     -11.168  16.733  71.383  1.00  0.00    -0.005 OA 
ENDROOT
BRANCH   2   3
HETATM    3  C   UNL     1     -10.559  16.807  70.152  1.00  0.00     0.075 A  
HETATM    4  N   UNL     1     -10.291  18.044  69.651  1.00  0.00     0.230 NA 
HETATM    5  C   UNL     1      -9.530  18.141  68.550  1.00  0.00    -0.329 A  
HETATM    6  C   UNL     1      -8.937  17.008  67.965  1.00  0.00    -0.230 A  
HETATM    7  C   UNL     1      -8.090  17.104  66.852  1.00  0.00    -0.247 A  
HETATM    8  C   UNL     1      -9.240  15.761  68.502  1.00  0.00    -0.198 A  
HETATM    9  C   UNL     1      -7.829  18.346  66.293  1.00  0.00    -0.242 A  
HETATM   10  C   UNL     1     -10.159  15.608  69.549  1.00  0.00    -0.277 A  
HETATM   11  C   UNL     1      -8.439  19.481  66.817  1.00  0.00    -0.337 A  
HETATM   12 BR   UNL     1      -6.636  18.481  64.837  1.00  0.00     0.592 Br 
HETATM   13  C   UNL     1     -10.668  14.189  69.961  1.00  0.00     0.289 C  
HETATM   14  C   UNL     1      -9.283  19.366  67.932  1.00  0.00    -0.383 A  
HETATM   15  C   UNL     1     -12.031  14.205  70.686  1.00  0.00    -0.385 A  
HETATM   16  C   UNL     1     -10.434  12.991  68.850  1.00  0.00    -0.084 C  
HETATM   17  O   UNL     1      -8.975  12.773  68.839  1.00  0.00    -0.375 OA 
HETATM   18  C   UNL     1     -10.937  11.583  69.325  1.00  0.00    -0.261 C  
HETATM   19  C   UNL     1     -10.761  13.280  67.337  1.00  0.00    -0.266 A  
HETATM   20  C   UNL     1     -13.236  14.603  70.083  1.00  0.00     0.218 A  
HETATM   21  C   UNL     1      -9.832  12.354  63.789  1.00  0.00    -0.126 A  
HETATM   22  C   UNL     1     -11.527  14.416  67.000  1.00  0.00    -0.376 A  
HETATM   23  C   UNL     1     -14.402  14.787  70.833  1.00  0.00     0.099 A  
HETATM   24  H   UNL     1      -8.840  12.083  68.201  1.00  0.00     0.000 HD 
HETATM   25  C   UNL     1     -11.682  14.878  65.696  1.00  0.00    -0.194 A  
HETATM   26  C   UNL     1      -9.070  11.204  63.941  1.00  0.00    -0.069 A  
HETATM   27  C   UNL     1     -14.398  14.558  72.203  1.00  0.00    -0.594 A  
HETATM   28  C   UNL     1     -11.108  14.182  64.653  1.00  0.00    -0.378 A  
HETATM   29  C   UNL     1     -13.236  14.109  72.820  1.00  0.00    -0.604 A  
HETATM   30  C   UNL     1      -8.829  10.718  65.213  1.00  0.00    -0.200 A  
HETATM   31  C   UNL     1      -9.363  11.383  66.327  1.00  0.00    -0.228 A  
HETATM   32  C   UNL     1     -12.067  13.929  72.071  1.00  0.00     0.231 A  
HETATM   33  C   UNL     1     -10.383  13.017  64.898  1.00  0.00    -0.343 A  
HETATM   34  C   UNL     1     -10.181  12.541  66.232  1.00  0.00    -0.265 A  
BRANCH  18  35
HETATM   35  C   UNL     1     -12.440  11.309  69.436  1.00  0.00    -0.008 C  
BRANCH  35  36
HETATM   36  N   UNL     1     -12.766  10.323  70.499  1.00  0.00    -0.290 NA 
HETATM   37  C   UNL     1     -13.059  10.949  71.792  1.00  0.00    -0.459 C  
HETATM   38  C   UNL     1     -11.643   9.393  70.666  1.00  0.00    -0.269 C  
ENDBRANCH  35  36
ENDBRANCH  18  35
ENDBRANCH   2   3
TORSDOF 3
ENDMDL
MODEL       53
REMARK 921   NORMALIZED FREE ENERGY PREDICTED BY IDOCK:   -2.23 KCAL/MOL
REMARK 922        TOTAL FREE ENERGY PREDICTED BY IDOCK:   -3.40 KCAL/MOL
REMARK 923 INTER-LIGAND FREE ENERGY PREDICTED BY IDOCK:   -2.61 KCAL/MOL
REMARK 924 INTRA-LIGAND FREE ENERGY PREDICTED BY IDOCK:   -0.80 KCAL/MOL
REMARK 927      BINDING AFFINITY PREDICTED BY RF-SCORE:    0.00 PKD
ROOT
HETATM    1  C   UNL     1      -9.221   3.361  71.390  1.00  0.00    -0.123 C  
HETATM    2  O   UNL     1      -9.124   4.756  71.143  1.00  0.00    -0.130 OA 
ENDROOT
BRANCH   2   3
HETATM    3  C   UNL     1      -8.519   5.098  69.955  1.00  0.00    -0.096 A  
HETATM    4  N   UNL     1      -7.369   4.450  69.620  1.00  0.00    -0.050 NA 
HETATM    5  C   UNL     1      -6.869   4.625  68.388  1.00  0.00    -0.051 A  
HETATM    6  C   UNL     1      -7.549   5.385  67.419  1.00  0.00    -0.088 A  
HETATM    7  C   UNL     1      -7.067   5.525  66.111  1.00  0.00    -0.068 A  
HETATM    8  C   UNL     1      -8.716   6.038  67.803  1.00  0.00    -0.104 A  
HETATM    9  C   UNL     1      -5.878   4.910  65.748  1.00  0.00    -0.022 A  
HETATM   10  C   UNL     1      -9.183   6.010  69.124  1.00  0.00    -0.131 A  
HETATM   11  C   UNL     1      -5.155   4.192  66.695  1.00  0.00    -0.008 A  
HETATM   12 BR   UNL     1      -5.265   5.043  63.968  1.00  0.00    -0.010 Br 
HETATM   13  C   UNL     1     -10.345   6.949  69.580  1.00  0.00    -0.224 C  
HETATM   14  C   UNL     1      -5.654   4.062  68.000  1.00  0.00    -0.021 A  
HETATM   15  C   UNL     1     -10.364   7.222  71.100  1.00  0.00    -0.207 A  
HETATM   16  C   UNL     1     -10.659   8.234  68.592  1.00  0.00    -0.108 C  
HETATM   17  O   UNL     1     -11.243   7.635  67.376  1.00  0.00    -0.499 OA 
HETATM   18  C   UNL     1     -11.853   9.127  69.080  1.00  0.00     1.051 C  
HETATM   19  C   UNL     1      -9.454   9.077  68.031  1.00  0.00    -0.157 A  
HETATM   20  C   UNL     1      -9.358   7.924  71.783  1.00  0.00    -0.196 A  
HETATM   21  C   UNL     1      -8.326  11.219  65.124  1.00  0.00     0.305 A  
HETATM   22  C   UNL     1      -8.176   8.928  68.612  1.00  0.00    -0.116 A  
HETATM   23  C   UNL     1      -9.322   7.974  73.180  1.00  0.00    -0.346 A  
HETATM   24  H   UNL     1     -11.424   8.375  66.808  1.00  0.00     0.000 HD 
HETATM   25  C   UNL     1      -7.013   9.451  68.053  1.00  0.00    -0.079 A  
HETATM   26  C   UNL     1      -9.504  11.484  64.438  1.00  0.00    -0.100 A  
HETATM   27  C   UNL     1     -10.304   7.340  73.929  1.00  0.00    -0.281 A  
HETATM   28  C   UNL     1      -7.089  10.201  66.897  1.00  0.00    -0.091 A  
HETATM   29  C   UNL     1     -11.345   6.685  73.281  1.00  0.00     0.093 A  
HETATM   30  C   UNL     1     -10.691  10.950  64.905  1.00  0.00    -0.240 A  
HETATM   31  C   UNL     1     -10.692  10.160  66.064  1.00  0.00     0.033 A  
HETATM   32  C   UNL     1     -11.379   6.629  71.883  1.00  0.00    -0.318 A  
HETATM   33  C   UNL     1      -8.321  10.441  66.294  1.00  0.00    -0.146 A  
HETATM   34  C   UNL     1      -9.526   9.885  66.829  1.00  0.00    -0.212 A  
BRANCH  18  35
HETATM   35  C   UNL     1     -11.687  10.008  70.322  1.00  0.00    -0.251 C  
BRANCH  35  36
HETATM   36  N   UNL     1     -12.941  10.133  71.110  1.00  0.00    -0.375 NA 
HETATM   37  C   UNL     1     -12.714  10.106  72.558  1.00  0.00     0.389 C  
HETATM   38  C   UNL     1     -13.854   9.040  70.753  1.00  0.00     0.371 C  
ENDBRANCH  35  36
ENDBRANCH  18  35
ENDBRANCH   2   3
TORSDOF 3
ENDMDL
MODEL       54
REMARK 921   NORMALIZED FREE ENERGY PREDICTED BY IDOCK:   -1.69 KCAL/MOL
REMARK 922        TOTAL FREE ENERGY PREDICTED BY IDOCK:   -2.77 KCAL/MOL
REMARK 923 INTER-LIGAND FREE ENERGY PREDICTED BY IDOCK:   -2.13 KCAL/MOL
REMARK 924 INTRA-LIGAND FREE ENERGY PREDICTED BY IDOCK:   -0.64 KCAL/MOL
REMARK 927      BINDING AFFINITY PREDICTED BY RF-SCORE:    0.00 PKD
ROOT
HETATM    1  C   UNL     1     -12.095  13.055  63.726  1.00  0.00    -0.502 C  
HETATM    2  O   UNL     1     -11.138  12.849  64.754  1.00  0.00    -0.289 OA 
ENDROOT
BRANCH   2   3
HETATM    3  C   UNL     1     -10.719  13.989  65.400  1.00  0.00    -0.337 A  
HETATM    4  N   UNL     1     -11.038  15.188  64.839  1.00  0.00    -0.410 NA 
HETATM    5  C   UNL     1     -10.811  16.308  65.542  1.00  0.00    -0.245 A  
HETATM    6  C   UNL     1     -10.339  16.260  66.867  1.00  0.00    -0.299 A  
HETATM    7  C   UNL     1     -10.157  17.420  67.633  1.00  0.00    -0.327 A  
HETATM    8  C   UNL     1     -10.018  15.017  67.401  1.00  0.00    -0.226 A  
HETATM    9  C   UNL     1     -10.435  18.660  67.077  1.00  0.00    -0.407 A  
HETATM   10  C   UNL     1     -10.089  13.841  66.642  1.00  0.00    -0.277 A  
HETATM   11  C   UNL     1     -10.856  18.745  65.754  1.00  0.00    -0.142 A  
HETATM   12 BR   UNL     1     -10.253  20.215  68.130  1.00  0.00    -0.389 Br 
HETATM   13  C   UNL     1      -9.486  12.505  67.183  1.00  0.00    -0.208 C  
HETATM   14  C   UNL     1     -11.034  17.573  65.003  1.00  0.00     0.458 A  
HETATM   15  C   UNL     1      -9.129  11.491  66.075  1.00  0.00    -0.206 A  
HETATM   16  C   UNL     1      -8.410  12.653  68.427  1.00  0.00    -0.125 C  
HETATM   17  O   UNL     1      -9.228  13.079  69.578  1.00  0.00     0.449 OA 
HETATM   18  C   UNL     1      -7.859  11.282  68.950  1.00  0.00    -0.114 C  
HETATM   19  C   UNL     1      -7.302  13.768  68.346  1.00  0.00    -0.117 A  
HETATM   20  C   UNL     1      -8.128  11.701  65.113  1.00  0.00     0.995 A  
HETATM   21  C   UNL     1      -5.127  16.058  70.429  1.00  0.00    -0.167 A  
HETATM   22  C   UNL     1      -7.046  14.401  67.111  1.00  0.00     0.235 A  
HETATM   23  C   UNL     1      -7.978  10.845  64.017  1.00  0.00     0.343 A  
HETATM   24  H   UNL     1      -8.610  13.164  70.294  1.00  0.00     0.000 HD 
HETATM   25  C   UNL     1      -6.254  15.540  66.981  1.00  0.00     0.404 A  
HETATM   26  C   UNL     1      -5.251  15.545  71.713  1.00  0.00     0.026 A  
HETATM   27  C   UNL     1      -8.812   9.744  63.868  1.00  0.00    -0.259 A  
HETATM   28  C   UNL     1      -5.635  16.071  68.094  1.00  0.00    -0.115 A  
HETATM   29  C   UNL     1      -9.775   9.478  64.833  1.00  0.00    -0.065 A  
HETATM   30  C   UNL     1      -6.065  14.448  71.926  1.00  0.00     0.261 A  
HETATM   31  C   UNL     1      -6.744  13.864  70.847  1.00  0.00     0.749 A  
HETATM   32  C   UNL     1      -9.930  10.337  65.927  1.00  0.00    -0.321 A  
HETATM   33  C   UNL     1      -5.792  15.469  69.341  1.00  0.00    -0.115 A  
HETATM   34  C   UNL     1      -6.628  14.320  69.506  1.00  0.00    -0.134 A  
BRANCH  18  35
HETATM   35  C   UNL     1      -6.887  10.472  68.087  1.00  0.00    -0.072 C  
BRANCH  35  36
HETATM   36  N   UNL     1      -6.931   9.016  68.384  1.00  0.00    -0.068 NA 
HETATM   37  C   UNL     1      -5.784   8.557  69.174  1.00  0.00    -0.039 C  
HETATM   38  C   UNL     1      -6.972   8.261  67.126  1.00  0.00    -0.075 C  
ENDBRANCH  35  36
ENDBRANCH  18  35
ENDBRANCH   2   3
TORSDOF 3
ENDMDL
MODEL       55
REMARK 921   NORMALIZED FREE ENERGY PREDICTED BY IDOCK:   -1.66 KCAL/MOL
REMARK 922        TOTAL FREE ENERGY PREDICTED BY IDOCK:   -2.73 KCAL/MOL
REMARK 923 INTER-LIGAND FREE ENERGY PREDICTED BY IDOCK:   -3.05 KCAL/MOL
REMARK 924 INTRA-LIGAND FREE ENERGY PREDICTED BY IDOCK:    0.32 KCAL/MOL
REMARK 927      BINDING AFFINITY PREDICTED BY RF-SCORE:    0.00 PKD
ROOT
HETATM    1  C   UNL     1     -13.156  12.405  69.295  1.00  0.00     2.056 C  
HETATM    2  O   UNL     1     -11.976  12.437  70.085  1.00  0.00    -0.341 OA 
ENDROOT
BRANCH   2   3
HETATM    3  C   UNL     1     -10.800  12.296  69.386  1.00  0.00     0.047 A  
HETATM    4  N   UNL     1     -10.170  11.090  69.444  1.00  0.00    -0.131 NA 
HETATM    5  C   UNL     1      -9.132  10.867  68.623  1.00  0.00    -0.175 A  
HETATM    6  C   UNL     1      -8.746  11.811  67.654  1.00  0.00    -0.159 A  
HETATM    7  C   UNL     1      -7.703  11.564  66.750  1.00  0.00    -0.136 A  
HETATM    8  C   UNL     1      -9.410  13.033  67.632  1.00  0.00    -0.202 A  
HETATM    9  C   UNL     1      -7.015  10.362  66.809  1.00  0.00    -0.103 A  
HETATM   10  C   UNL     1     -10.389  13.364  68.578  1.00  0.00    -0.240 A  
HETATM   11  C   UNL     1      -7.339   9.428  67.786  1.00  0.00    -0.083 A  
HETATM   12 BR   UNL     1      -5.657  10.003  65.549  1.00  0.00    -0.077 Br 
HETATM   13  C   UNL     1     -10.933  14.824  68.685  1.00  0.00    -0.262 C  
HETATM   14  C   UNL     1      -8.386   9.691  68.683  1.00  0.00    -0.114 A  
HETATM   15  C   UNL     1     -11.536  15.163  70.066  1.00  0.00    -0.326 A  
HETATM   16  C   UNL     1     -10.006  15.991  67.976  1.00  0.00    -0.229 C  
HETATM   17  O   UNL     1     -10.143  15.746  66.527  1.00  0.00    -0.260 OA 
HETATM   18  C   UNL     1     -10.613  17.433  68.087  1.00  0.00    -0.376 C  
HETATM   19  C   UNL     1      -8.447  15.964  68.195  1.00  0.00    -0.167 A  
HETATM   20  C   UNL     1     -10.791  15.218  71.255  1.00  0.00    -0.084 A  
HETATM   21  C   UNL     1      -5.133  16.889  66.623  1.00  0.00    -0.074 A  
HETATM   22  C   UNL     1      -7.908  15.159  69.220  1.00  0.00    -0.206 A  
HETATM   23  C   UNL     1     -11.413  15.333  72.502  1.00  0.00    -0.422 A  
HETATM   24  H   UNL     1      -9.610  16.417  66.119  1.00  0.00     0.000 HD 
HETATM   25  C   UNL     1      -6.547  14.893  69.352  1.00  0.00    -0.142 A  
HETATM   26  C   UNL     1      -5.492  17.726  65.576  1.00  0.00    -0.074 A  
HETATM   27  C   UNL     1     -12.796  15.419  72.590  1.00  0.00    -0.500 A  
HETATM   28  C   UNL     1      -5.651  15.473  68.478  1.00  0.00    -0.101 A  
HETATM   29  C   UNL     1     -13.558  15.424  71.428  1.00  0.00    -0.604 A  
HETATM   30  C   UNL     1      -6.831  17.990  65.351  1.00  0.00     0.075 A  
HETATM   31  C   UNL     1      -7.803  17.421  66.185  1.00  0.00    -0.293 A  
HETATM   32  C   UNL     1     -12.937  15.303  70.179  1.00  0.00    -0.128 A  
HETATM   33  C   UNL     1      -6.101  16.327  67.473  1.00  0.00    -0.189 A  
HETATM   34  C   UNL     1      -7.496  16.587  67.295  1.00  0.00    -0.195 A  
BRANCH  18  35
HETATM   35  C   UNL     1     -10.634  18.148  69.441  1.00  0.00     0.572 C  
BRANCH  35  36
HETATM   36  N   UNL     1     -10.173  19.559  69.354  1.00  0.00    -0.170 NA 
HETATM   37  C   UNL     1      -9.866  19.977  67.982  1.00  0.00    -0.394 C  
HETATM   38  C   UNL     1      -8.974  19.735  70.182  1.00  0.00     1.157 C  
ENDBRANCH  35  36
ENDBRANCH  18  35
ENDBRANCH   2   3
TORSDOF 3
ENDMDL
MODEL       56
REMARK 921   NORMALIZED FREE ENERGY PREDICTED BY IDOCK:   -1.52 KCAL/MOL
REMARK 922        TOTAL FREE ENERGY PREDICTED BY IDOCK:   -2.56 KCAL/MOL
REMARK 923 INTER-LIGAND FREE ENERGY PREDICTED BY IDOCK:   -1.94 KCAL/MOL
REMARK 924 INTRA-LIGAND FREE ENERGY PREDICTED BY IDOCK:   -0.62 KCAL/MOL
REMARK 927      BINDING AFFINITY PREDICTED BY RF-SCORE:    0.00 PKD
ROOT
HETATM    1  C   UNL     1     -10.660  11.242  64.699  1.00  0.00    -0.327 C  
HETATM    2  O   UNL     1      -9.905  11.856  65.734  1.00  0.00    -0.230 OA 
ENDROOT
BRANCH   2   3
HETATM    3  C   UNL     1     -10.191  11.415  67.006  1.00  0.00    -0.213 A  
HETATM    4  N   UNL     1     -10.392  10.080  67.183  1.00  0.00    -0.227 NA 
HETATM    5  C   UNL     1     -10.481   9.604  68.434  1.00  0.00    -0.223 A  
HETATM    6  C   UNL     1     -10.283  10.435  69.552  1.00  0.00    -0.258 A  
HETATM    7  C   UNL     1     -10.312   9.937  70.862  1.00  0.00    -0.119 A  
HETATM    8  C   UNL     1     -10.089  11.794  69.329  1.00  0.00     0.216 A  
HETATM    9  C   UNL     1     -10.554   8.589  71.079  1.00  0.00    -0.216 A  
HETATM   10  C   UNL     1     -10.151  12.353  68.045  1.00  0.00    -0.214 A  
HETATM   11  C   UNL     1     -10.802   7.750  69.999  1.00  0.00    -0.243 A  
HETATM   12 BR   UNL     1     -10.526   7.909  72.839  1.00  0.00    -0.400 Br 
HETATM   13  C   UNL     1     -10.181  13.902  67.851  1.00  0.00    -0.241 C  
HETATM   14  C   UNL     1     -10.768   8.265  68.694  1.00  0.00    -0.068 A  
HETATM   15  C   UNL     1     -10.804  14.348  66.510  1.00  0.00    -0.310 A  
HETATM   16  C   UNL     1     -10.584  14.787  69.185  1.00  0.00    -0.248 C  
HETATM   17  O   UNL     1      -9.429  14.640  70.092  1.00  0.00    -0.110 OA 
HETATM   18  C   UNL     1     -10.571  16.336  68.942  1.00  0.00    -0.284 C  
HETATM   19  C   UNL     1     -11.795  14.317  70.074  1.00  0.00    -0.378 A  
HETATM   20  C   UNL     1     -12.152  14.151  66.168  1.00  0.00    -0.454 A  
HETATM   21  C   UNL     1     -13.177  14.331  73.596  1.00  0.00     0.846 A  
HETATM   22  C   UNL     1     -12.696  13.358  69.564  1.00  0.00     0.408 A  
HETATM   23  C   UNL     1     -12.619  14.393  64.872  1.00  0.00    -0.298 A  
HETATM   24  H   UNL     1      -9.660  15.149  70.859  1.00  0.00     0.000 HD 
HETATM   25  C   UNL     1     -13.658  12.718  70.341  1.00  0.00     1.781 A  
HETATM   26  C   UNL     1     -12.391  15.271  74.249  1.00  0.00    -0.755 A  
HETATM   27  C   UNL     1     -11.754  14.859  63.891  1.00  0.00     0.228 A  
HETATM   28  C   UNL     1     -13.793  13.054  71.672  1.00  0.00     0.136 A  
HETATM   29  C   UNL     1     -10.427  15.118  64.213  1.00  0.00     0.846 A  
HETATM   30  C   UNL     1     -11.380  15.907  73.553  1.00  0.00     0.764 A  
HETATM   31  C   UNL     1     -11.167  15.604  72.201  1.00  0.00    -0.215 A  
HETATM   32  C   UNL     1      -9.957  14.871  65.508  1.00  0.00    -0.392 A  
HETATM   33  C   UNL     1     -12.979  14.033  72.237  1.00  0.00    -0.463 A  
HETATM   34  C   UNL     1     -11.960  14.680  71.468  1.00  0.00    -0.400 A  
BRANCH  18  35
HETATM   35  C   UNL     1     -11.658  16.981  68.077  1.00  0.00     0.535 C  
BRANCH  35  36
HETATM   36  N   UNL     1     -11.282  18.338  67.600  1.00  0.00     0.088 NA 
HETATM   37  C   UNL     1     -10.745  18.337  66.236  1.00  0.00    -0.155 C  
HETATM   38  C   UNL     1     -10.280  18.915  68.504  1.00  0.00    -0.347 C  
ENDBRANCH  35  36
ENDBRANCH  18  35
ENDBRANCH   2   3
TORSDOF 3
ENDMDL
MODEL       57
REMARK 921   NORMALIZED FREE ENERGY PREDICTED BY IDOCK:   -1.21 KCAL/MOL
REMARK 922        TOTAL FREE ENERGY PREDICTED BY IDOCK:   -2.21 KCAL/MOL
REMARK 923 INTER-LIGAND FREE ENERGY PREDICTED BY IDOCK:   -1.70 KCAL/MOL
REMARK 924 INTRA-LIGAND FREE ENERGY PREDICTED BY IDOCK:   -0.50 KCAL/MOL
REMARK 927      BINDING AFFINITY PREDICTED BY RF-SCORE:    0.00 PKD
ROOT
HETATM    1  C   UNL     1      -9.932  12.233  64.016  1.00  0.00    -0.258 C  
HETATM    2  O   UNL     1      -9.341  12.379  65.299  1.00  0.00     0.028 OA 
ENDROOT
BRANCH   2   3
HETATM    3  C   UNL     1      -9.592  13.578  65.924  1.00  0.00    -0.111 A  
HETATM    4  N   UNL     1      -8.913  14.675  65.486  1.00  0.00     0.703 NA 
HETATM    5  C   UNL     1      -9.277  15.882  65.945  1.00  0.00    -0.297 A  
HETATM    6  C   UNL     1     -10.390  16.041  66.790  1.00  0.00    -0.300 A  
HETATM    7  C   UNL     1     -10.817  17.304  67.226  1.00  0.00    -0.124 A  
HETATM    8  C   UNL     1     -11.052  14.896  67.221  1.00  0.00    -0.336 A  
HETATM    9  C   UNL     1     -10.123  18.437  66.830  1.00  0.00    -0.373 A  
HETATM   10  C   UNL     1     -10.602  13.611  66.893  1.00  0.00    -0.271 A  
HETATM   11  C   UNL     1      -8.989  18.310  66.035  1.00  0.00     0.020 A  
HETATM   12 BR   UNL     1     -10.738  20.140  67.363  1.00  0.00    -0.090 Br 
HETATM   13  C   UNL     1     -11.209  12.352  67.592  1.00  0.00    -0.340 C  
HETATM   14  C   UNL     1      -8.577  17.039  65.607  1.00  0.00     0.498 A  
HETATM   15  C   UNL     1     -10.277  11.120  67.572  1.00  0.00    -0.216 A  
HETATM   16  C   UNL     1     -12.032  12.634  68.994  1.00  0.00    -0.236 C  
HETATM   17  O   UNL     1     -13.258  13.338  68.571  1.00  0.00     1.572 OA 
HETATM   18  C   UNL     1     -12.644  11.342  69.638  1.00  0.00    -0.044 C  
HETATM   19  C   UNL     1     -11.410  13.613  70.059  1.00  0.00    -0.054 A  
HETATM   20  C   UNL     1      -9.045  11.058  68.244  1.00  0.00    -0.158 A  
HETATM   21  C   UNL     1     -12.265  16.052  72.822  1.00  0.00    -0.617 A  
HETATM   22  C   UNL     1     -10.051  13.979  69.951  1.00  0.00     0.879 A  
HETATM   23  C   UNL     1      -8.152  10.003  68.035  1.00  0.00    -0.112 A  
HETATM   24  H   UNL     1     -13.732  13.501  69.378  1.00  0.00     0.000 HD 
HETATM   25  C   UNL     1      -9.469  14.999  70.700  1.00  0.00     1.262 A  
HETATM   26  C   UNL     1     -13.607  15.801  73.074  1.00  0.00    -0.638 A  
HETATM   27  C   UNL     1      -8.477   8.971  67.164  1.00  0.00    -0.113 A  
HETATM   28  C   UNL     1     -10.223  15.672  71.638  1.00  0.00     1.701 A  
HETATM   29  C   UNL     1      -9.712   8.975  66.527  1.00  0.00    -0.311 A  
HETATM   30  C   UNL     1     -14.265  14.839  72.330  1.00  0.00    -0.477 A  
HETATM   31  C   UNL     1     -13.570  14.125  71.343  1.00  0.00    -0.363 A  
HETATM   32  C   UNL     1     -10.605  10.034  66.730  1.00  0.00    -0.229 A  
HETATM   33  C   UNL     1     -11.558  15.331  71.845  1.00  0.00    -0.515 A  
HETATM   34  C   UNL     1     -12.188  14.310  71.064  1.00  0.00    -0.428 A  
BRANCH  18  35
HETATM   35  C   UNL     1     -11.723  10.303  70.284  1.00  0.00    -0.306 C  
BRANCH  35  36
HETATM   36  N   UNL     1     -12.177   9.897  71.640  1.00  0.00    -0.401 NA 
HETATM   37  C   UNL     1     -12.519   8.474  71.727  1.00  0.00    -0.342 C  
HETATM   38  C   UNL     1     -13.350  10.691  72.022  1.00  0.00    -0.304 C  
ENDBRANCH  35  36
ENDBRANCH  18  35
ENDBRANCH   2   3
TORSDOF 3
ENDMDL
MODEL       58
REMARK 921   NORMALIZED FREE ENERGY PREDICTED BY IDOCK:   -1.18 KCAL/MOL
REMARK 922        TOTAL FREE ENERGY PREDICTED BY IDOCK:   -2.17 KCAL/MOL
REMARK 923 INTER-LIGAND FREE ENERGY PREDICTED BY IDOCK:   -1.79 KCAL/MOL
REMARK 924 INTRA-LIGAND FREE ENERGY PREDICTED BY IDOCK:   -0.38 KCAL/MOL
REMARK 927      BINDING AFFINITY PREDICTED BY RF-SCORE:    0.00 PKD
ROOT
HETATM    1  C   UNL     1      -8.180  11.380  64.581  1.00  0.00     0.794 C  
HETATM    2  O   UNL     1      -7.212  10.637  65.307  1.00  0.00    -0.090 OA 
ENDROOT
BRANCH   2   3
HETATM    3  C   UNL     1      -6.981  11.075  66.591  1.00  0.00    -0.140 A  
HETATM    4  N   UNL     1      -6.156  12.146  66.755  1.00  0.00    -0.200 NA 
HETATM    5  C   UNL     1      -6.068  12.709  67.970  1.00  0.00    -0.091 A  
HETATM    6  C   UNL     1      -6.869  12.274  69.041  1.00  0.00    -0.094 A  
HETATM    7  C   UNL     1      -6.830  12.895  70.297  1.00  0.00     0.886 A  
HETATM    8  C   UNL     1      -7.693  11.173  68.835  1.00  0.00    -0.137 A  
HETATM    9  C   UNL     1      -5.972  13.963  70.509  1.00  0.00    -0.172 A  
HETATM   10  C   UNL     1      -7.691  10.460  67.628  1.00  0.00    -0.093 A  
HETATM   11  C   UNL     1      -5.131  14.386  69.486  1.00  0.00    -0.090 A  
HETATM   12 BR   UNL     1      -5.969  14.839  72.180  1.00  0.00     0.598 Br 
HETATM   13  C   UNL     1      -8.431   9.089  67.512  1.00  0.00    -0.116 C  
HETATM   14  C   UNL     1      -5.184  13.754  68.234  1.00  0.00    -0.109 A  
HETATM   15  C   UNL     1      -7.893   8.186  66.381  1.00  0.00    -0.093 A  
HETATM   16  C   UNL     1      -8.799   8.346  68.940  1.00  0.00    -0.143 C  
HETATM   17  O   UNL     1      -9.857   9.186  69.535  1.00  0.00    -0.168 OA 
HETATM   18  C   UNL     1      -9.566   6.990  68.767  1.00  0.00    -0.139 C  
HETATM   19  C   UNL     1      -7.708   8.293  70.074  1.00  0.00    -0.095 A  
HETATM   20  C   UNL     1      -6.601   7.635  66.365  1.00  0.00    -0.050 A  
HETATM   21  C   UNL     1      -7.213   8.161  73.822  1.00  0.00    -0.186 A  
HETATM   22  C   UNL     1      -6.365   8.587  69.756  1.00  0.00    -0.035 A  
HETATM   23  C   UNL     1      -6.095   6.991  65.231  1.00  0.00    -0.037 A  
HETATM   24  H   UNL     1     -10.068   8.760  70.356  1.00  0.00     0.000 HD 
HETATM   25  C   UNL     1      -5.375   8.784  70.715  1.00  0.00    -0.027 A  
HETATM   26  C   UNL     1      -8.477   7.849  74.306  1.00  0.00    -0.278 A  
HETATM   27  C   UNL     1      -6.878   6.863  64.091  1.00  0.00    -0.046 A  
HETATM   28  C   UNL     1      -5.681   8.642  72.052  1.00  0.00    -0.055 A  
HETATM   29  C   UNL     1      -8.180   7.348  64.095  1.00  0.00     0.035 A  
HETATM   30  C   UNL     1      -9.522   7.694  73.415  1.00  0.00    -0.330 A  
HETATM   31  C   UNL     1      -9.293   7.842  72.039  1.00  0.00    -0.199 A  
HETATM   32  C   UNL     1      -8.685   7.998  65.227  1.00  0.00    -0.062 A  
HETATM   33  C   UNL     1      -6.973   8.296  72.445  1.00  0.00    -0.104 A  
HETATM   34  C   UNL     1      -8.016   8.123  71.481  1.00  0.00    -0.135 A  
BRANCH  18  35
HETATM   35  C   UNL     1      -8.831   5.764  68.217  1.00  0.00    -0.109 C  
BRANCH  35  36
HETATM   36  N   UNL     1      -9.643   4.522  68.298  1.00  0.00    -0.148 NA 
HETATM   37  C   UNL     1      -9.153   3.583  69.312  1.00  0.00    -0.135 C  
HETATM   38  C   UNL     1      -9.645   3.851  66.993  1.00  0.00    -0.196 C  
ENDBRANCH  35  36
ENDBRANCH  18  35
ENDBRANCH   2   3
TORSDOF 3
ENDMDL
MODEL       59
REMARK 921   NORMALIZED FREE ENERGY PREDICTED BY IDOCK:   -1.10 KCAL/MOL
REMARK 922        TOTAL FREE ENERGY PREDICTED BY IDOCK:   -2.08 KCAL/MOL
REMARK 923 INTER-LIGAND FREE ENERGY PREDICTED BY IDOCK:   -3.53 KCAL/MOL
REMARK 924 INTRA-LIGAND FREE ENERGY PREDICTED BY IDOCK:    1.45 KCAL/MOL
REMARK 927      BINDING AFFINITY PREDICTED BY RF-SCORE:    0.00 PKD
ROOT
HETATM    1  C   UNL     1      -5.289   8.375  66.157  1.00  0.00    -0.034 C  
HETATM    2  O   UNL     1      -6.111   7.246  65.899  1.00  0.00    -0.036 OA 
ENDROOT
BRANCH   2   3
HETATM    3  C   UNL     1      -6.227   6.357  66.942  1.00  0.00    -0.040 A  
HETATM    4  N   UNL     1      -5.747   5.096  66.756  1.00  0.00    -0.017 NA 
HETATM    5  C   UNL     1      -5.674   4.274  67.814  1.00  0.00    -0.022 A  
HETATM    6  C   UNL     1      -5.996   4.714  69.111  1.00  0.00    -0.022 A  
HETATM    7  C   UNL     1      -5.864   3.883  70.232  1.00  0.00    -0.017 A  
HETATM    8  C   UNL     1      -6.490   6.006  69.257  1.00  0.00    -0.043 A  
HETATM    9  C   UNL     1      -5.415   2.581  70.071  1.00  0.00    -0.016 A  
HETATM   10  C   UNL     1      -6.733   6.838  68.156  1.00  0.00    -0.068 A  
HETATM   11  C   UNL     1      -5.135   2.099  68.798  1.00  0.00    -0.011 A  
HETATM   12 BR   UNL     1      -5.175   1.485  71.589  1.00  0.00     0.000 Br 
HETATM   13  C   UNL     1      -7.519   8.177  68.326  1.00  0.00    -0.097 C  
HETATM   14  C   UNL     1      -5.271   2.945  67.687  1.00  0.00    -0.012 A  
HETATM   15  C   UNL     1      -8.185   8.677  67.026  1.00  0.00    -0.106 A  
HETATM   16  C   UNL     1      -8.401   8.322  69.714  1.00  0.00    -0.123 C  
HETATM   17  O   UNL     1      -7.393   8.449  70.785  1.00  0.00    -0.052 OA 
HETATM   18  C   UNL     1      -9.146   9.695  69.848  1.00  0.00    -0.250 C  
HETATM   19  C   UNL     1      -9.275   7.102  70.192  1.00  0.00    -0.155 A  
HETATM   20  C   UNL     1      -9.227   8.001  66.370  1.00  0.00    -0.245 A  
HETATM   21  C   UNL     1     -10.722   5.401  73.245  1.00  0.00    -0.320 A  
HETATM   22  C   UNL     1      -9.539   6.047  69.293  1.00  0.00    -0.162 A  
HETATM   23  C   UNL     1      -9.660   8.387  65.098  1.00  0.00     0.760 A  
HETATM   24  H   UNL     1      -7.901   8.532  71.583  1.00  0.00     0.000 HD 
HETATM   25  C   UNL     1     -10.105   4.834  69.678  1.00  0.00    -0.275 A  
HETATM   26  C   UNL     1     -10.558   6.344  74.251  1.00  0.00    -0.063 A  
HETATM   27  C   UNL     1      -9.077   9.473  64.458  1.00  0.00    -0.250 A  
HETATM   28  C   UNL     1     -10.483   4.644  70.991  1.00  0.00    -0.049 A  
HETATM   29  C   UNL     1      -8.083  10.197  65.105  1.00  0.00    -0.148 A  
HETATM   30  C   UNL     1      -9.953   7.551  73.953  1.00  0.00    -0.176 A  
HETATM   31  C   UNL     1      -9.523   7.811  72.644  1.00  0.00    -0.251 A  
HETATM   32  C   UNL     1      -7.644   9.808  66.376  1.00  0.00    -0.099 A  
HETATM   33  C   UNL     1     -10.308   5.660  71.928  1.00  0.00    -0.266 A  
HETATM   34  C   UNL     1      -9.696   6.902  71.565  1.00  0.00    -0.164 A  
BRANCH  18  35
HETATM   35  C   UNL     1     -10.346  10.002  68.947  1.00  0.00    -0.202 C  
BRANCH  35  36
HETATM   36  N   UNL     1     -10.074  11.101  67.983  1.00  0.00    -0.170 NA 
HETATM   37  C   UNL     1      -9.719  12.363  68.638  1.00  0.00    -0.055 C  
HETATM   38  C   UNL     1     -11.258  11.319  67.144  1.00  0.00    -0.275 C  
ENDBRANCH  35  36
ENDBRANCH  18  35
ENDBRANCH   2   3
TORSDOF 3
ENDMDL
MODEL       60
REMARK 921   NORMALIZED FREE ENERGY PREDICTED BY IDOCK:   -0.86 KCAL/MOL
REMARK 922        TOTAL FREE ENERGY PREDICTED BY IDOCK:   -1.80 KCAL/MOL
REMARK 923 INTER-LIGAND FREE ENERGY PREDICTED BY IDOCK:   -1.54 KCAL/MOL
REMARK 924 INTRA-LIGAND FREE ENERGY PREDICTED BY IDOCK:   -0.25 KCAL/MOL
REMARK 927      BINDING AFFINITY PREDICTED BY RF-SCORE:    0.00 PKD
ROOT
HETATM    1  C   UNL     1      -8.745   7.250  72.481  1.00  0.00    -0.122 C  
HETATM    2  O   UNL     1      -7.513   7.078  71.796  1.00  0.00    -0.085 OA 
ENDROOT
BRANCH   2   3
HETATM    3  C   UNL     1      -7.257   8.006  70.813  1.00  0.00    -0.053 A  
HETATM    4  N   UNL     1      -7.334   9.323  71.150  1.00  0.00    -0.283 NA 
HETATM    5  C   UNL     1      -6.904  10.238  70.268  1.00  0.00    -0.141 A  
HETATM    6  C   UNL     1      -6.300   9.862  69.054  1.00  0.00    -0.040 A  
HETATM    7  C   UNL     1      -5.792  10.808  68.153  1.00  0.00    -0.049 A  
HETATM    8  C   UNL     1      -6.248   8.507  68.743  1.00  0.00    -0.045 A  
HETATM    9  C   UNL     1      -5.890  12.159  68.448  1.00  0.00    -0.053 A  
HETATM   10  C   UNL     1      -6.831   7.534  69.565  1.00  0.00    -0.044 A  
HETATM   11  C   UNL     1      -6.525  12.567  69.616  1.00  0.00    -0.057 A  
HETATM   12 BR   UNL     1      -5.145  13.428  67.265  1.00  0.00     0.520 Br 
HETATM   13  C   UNL     1      -6.978   6.059  69.072  1.00  0.00    -0.068 C  
HETATM   14  C   UNL     1      -7.028  11.606  70.507  1.00  0.00     1.499 A  
HETATM   15  C   UNL     1      -8.096   5.272  69.791  1.00  0.00    -0.087 A  
HETATM   16  C   UNL     1      -6.840   5.828  67.443  1.00  0.00    -0.064 C  
HETATM   17  O   UNL     1      -5.416   6.081  67.151  1.00  0.00    -0.008 OA 
HETATM   18  C   UNL     1      -6.967   4.327  67.006  1.00  0.00    -0.063 C  
HETATM   19  C   UNL     1      -7.584   6.815  66.468  1.00  0.00    -0.089 A  
HETATM   20  C   UNL     1      -9.462   5.578  69.686  1.00  0.00    -0.183 A  
HETATM   21  C   UNL     1      -7.448   8.373  63.023  1.00  0.00    -0.109 A  
HETATM   22  C   UNL     1      -8.587   7.666  66.978  1.00  0.00    -0.122 A  
HETATM   23  C   UNL     1     -10.413   4.964  70.507  1.00  0.00    -0.170 A  
HETATM   24  H   UNL     1      -5.336   5.948  66.214  1.00  0.00     0.000 HD 
HETATM   25  C   UNL     1      -9.142   8.719  66.254  1.00  0.00    -0.240 A  
HETATM   26  C   UNL     1      -6.493   7.614  62.360  1.00  0.00    -0.072 A  
HETATM   27  C   UNL     1     -10.023   4.012  71.440  1.00  0.00    -0.210 A  
HETATM   28  C   UNL     1      -8.745   8.934  64.951  1.00  0.00    -0.184 A  
HETATM   29  C   UNL     1      -8.686   3.646  71.529  1.00  0.00    -0.129 A  
HETATM   30  C   UNL     1      -5.860   6.587  63.035  1.00  0.00    -0.030 A  
HETATM   31  C   UNL     1      -6.195   6.318  64.370  1.00  0.00    -0.030 A  
HETATM   32  C   UNL     1      -7.732   4.264  70.712  1.00  0.00    -0.056 A  
HETATM   33  C   UNL     1      -7.800   8.101  64.356  1.00  0.00    -0.136 A  
HETATM   34  C   UNL     1      -7.190   7.035  65.090  1.00  0.00    -0.074 A  
BRANCH  18  35
HETATM   35  C   UNL     1      -8.325   3.624  67.080  1.00  0.00    -0.099 C  
BRANCH  35  36
HETATM   36  N   UNL     1      -8.749   3.054  65.775  1.00  0.00    -0.124 NA 
HETATM   37  C   UNL     1      -7.625   2.565  64.971  1.00  0.00    -0.072 C  
HETATM   38  C   UNL     1      -9.472   4.075  65.006  1.00  0.00    -0.172 C  
ENDBRANCH  35  36
ENDBRANCH  18  35
ENDBRANCH   2   3
TORSDOF 3
ENDMDL
MODEL       61
REMARK 921   NORMALIZED FREE ENERGY PREDICTED BY IDOCK:   -0.81 KCAL/MOL
REMARK 922        TOTAL FREE ENERGY PREDICTED BY IDOCK:   -1.73 KCAL/MOL
REMARK 923 INTER-LIGAND FREE ENERGY PREDICTED BY IDOCK:   -1.11 KCAL/MOL
REMARK 924 INTRA-LIGAND FREE ENERGY PREDICTED BY IDOCK:   -0.62 KCAL/MOL
REMARK 927      BINDING AFFINITY PREDICTED BY RF-SCORE:    0.00 PKD
ROOT
HETATM    1  C   UNL     1      -8.546  17.575  67.099  1.00  0.00    -0.225 C  
HETATM    2  O   UNL     1      -7.995  16.267  67.053  1.00  0.00    -0.171 OA 
ENDROOT
BRANCH   2   3
HETATM    3  C   UNL     1      -8.840  15.294  66.570  1.00  0.00    -0.300 A  
HETATM    4  N   UNL     1     -10.068  15.684  66.129  1.00  0.00    -0.291 NA 
HETATM    5  C   UNL     1     -10.831  14.791  65.481  1.00  0.00    -0.351 A  
HETATM    6  C   UNL     1     -10.355  13.504  65.173  1.00  0.00    -0.368 A  
HETATM    7  C   UNL     1     -11.119  12.584  64.442  1.00  0.00    -0.383 A  
HETATM    8  C   UNL     1      -9.098  13.141  65.648  1.00  0.00     0.543 A  
HETATM    9  C   UNL     1     -12.390  12.936  64.013  1.00  0.00    -0.380 A  
HETATM   10  C   UNL     1      -8.341  13.990  66.466  1.00  0.00     0.407 A  
HETATM   11  C   UNL     1     -12.909  14.182  64.342  1.00  0.00     0.170 A  
HETATM   12 BR   UNL     1     -13.391  11.721  62.972  1.00  0.00     1.562 Br 
HETATM   13  C   UNL     1      -7.058  13.465  67.187  1.00  0.00     0.184 C  
HETATM   14  C   UNL     1     -12.130  15.091  65.074  1.00  0.00    -0.134 A  
HETATM   15  C   UNL     1      -6.673  14.280  68.442  1.00  0.00    -0.104 A  
HETATM   16  C   UNL     1      -6.915  11.824  67.297  1.00  0.00    -0.138 C  
HETATM   17  O   UNL     1      -6.661  11.379  65.914  1.00  0.00    -0.368 OA 
HETATM   18  C   UNL     1      -5.597  11.352  68.004  1.00  0.00    -0.043 C  
HETATM   19  C   UNL     1      -8.173  10.976  67.718  1.00  0.00    -0.117 A  
HETATM   20  C   UNL     1      -7.456  14.344  69.606  1.00  0.00     0.104 A  
HETATM   21  C   UNL     1      -9.832   7.596  67.349  1.00  0.00    -0.226 A  
HETATM   22  C   UNL     1      -9.287  11.629  68.289  1.00  0.00    -0.191 A  
HETATM   23  C   UNL     1      -7.165  15.247  70.633  1.00  0.00     0.840 A  
HETATM   24  H   UNL     1      -6.579  10.435  65.977  1.00  0.00     0.000 HD 
HETATM   25  C   UNL     1     -10.519  11.011  68.487  1.00  0.00    -0.210 A  
HETATM   26  C   UNL     1      -8.832   6.802  66.804  1.00  0.00    -0.127 A  
HETATM   27  C   UNL     1      -6.069  16.094  70.531  1.00  0.00     0.190 A  
HETATM   28  C   UNL     1     -10.675   9.679  68.164  1.00  0.00    -0.266 A  
HETATM   29  C   UNL     1      -5.242  16.016  69.417  1.00  0.00    -0.112 A  
HETATM   30  C   UNL     1      -7.599   7.362  66.529  1.00  0.00    -0.092 A  
HETATM   31  C   UNL     1      -7.369   8.716  66.812  1.00  0.00    -0.079 A  
HETATM   32  C   UNL     1      -5.536  15.117  68.385  1.00  0.00    -0.106 A  
HETATM   33  C   UNL     1      -9.605   8.950  67.649  1.00  0.00    -0.181 A  
HETATM   34  C   UNL     1      -8.339   9.571  67.403  1.00  0.00    -0.125 A  
BRANCH  18  35
HETATM   35  C   UNL     1      -5.425  11.557  69.511  1.00  0.00    -0.056 C  
BRANCH  35  36
HETATM   36  N   UNL     1      -5.364  10.276  70.262  1.00  0.00    -0.044 NA 
HETATM   37  C   UNL     1      -5.160   9.112  69.394  1.00  0.00    -0.035 C  
HETATM   38  C   UNL     1      -6.608  10.092  71.018  1.00  0.00     0.114 C  
ENDBRANCH  35  36
ENDBRANCH  18  35
ENDBRANCH   2   3
TORSDOF 3
ENDMDL
MODEL       62
REMARK 921   NORMALIZED FREE ENERGY PREDICTED BY IDOCK:   -0.37 KCAL/MOL
REMARK 922        TOTAL FREE ENERGY PREDICTED BY IDOCK:   -1.21 KCAL/MOL
REMARK 923 INTER-LIGAND FREE ENERGY PREDICTED BY IDOCK:   -2.22 KCAL/MOL
REMARK 924 INTRA-LIGAND FREE ENERGY PREDICTED BY IDOCK:    1.01 KCAL/MOL
REMARK 927      BINDING AFFINITY PREDICTED BY RF-SCORE:    0.00 PKD
ROOT
HETATM    1  C   UNL     1     -11.627  16.893  72.180  1.00  0.00     0.410 C  
HETATM    2  O   UNL     1     -11.779  16.555  70.809  1.00  0.00    -0.174 OA 
ENDROOT
BRANCH   2   3
HETATM    3  C   UNL     1     -11.883  15.208  70.548  1.00  0.00    -0.318 A  
HETATM    4  N   UNL     1     -12.180  14.382  71.589  1.00  0.00    -0.338 NA 
HETATM    5  C   UNL     1     -12.475  13.100  71.329  1.00  0.00    -0.232 A  
HETATM    6  C   UNL     1     -12.571  12.621  70.009  1.00  0.00     0.093 A  
HETATM    7  C   UNL     1     -12.940  11.299  69.723  1.00  0.00     0.410 A  
HETATM    8  C   UNL     1     -12.254  13.494  68.974  1.00  0.00    -0.224 A  
HETATM    9  C   UNL     1     -13.209  10.422  70.763  1.00  0.00    -0.196 A  
HETATM   10  C   UNL     1     -11.785  14.792  69.214  1.00  0.00    -0.347 A  
HETATM   11  C   UNL     1     -13.076  10.849  72.079  1.00  0.00    -0.462 A  
HETATM   12 BR   UNL     1     -13.770   8.662  70.375  1.00  0.00     1.601 Br 
HETATM   13  C   UNL     1     -11.200  15.657  68.052  1.00  0.00    -0.339 C  
HETATM   14  C   UNL     1     -12.707  12.176  72.347  1.00  0.00     0.607 A  
HETATM   15  C   UNL     1     -10.240  16.769  68.526  1.00  0.00    -0.298 A  
HETATM   16  C   UNL     1     -10.760  14.830  66.692  1.00  0.00    -0.309 C  
HETATM   17  O   UNL     1     -12.035  14.386  66.097  1.00  0.00    -0.389 OA 
HETATM   18  C   UNL     1     -10.207  15.748  65.547  1.00  0.00    -0.407 C  
HETATM   19  C   UNL     1      -9.952  13.487  66.844  1.00  0.00    -0.256 A  
HETATM   20  C   UNL     1      -9.000  16.526  69.140  1.00  0.00    -0.171 A  
HETATM   21  C   UNL     1      -9.280  10.135  65.225  1.00  0.00    -0.257 A  
HETATM   22  C   UNL     1      -9.354  13.177  68.084  1.00  0.00    -0.217 A  
HETATM   23  C   UNL     1      -8.262  17.558  69.728  1.00  0.00     1.266 A  
HETATM   24  H   UNL     1     -11.782  13.910  65.315  1.00  0.00     0.000 HD 
HETATM   25  C   UNL     1      -8.816  11.929  68.386  1.00  0.00    -0.159 A  
HETATM   26  C   UNL     1      -9.803  10.280  63.947  1.00  0.00    -0.251 A  
HETATM   27  C   UNL     1      -8.735  18.864  69.697  1.00  0.00     0.629 A  
HETATM   28  C   UNL     1      -8.808  10.939  67.426  1.00  0.00    -0.133 A  
HETATM   29  C   UNL     1      -9.930  19.145  69.048  1.00  0.00    -0.422 A  
HETATM   30  C   UNL     1     -10.403  11.475  63.595  1.00  0.00    -0.467 A  
HETATM   31  C   UNL     1     -10.468  12.523  64.525  1.00  0.00    -0.366 A  
HETATM   32  C   UNL     1     -10.674  18.112  68.465  1.00  0.00    -0.004 A  
HETATM   33  C   UNL     1      -9.328  11.185  66.157  1.00  0.00    -0.227 A  
HETATM   34  C   UNL     1      -9.919  12.448  65.834  1.00  0.00    -0.271 A  
BRANCH  18  35
HETATM   35  C   UNL     1      -8.833  16.409  65.697  1.00  0.00     0.310 C  
BRANCH  35  36
HETATM   36  N   UNL     1      -8.873  17.876  65.462  1.00  0.00     0.142 NA 
HETATM   37  C   UNL     1      -7.800  18.596  66.155  1.00  0.00    -0.218 C  
HETATM   38  C   UNL     1     -10.166  18.408  65.909  1.00  0.00    -0.233 C  
ENDBRANCH  35  36
ENDBRANCH  18  35
ENDBRANCH   2   3
TORSDOF 3
ENDMDL
MODEL       63
REMARK 921   NORMALIZED FREE ENERGY PREDICTED BY IDOCK:   -0.28 KCAL/MOL
REMARK 922        TOTAL FREE ENERGY PREDICTED BY IDOCK:   -1.10 KCAL/MOL
REMARK 923 INTER-LIGAND FREE ENERGY PREDICTED BY IDOCK:   -0.99 KCAL/MOL
REMARK 924 INTRA-LIGAND FREE ENERGY PREDICTED BY IDOCK:   -0.11 KCAL/MOL
REMARK 927      BINDING AFFINITY PREDICTED BY RF-SCORE:    0.00 PKD
ROOT
HETATM    1  C   UNL     1      -5.196  14.799  69.246  1.00  0.00    -0.089 C  
HETATM    2  O   UNL     1      -6.557  14.522  69.545  1.00  0.00    -0.124 OA 
ENDROOT
BRANCH   2   3
HETATM    3  C   UNL     1      -7.058  13.375  68.976  1.00  0.00    -0.053 A  
HETATM    4  N   UNL     1      -6.311  12.241  69.073  1.00  0.00    -0.081 NA 
HETATM    5  C   UNL     1      -6.859  11.075  68.699  1.00  0.00    -0.064 A  
HETATM    6  C   UNL     1      -8.205  10.992  68.298  1.00  0.00    -0.130 A  
HETATM    7  C   UNL     1      -8.806   9.770  67.964  1.00  0.00    -0.119 A  
HETATM    8  C   UNL     1      -8.933  12.173  68.204  1.00  0.00    -0.195 A  
HETATM    9  C   UNL     1      -8.061   8.602  68.015  1.00  0.00    -0.111 A  
HETATM   10  C   UNL     1      -8.347  13.426  68.430  1.00  0.00    -0.137 A  
HETATM   11  C   UNL     1      -6.716   8.655  68.359  1.00  0.00    -0.064 A  
HETATM   12 BR   UNL     1      -8.890   6.950  67.630  1.00  0.00    -0.117 Br 
HETATM   13  C   UNL     1      -9.113  14.740  68.075  1.00  0.00    -0.179 C  
HETATM   14  C   UNL     1      -6.130   9.887  68.692  1.00  0.00    -0.041 A  
HETATM   15  C   UNL     1      -8.189  15.954  67.839  1.00  0.00    -0.151 A  
HETATM   16  C   UNL     1     -10.391  14.571  67.043  1.00  0.00    -0.263 C  
HETATM   17  O   UNL     1     -11.413  13.854  67.830  1.00  0.00    -0.289 OA 
HETATM   18  C   UNL     1     -11.141  15.915  66.742  1.00  0.00    -0.064 C  
HETATM   19  C   UNL     1     -10.224  13.664  65.767  1.00  0.00    -0.317 A  
HETATM   20  C   UNL     1      -7.274  16.049  66.777  1.00  0.00    -0.142 A  
HETATM   21  C   UNL     1     -12.096  11.443  63.342  1.00  0.00     0.103 A  
HETATM   22  C   UNL     1      -8.931  13.273  65.360  1.00  0.00     1.144 A  
HETATM   23  C   UNL     1      -6.325  17.074  66.720  1.00  0.00    -0.246 A  
HETATM   24  H   UNL     1     -12.148  13.757  67.236  1.00  0.00     0.000 HD 
HETATM   25  C   UNL     1      -8.691  12.302  64.391  1.00  0.00     1.623 A  
HETATM   26  C   UNL     1     -13.429  11.730  63.601  1.00  0.00     0.601 A  
HETATM   27  C   UNL     1      -6.281  18.044  67.713  1.00  0.00    -0.176 A  
HETATM   28  C   UNL     1      -9.754  11.709  63.742  1.00  0.00    -0.276 A  
HETATM   29  C   UNL     1      -7.209  18.010  68.747  1.00  0.00    -0.283 A  
HETATM   30  C   UNL     1     -13.743  12.644  64.590  1.00  0.00     1.833 A  
HETATM   31  C   UNL     1     -12.717  13.275  65.308  1.00  0.00    -0.474 A  
HETATM   32  C   UNL     1      -8.156  16.981  68.809  1.00  0.00    -0.250 A  
HETATM   33  C   UNL     1     -11.062  12.082  64.046  1.00  0.00    -0.452 A  
HETATM   34  C   UNL     1     -11.335  13.052  65.063  1.00  0.00    -0.325 A  
BRANCH  18  35
HETATM   35  C   UNL     1     -10.470  16.985  65.877  1.00  0.00    -0.274 C  
BRANCH  35  36
HETATM   36  N   UNL     1     -10.172  18.230  66.632  1.00  0.00    -0.365 NA 
HETATM   37  C   UNL     1     -11.030  18.406  67.808  1.00  0.00    -0.094 C  
HETATM   38  C   UNL     1     -10.336  19.391  65.748  1.00  0.00    -0.349 C  
ENDBRANCH  35  36
ENDBRANCH  18  35
ENDBRANCH   2   3
TORSDOF 3
ENDMDL
MODEL       64
REMARK 921   NORMALIZED FREE ENERGY PREDICTED BY IDOCK:    0.37 KCAL/MOL
REMARK 922        TOTAL FREE ENERGY PREDICTED BY IDOCK:   -0.34 KCAL/MOL
REMARK 923 INTER-LIGAND FREE ENERGY PREDICTED BY IDOCK:   -2.10 KCAL/MOL
REMARK 924 INTRA-LIGAND FREE ENERGY PREDICTED BY IDOCK:    1.75 KCAL/MOL
REMARK 927      BINDING AFFINITY PREDICTED BY RF-SCORE:    0.00 PKD
ROOT
HETATM    1  C   UNL     1      -5.129  16.486  68.724  1.00  0.00    -0.120 C  
HETATM    2  O   UNL     1      -5.527  15.656  67.643  1.00  0.00    -0.185 OA 
ENDROOT
BRANCH   2   3
HETATM    3  C   UNL     1      -6.046  14.434  68.005  1.00  0.00    -0.150 A  
HETATM    4  N   UNL     1      -5.367  13.318  67.620  1.00  0.00    -0.282 NA 
HETATM    5  C   UNL     1      -5.744  12.132  68.120  1.00  0.00    -0.053 A  
HETATM    6  C   UNL     1      -6.757  12.032  69.091  1.00  0.00    -0.101 A  
HETATM    7  C   UNL     1      -7.117  10.805  69.665  1.00  0.00    -0.136 A  
HETATM    8  C   UNL     1      -7.432  13.193  69.451  1.00  0.00     0.423 A  
HETATM    9  C   UNL     1      -6.471   9.645  69.266  1.00  0.00    -0.044 A  
HETATM   10  C   UNL     1      -7.176  14.424  68.832  1.00  0.00    -0.125 A  
HETATM   11  C   UNL     1      -5.499   9.702  68.274  1.00  0.00    -0.036 A  
HETATM   12 BR   UNL     1      -6.910   8.004  70.089  1.00  0.00    -0.041 Br 
HETATM   13  C   UNL     1      -8.115  15.649  69.074  1.00  0.00    -0.222 C  
HETATM   14  C   UNL     1      -5.151  10.939  67.710  1.00  0.00    -0.039 A  
HETATM   15  C   UNL     1      -8.063  16.704  67.948  1.00  0.00    -0.177 A  
HETATM   16  C   UNL     1      -9.604  15.302  69.696  1.00  0.00    -0.180 C  
HETATM   17  O   UNL     1      -9.338  14.873  71.083  1.00  0.00     1.198 OA 
HETATM   18  C   UNL     1     -10.494  16.568  69.946  1.00  0.00    -0.166 C  
HETATM   19  C   UNL     1     -10.415  14.091  69.100  1.00  0.00    -0.103 A  
HETATM   20  C   UNL     1      -8.498  16.469  66.633  1.00  0.00    -0.299 A  
HETATM   21  C   UNL     1     -12.991  11.446  69.926  1.00  0.00     0.372 A  
HETATM   22  C   UNL     1     -10.016  13.531  67.868  1.00  0.00    -0.245 A  
HETATM   23  C   UNL     1      -8.248  17.386  65.607  1.00  0.00     0.502 A  
HETATM   24  H   UNL     1     -10.195  14.673  71.440  1.00  0.00     0.000 HD 
HETATM   25  C   UNL     1     -10.521  12.333  67.369  1.00  0.00    -0.228 A  
HETATM   26  C   UNL     1     -13.515  11.870  71.140  1.00  0.00     0.497 A  
HETATM   27  C   UNL     1      -7.577  18.572  65.875  1.00  0.00    -0.171 A  
HETATM   28  C   UNL     1     -11.499  11.661  68.071  1.00  0.00    -0.385 A  
HETATM   29  C   UNL     1      -7.185  18.859  67.176  1.00  0.00    -0.221 A  
HETATM   30  C   UNL     1     -13.021  13.024  71.722  1.00  0.00    -0.420 A  
HETATM   31  C   UNL     1     -12.010  13.752  71.079  1.00  0.00    -0.206 A  
HETATM   32  C   UNL     1      -7.428  17.939  68.203  1.00  0.00    -0.250 A  
HETATM   33  C   UNL     1     -11.988  12.179  69.268  1.00  0.00    -0.318 A  
HETATM   34  C   UNL     1     -11.461  13.390  69.819  1.00  0.00    -0.236 A  
BRANCH  18  35
HETATM   35  C   UNL     1     -11.073  17.340  68.757  1.00  0.00     0.103 C  
BRANCH  35  36
HETATM   36  N   UNL     1     -10.380  18.634  68.520  1.00  0.00    -0.330 NA 
HETATM   37  C   UNL     1     -10.446  19.538  69.672  1.00  0.00     0.613 C  
HETATM   38  C   UNL     1     -10.977  19.303  67.358  1.00  0.00    -0.337 C  
ENDBRANCH  35  36
ENDBRANCH  18  35
ENDBRANCH   2   3
TORSDOF 3
ENDMDL
MODEL       65
REMARK 921   NORMALIZED FREE ENERGY PREDICTED BY IDOCK:    0.89 KCAL/MOL
REMARK 922        TOTAL FREE ENERGY PREDICTED BY IDOCK:    0.26 KCAL/MOL
REMARK 923 INTER-LIGAND FREE ENERGY PREDICTED BY IDOCK:    0.92 KCAL/MOL
REMARK 924 INTRA-LIGAND FREE ENERGY PREDICTED BY IDOCK:   -0.66 KCAL/MOL
REMARK 927      BINDING AFFINITY PREDICTED BY RF-SCORE:    0.00 PKD
ROOT
HETATM    1  C   UNL     1     -12.631   9.856  69.645  1.00  0.00     0.748 C  
HETATM    2  O   UNL     1     -11.924  10.817  68.875  1.00  0.00    -0.373 OA 
ENDROOT
BRANCH   2   3
HETATM    3  C   UNL     1     -11.775  12.048  69.472  1.00  0.00    -0.342 A  
HETATM    4  N   UNL     1     -12.881  12.628  70.012  1.00  0.00     0.369 NA 
HETATM    5  C   UNL     1     -12.728  13.730  70.763  1.00  0.00    -0.290 A  
HETATM    6  C   UNL     1     -11.452  14.236  71.071  1.00  0.00     0.053 A  
HETATM    7  C   UNL     1     -11.277  15.350  71.905  1.00  0.00    -0.378 A  
HETATM    8  C   UNL     1     -10.347  13.620  70.493  1.00  0.00     2.538 A  
HETATM    9  C   UNL     1     -12.386  15.988  72.440  1.00  0.00    -0.497 A  
HETATM   10  C   UNL     1     -10.479  12.569  69.576  1.00  0.00     0.501 A  
HETATM   11  C   UNL     1     -13.662  15.543  72.115  1.00  0.00    -0.614 A  
HETATM   12 BR   UNL     1     -12.146  17.445  73.615  1.00  0.00     0.955 Br 
HETATM   13  C   UNL     1      -9.247  12.067  68.757  1.00  0.00     0.059 C  
HETATM   14  C   UNL     1     -13.819  14.426  71.280  1.00  0.00    -0.333 A  
HETATM   15  C   UNL     1      -9.625  11.350  67.443  1.00  0.00    -0.185 A  
HETATM   16  C   UNL     1      -7.957  13.096  68.695  1.00  0.00    -0.033 C  
HETATM   17  O   UNL     1      -7.407  13.086  70.064  1.00  0.00     0.206 OA 
HETATM   18  C   UNL     1      -6.739  12.531  67.885  1.00  0.00    -0.103 C  
HETATM   19  C   UNL     1      -8.215  14.626  68.426  1.00  0.00    -0.154 A  
HETATM   20  C   UNL     1     -10.251  11.982  66.356  1.00  0.00    -0.243 A  
HETATM   21  C   UNL     1      -6.872  18.102  69.076  1.00  0.00    -0.257 A  
HETATM   22  C   UNL     1      -9.474  15.039  67.940  1.00  0.00    -0.195 A  
HETATM   23  C   UNL     1     -10.749  11.251  65.273  1.00  0.00    -0.302 A  
HETATM   24  H   UNL     1      -6.665  13.678  70.028  1.00  0.00     0.000 HD 
HETATM   25  C   UNL     1      -9.874  16.372  67.883  1.00  0.00    -0.238 A  
HETATM   26  C   UNL     1      -5.589  17.871  69.553  1.00  0.00    -0.217 A  
HETATM   27  C   UNL     1     -10.614   9.869  65.240  1.00  0.00     0.525 A  
HETATM   28  C   UNL     1      -8.998  17.365  68.268  1.00  0.00    -0.268 A  
HETATM   29  C   UNL     1      -9.949   9.220  66.272  1.00  0.00    -0.357 A  
HETATM   30  C   UNL     1      -5.144  16.569  69.689  1.00  0.00    -0.135 A  
HETATM   31  C   UNL     1      -5.985  15.503  69.336  1.00  0.00    -0.119 A  
HETATM   32  C   UNL     1      -9.456   9.950  67.360  1.00  0.00    -0.173 A  
HETATM   33  C   UNL     1      -7.715  17.040  68.706  1.00  0.00    -0.249 A  
HETATM   34  C   UNL     1      -7.293  15.677  68.808  1.00  0.00    -0.144 A  
BRANCH  18  35
HETATM   35  C   UNL     1      -6.828  12.409  66.361  1.00  0.00     1.112 C  
BRANCH  35  36
HETATM   36  N   UNL     1      -6.114  11.214  65.838  1.00  0.00    -0.061 NA 
HETATM   37  C   UNL     1      -6.694  10.699  64.594  1.00  0.00     0.165 C  
HETATM   38  C   UNL     1      -6.137  10.149  66.848  1.00  0.00    -0.056 C  
ENDBRANCH  35  36
ENDBRANCH  18  35
ENDBRANCH   2   3
TORSDOF 3
ENDMDL
MODEL       66
REMARK 921   NORMALIZED FREE ENERGY PREDICTED BY IDOCK:    1.84 KCAL/MOL
REMARK 922        TOTAL FREE ENERGY PREDICTED BY IDOCK:    1.39 KCAL/MOL
REMARK 923 INTER-LIGAND FREE ENERGY PREDICTED BY IDOCK:   -1.69 KCAL/MOL
REMARK 924 INTRA-LIGAND FREE ENERGY PREDICTED BY IDOCK:    3.07 KCAL/MOL
REMARK 927      BINDING AFFINITY PREDICTED BY RF-SCORE:    0.00 PKD
ROOT
HETATM    1  C   UNL     1      -5.274   9.706  64.298  1.00  0.00    -0.062 C  
HETATM    2  O   UNL     1      -6.670   9.523  64.485  1.00  0.00    -0.087 OA 
ENDROOT
BRANCH   2   3
HETATM    3  C   UNL     1      -7.070   8.218  64.663  1.00  0.00    -0.080 A  
HETATM    4  N   UNL     1      -7.379   7.494  63.551  1.00  0.00    -0.084 NA 
HETATM    5  C   UNL     1      -7.583   6.174  63.681  1.00  0.00    -0.082 A  
HETATM    6  C   UNL     1      -7.398   5.519  64.912  1.00  0.00    -0.068 A  
HETATM    7  C   UNL     1      -7.549   4.132  65.045  1.00  0.00    -0.077 A  
HETATM    8  C   UNL     1      -7.090   6.295  66.024  1.00  0.00    -0.067 A  
HETATM    9  C   UNL     1      -7.902   3.371  63.941  1.00  0.00    -0.081 A  
HETATM   10  C   UNL     1      -7.028   7.694  65.960  1.00  0.00    -0.065 A  
HETATM   11  C   UNL     1      -8.141   3.993  62.721  1.00  0.00    -0.076 A  
HETATM   12 BR   UNL     1      -8.039   1.496  64.107  1.00  0.00    -0.065 Br 
HETATM   13  C   UNL     1      -6.932   8.548  67.265  1.00  0.00    -0.075 C  
HETATM   14  C   UNL     1      -7.984   5.383  62.605  1.00  0.00    -0.092 A  
HETATM   15  C   UNL     1      -7.432   9.999  67.096  1.00  0.00    -0.091 A  
HETATM   16  C   UNL     1      -7.354   7.777  68.662  1.00  0.00    -0.087 C  
HETATM   17  O   UNL     1      -6.274   6.797  68.888  1.00  0.00    -0.025 OA 
HETATM   18  C   UNL     1      -7.211   8.670  69.943  1.00  0.00    -0.051 C  
HETATM   19  C   UNL     1      -8.652   6.886  68.678  1.00  0.00    -0.123 A  
HETATM   20  C   UNL     1      -8.765  10.341  66.818  1.00  0.00    -0.132 A  
HETATM   21  C   UNL     1     -10.254   3.866  70.298  1.00  0.00     0.393 A  
HETATM   22  C   UNL     1      -9.585   7.005  67.627  1.00  0.00    -0.151 A  
HETATM   23  C   UNL     1      -9.128  11.649  66.480  1.00  0.00    -0.200 A  
HETATM   24  H   UNL     1      -6.517   6.353  69.691  1.00  0.00     0.000 HD 
HETATM   25  C   UNL     1     -10.640   6.117  67.433  1.00  0.00    -0.352 A  
HETATM   26  C   UNL     1      -9.446   3.620  71.400  1.00  0.00    -0.227 A  
HETATM   27  C   UNL     1      -8.169  12.652  66.432  1.00  0.00     0.402 A  
HETATM   28  C   UNL     1     -10.837   5.085  68.326  1.00  0.00     0.489 A  
HETATM   29  C   UNL     1      -6.851  12.357  66.757  1.00  0.00     0.297 A  
HETATM   30  C   UNL     1      -8.347   4.429  71.624  1.00  0.00    -0.104 A  
HETATM   31  C   UNL     1      -8.069   5.488  70.748  1.00  0.00    -0.113 A  
HETATM   32  C   UNL     1      -6.485  11.047  67.090  1.00  0.00    -0.084 A  
HETATM   33  C   UNL     1      -9.991   4.934  69.424  1.00  0.00    -0.282 A  
HETATM   34  C   UNL     1      -8.880   5.812  69.626  1.00  0.00    -0.124 A  
BRANCH  18  35
HETATM   35  C   UNL     1      -8.189   9.824  70.180  1.00  0.00    -0.179 C  
BRANCH  35  36
HETATM   36  N   UNL     1      -9.382   9.415  70.967  1.00  0.00    -0.211 NA 
HETATM   37  C   UNL     1      -9.837   8.057  70.652  1.00  0.00    -0.184 C  
HETATM   38  C   UNL     1     -10.481  10.354  70.715  1.00  0.00     0.510 C  
ENDBRANCH  35  36
ENDBRANCH  18  35
ENDBRANCH   2   3
TORSDOF 3
ENDMDL
MODEL       67
REMARK 921   NORMALIZED FREE ENERGY PREDICTED BY IDOCK:    2.96 KCAL/MOL
REMARK 922        TOTAL FREE ENERGY PREDICTED BY IDOCK:    2.70 KCAL/MOL
REMARK 923 INTER-LIGAND FREE ENERGY PREDICTED BY IDOCK:    2.79 KCAL/MOL
REMARK 924 INTRA-LIGAND FREE ENERGY PREDICTED BY IDOCK:   -0.09 KCAL/MOL
REMARK 927      BINDING AFFINITY PREDICTED BY RF-SCORE:    0.00 PKD
ROOT
HETATM    1  C   UNL     1      -9.685  19.941  71.803  1.00  0.00     2.847 C  
HETATM    2  O   UNL     1     -10.015  19.383  70.539  1.00  0.00     0.736 OA 
ENDROOT
BRANCH   2   3
HETATM    3  C   UNL     1     -10.449  18.078  70.573  1.00  0.00     1.839 A  
HETATM    4  N   UNL     1     -10.957  17.610  71.746  1.00  0.00     1.791 NA 
HETATM    5  C   UNL     1     -11.561  16.411  71.753  1.00  0.00    -0.269 A  
HETATM    6  C   UNL     1     -11.754  15.680  70.567  1.00  0.00    -0.392 A  
HETATM    7  C   UNL     1     -12.437  14.456  70.552  1.00  0.00    -0.416 A  
HETATM    8  C   UNL     1     -11.213  16.188  69.391  1.00  0.00    -0.335 A  
HETATM    9  C   UNL     1     -12.933  13.932  71.737  1.00  0.00    -0.358 A  
HETATM   10  C   UNL     1     -10.438  17.355  69.373  1.00  0.00    -0.077 A  
HETATM   11  C   UNL     1     -12.716  14.606  72.934  1.00  0.00    -0.506 A  
HETATM   12 BR   UNL     1     -13.910  12.318  71.705  1.00  0.00     0.630 Br 
HETATM   13  C   UNL     1      -9.638  17.762  68.094  1.00  0.00    -0.303 C  
HETATM   14  C   UNL     1     -12.031  15.831  72.930  1.00  0.00    -0.599 A  
HETATM   15  C   UNL     1      -8.438  18.690  68.381  1.00  0.00    -0.366 A  
HETATM   16  C   UNL     1      -9.400  16.564  66.984  1.00  0.00    -0.230 C  
HETATM   17  O   UNL     1     -10.737  16.315  66.412  1.00  0.00    -0.278 OA 
HETATM   18  C   UNL     1      -8.618  17.034  65.708  1.00  0.00     0.189 C  
HETATM   19  C   UNL     1      -8.956  15.139  67.484  1.00  0.00    -0.187 A  
HETATM   20  C   UNL     1      -7.308  18.305  69.120  1.00  0.00    -0.139 A  
HETATM   21  C   UNL     1      -9.120  11.443  66.691  1.00  0.00    -0.187 A  
HETATM   22  C   UNL     1      -8.473  14.988  68.801  1.00  0.00    -0.180 A  
HETATM   23  C   UNL     1      -6.343  19.236  69.518  1.00  0.00    -0.339 A  
HETATM   24  H   UNL     1     -10.600  15.626  65.773  1.00  0.00     0.000 HD 
HETATM   25  C   UNL     1      -8.268  13.751  69.407  1.00  0.00     0.623 A  
HETATM   26  C   UNL     1      -9.571  11.412  65.378  1.00  0.00    -0.255 A  
HETATM   27  C   UNL     1      -6.474  20.573  69.168  1.00  0.00    -0.189 A  
HETATM   28  C   UNL     1      -8.494  12.595  68.690  1.00  0.00     0.043 A  
HETATM   29  C   UNL     1      -7.552  20.976  68.389  1.00  0.00     0.688 A  
HETATM   30  C   UNL     1      -9.849  12.603  64.732  1.00  0.00    -0.064 A  
HETATM   31  C   UNL     1      -9.663  13.820  65.402  1.00  0.00    -0.073 A  
HETATM   32  C   UNL     1      -8.521  20.047  67.995  1.00  0.00    -0.256 A  
HETATM   33  C   UNL     1      -8.917  12.660  67.364  1.00  0.00    -0.190 A  
HETATM   34  C   UNL     1      -9.169  13.918  66.731  1.00  0.00    -0.267 A  
BRANCH  18  35
HETATM   35  C   UNL     1      -7.125  17.362  65.807  1.00  0.00     0.064 C  
BRANCH  35  36
HETATM   36  N   UNL     1      -6.693  18.375  64.809  1.00  0.00    -0.011 NA 
HETATM   37  C   UNL     1      -5.255  18.320  64.523  1.00  0.00     0.014 C  
HETATM   38  C   UNL     1      -7.028  19.718  65.297  1.00  0.00    -0.210 C  
ENDBRANCH  35  36
ENDBRANCH  18  35
ENDBRANCH   2   3
TORSDOF 3
ENDMDL
MODEL       68
REMARK 921   NORMALIZED FREE ENERGY PREDICTED BY IDOCK:    3.42 KCAL/MOL
REMARK 922        TOTAL FREE ENERGY PREDICTED BY IDOCK:    3.24 KCAL/MOL
REMARK 923 INTER-LIGAND FREE ENERGY PREDICTED BY IDOCK:    2.70 KCAL/MOL
REMARK 924 INTRA-LIGAND FREE ENERGY PREDICTED BY IDOCK:    0.54 KCAL/MOL
REMARK 927      BINDING AFFINITY PREDICTED BY RF-SCORE:    0.00 PKD
ROOT
HETATM    1  C   UNL     1      -5.125  14.533  67.810  1.00  0.00     0.024 C  
HETATM    2  O   UNL     1      -6.223  14.234  66.960  1.00  0.00    -0.023 OA 
ENDROOT
BRANCH   2   3
HETATM    3  C   UNL     1      -7.168  13.393  67.500  1.00  0.00    -0.153 A  
HETATM    4  N   UNL     1      -7.178  12.098  67.080  1.00  0.00    -0.139 NA 
HETATM    5  C   UNL     1      -7.957  11.218  67.728  1.00  0.00    -0.117 A  
HETATM    6  C   UNL     1      -8.685  11.586  68.874  1.00  0.00     0.031 A  
HETATM    7  C   UNL     1      -9.453  10.661  69.594  1.00  0.00     0.063 A  
HETATM    8  C   UNL     1      -8.655  12.920  69.266  1.00  0.00     0.913 A  
HETATM    9  C   UNL     1      -9.516   9.342  69.169  1.00  0.00    -0.163 A  
HETATM   10  C   UNL     1      -7.983  13.898  68.521  1.00  0.00    -0.137 A  
HETATM   11  C   UNL     1      -8.848   8.957  68.013  1.00  0.00    -0.133 A  
HETATM   12 BR   UNL     1     -10.497   8.084  70.178  1.00  0.00    -0.228 Br 
HETATM   13  C   UNL     1      -8.174  15.415  68.842  1.00  0.00    -0.192 C  
HETATM   14  C   UNL     1      -8.083   9.896  67.304  1.00  0.00    -0.113 A  
HETATM   15  C   UNL     1      -7.861  16.347  67.650  1.00  0.00    -0.160 A  
HETATM   16  C   UNL     1      -9.497  15.797  69.752  1.00  0.00    -0.102 C  
HETATM   17  O   UNL     1      -9.193  15.263  71.094  1.00  0.00     1.099 OA 
HETATM   18  C   UNL     1      -9.625  17.328  70.069  1.00  0.00     1.292 C  
HETATM   19  C   UNL     1     -10.879  15.125  69.407  1.00  0.00    -0.265 A  
HETATM   20  C   UNL     1      -8.605  16.374  66.460  1.00  0.00    -0.329 A  
HETATM   21  C   UNL     1     -14.169  13.988  70.890  1.00  0.00     0.631 A  
HETATM   22  C   UNL     1     -11.039  14.471  68.167  1.00  0.00    -0.280 A  
HETATM   23  C   UNL     1      -8.166  17.088  65.340  1.00  0.00     1.565 A  
HETATM   24  H   UNL     1      -9.954  15.482  71.617  1.00  0.00     0.000 HD 
HETATM   25  C   UNL     1     -12.132  13.664  67.861  1.00  0.00    -0.318 A  
HETATM   26  C   UNL     1     -14.182  14.582  72.144  1.00  0.00    -0.619 A  
HETATM   27  C   UNL     1      -6.982  17.811  65.391  1.00  0.00     0.388 A  
HETATM   28  C   UNL     1     -13.150  13.517  68.779  1.00  0.00     2.284 A  
HETATM   29  C   UNL     1      -6.252  17.850  66.572  1.00  0.00    -0.216 A  
HETATM   30  C   UNL     1     -13.104  15.353  72.538  1.00  0.00    -0.518 A  
HETATM   31  C   UNL     1     -12.020  15.534  71.667  1.00  0.00    -0.478 A  
HETATM   32  C   UNL     1      -6.687  17.131  67.692  1.00  0.00    -0.160 A  
HETATM   33  C   UNL     1     -13.093  14.177  70.005  1.00  0.00     0.336 A  
HETATM   34  C   UNL     1     -11.965  14.984  70.357  1.00  0.00    -0.372 A  
BRANCH  18  35
HETATM   35  C   UNL     1     -10.000  18.308  68.953  1.00  0.00    -0.339 C  
BRANCH  35  36
HETATM   36  N   UNL     1      -9.425  19.662  69.161  1.00  0.00    -0.293 NA 
HETATM   37  C   UNL     1      -9.635  20.556  68.018  1.00  0.00    -0.111 C  
HETATM   38  C   UNL     1      -7.984  19.549  69.416  1.00  0.00     0.033 C  
ENDBRANCH  35  36
ENDBRANCH  18  35
ENDBRANCH   2   3
TORSDOF 3
ENDMDL
MODEL       69
REMARK 921   NORMALIZED FREE ENERGY PREDICTED BY IDOCK:    3.54 KCAL/MOL
REMARK 922        TOTAL FREE ENERGY PREDICTED BY IDOCK:    3.39 KCAL/MOL
REMARK 923 INTER-LIGAND FREE ENERGY PREDICTED BY IDOCK:    3.91 KCAL/MOL
REMARK 924 INTRA-LIGAND FREE ENERGY PREDICTED BY IDOCK:   -0.52 KCAL/MOL
REMARK 927      BINDING AFFINITY PREDICTED BY RF-SCORE:    0.00 PKD
ROOT
HETATM    1  C   UNL     1      -7.626   8.328  72.059  1.00  0.00    -0.116 C  
HETATM    2  O   UNL     1      -7.254   8.948  70.836  1.00  0.00    -0.072 OA 
ENDROOT
BRANCH   2   3
HETATM    3  C   UNL     1      -7.901   8.472  69.719  1.00  0.00    -0.094 A  
HETATM    4  N   UNL     1      -7.687   7.174  69.367  1.00  0.00    -0.105 NA 
HETATM    5  C   UNL     1      -8.449   6.635  68.404  1.00  0.00    -0.125 A  
HETATM    6  C   UNL     1      -9.511   7.349  67.822  1.00  0.00    -0.154 A  
HETATM    7  C   UNL     1     -10.353   6.775  66.858  1.00  0.00    -0.324 A  
HETATM    8  C   UNL     1      -9.693   8.675  68.203  1.00  0.00    -0.178 A  
HETATM    9  C   UNL     1     -10.136   5.468  66.449  1.00  0.00    -0.182 A  
HETATM   10  C   UNL     1      -8.817   9.320  69.085  1.00  0.00    -0.141 A  
HETATM   11  C   UNL     1      -9.065   4.751  66.969  1.00  0.00    -0.121 A  
HETATM   12 BR   UNL     1     -11.311   4.675  65.202  1.00  0.00     0.928 Br 
HETATM   13  C   UNL     1      -8.896  10.866  69.298  1.00  0.00     0.020 C  
HETATM   14  C   UNL     1      -8.233   5.341  67.933  1.00  0.00    -0.099 A  
HETATM   15  C   UNL     1      -7.580  11.491  69.812  1.00  0.00     0.621 A  
HETATM   16  C   UNL     1      -9.713  11.711  68.139  1.00  0.00    -0.189 C  
HETATM   17  O   UNL     1     -11.126  11.329  68.327  1.00  0.00    -0.202 OA 
HETATM   18  C   UNL     1      -9.787  13.253  68.415  1.00  0.00    -0.218 C  
HETATM   19  C   UNL     1      -9.453  11.372  66.623  1.00  0.00    -0.206 A  
HETATM   20  C   UNL     1      -6.387  11.524  69.072  1.00  0.00    -0.069 A  
HETATM   21  C   UNL     1     -11.036  11.362  63.187  1.00  0.00    -0.129 A  
HETATM   22  C   UNL     1      -8.326  10.598  66.272  1.00  0.00    -0.155 A  
HETATM   23  C   UNL     1      -5.178  11.920  69.653  1.00  0.00    -0.068 A  
HETATM   24  H   UNL     1     -11.597  11.815  67.660  1.00  0.00     0.000 HD 
HETATM   25  C   UNL     1      -8.130  10.062  65.001  1.00  0.00    -0.145 A  
HETATM   26  C   UNL     1     -12.183  12.125  63.356  1.00  0.00    -0.635 A  
HETATM   27  C   UNL     1      -5.137  12.314  70.984  1.00  0.00    -0.145 A  
HETATM   28  C   UNL     1      -9.042  10.325  64.001  1.00  0.00    -0.283 A  
HETATM   29  C   UNL     1      -6.311  12.345  71.727  1.00  0.00     2.905 A  
HETATM   30  C   UNL     1     -12.471  12.644  64.604  1.00  0.00    -0.538 A  
HETATM   31  C   UNL     1     -11.601  12.404  65.678  1.00  0.00    -0.441 A  
HETATM   32  C   UNL     1      -7.520  11.943  71.148  1.00  0.00     5.991 A  
HETATM   33  C   UNL     1     -10.151  11.129  64.254  1.00  0.00    -0.382 A  
HETATM   34  C   UNL     1     -10.394  11.663  65.559  1.00  0.00    -0.309 A  
BRANCH  18  35
HETATM   35  C   UNL     1      -8.526  14.112  68.279  1.00  0.00    -0.169 C  
BRANCH  35  36
HETATM   36  N   UNL     1      -8.715  15.267  67.363  1.00  0.00    -0.170 NA 
HETATM   37  C   UNL     1      -7.624  16.244  67.440  1.00  0.00    -0.155 C  
HETATM   38  C   UNL     1      -9.979  15.942  67.680  1.00  0.00    -0.237 C  
ENDBRANCH  35  36
ENDBRANCH  18  35
ENDBRANCH   2   3
TORSDOF 3
ENDMDL
MODEL       70
REMARK 921   NORMALIZED FREE ENERGY PREDICTED BY IDOCK:    3.95 KCAL/MOL
REMARK 922        TOTAL FREE ENERGY PREDICTED BY IDOCK:    3.86 KCAL/MOL
REMARK 923 INTER-LIGAND FREE ENERGY PREDICTED BY IDOCK:    1.47 KCAL/MOL
REMARK 924 INTRA-LIGAND FREE ENERGY PREDICTED BY IDOCK:    2.39 KCAL/MOL
REMARK 927      BINDING AFFINITY PREDICTED BY RF-SCORE:    0.00 PKD
ROOT
HETATM    1  C   UNL     1      -9.131   8.230  71.787  1.00  0.00    -0.193 C  
HETATM    2  O   UNL     1      -8.198   7.370  71.148  1.00  0.00    -0.104 OA 
ENDROOT
BRANCH   2   3
HETATM    3  C   UNL     1      -8.542   6.978  69.875  1.00  0.00    -0.141 A  
HETATM    4  N   UNL     1      -8.566   5.643  69.609  1.00  0.00    -0.109 NA 
HETATM    5  C   UNL     1      -9.081   5.229  68.441  1.00  0.00    -0.110 A  
HETATM    6  C   UNL     1      -9.671   6.132  67.537  1.00  0.00    -0.126 A  
HETATM    7  C   UNL     1     -10.267   5.705  66.342  1.00  0.00    -0.220 A  
HETATM    8  C   UNL     1      -9.619   7.488  67.842  1.00  0.00    -0.161 A  
HETATM    9  C   UNL     1     -10.273   4.355  66.023  1.00  0.00    -0.219 A  
HETATM   10  C   UNL     1      -8.947   7.970  68.973  1.00  0.00    -0.145 A  
HETATM   11  C   UNL     1      -9.656   3.442  66.870  1.00  0.00    -0.106 A  
HETATM   12 BR   UNL     1     -11.134   3.775  64.447  1.00  0.00     0.456 Br 
HETATM   13  C   UNL     1      -8.689   9.500  69.156  1.00  0.00    -0.146 C  
HETATM   14  C   UNL     1      -9.064   3.888  68.063  1.00  0.00    -0.183 A  
HETATM   15  C   UNL     1      -7.502   9.823  70.089  1.00  0.00    -0.170 A  
HETATM   16  C   UNL     1      -8.833  10.421  67.793  1.00  0.00    -0.128 C  
HETATM   17  O   UNL     1     -10.277  10.414  67.489  1.00  0.00    -0.189 OA 
HETATM   18  C   UNL     1      -8.593  11.951  68.038  1.00  0.00    -0.168 C  
HETATM   19  C   UNL     1      -8.185   9.906  66.454  1.00  0.00    -0.117 A  
HETATM   20  C   UNL     1      -6.166   9.503  69.797  1.00  0.00    -0.040 A  
HETATM   21  C   UNL     1      -8.496  10.002  62.685  1.00  0.00    -0.180 A  
HETATM   22  C   UNL     1      -7.246   8.854  66.500  1.00  0.00    -0.085 A  
HETATM   23  C   UNL     1      -5.157   9.638  70.756  1.00  0.00    -0.039 A  
HETATM   24  H   UNL     1     -10.359  10.944  66.706  1.00  0.00     0.000 HD 
HETATM   25  C   UNL     1      -6.788   8.183  65.368  1.00  0.00    -0.062 A  
HETATM   26  C   UNL     1      -9.397  11.034  62.459  1.00  0.00    -0.295 A  
HETATM   27  C   UNL     1      -5.455  10.116  72.025  1.00  0.00     0.136 A  
HETATM   28  C   UNL     1      -7.220   8.579  64.120  1.00  0.00    -0.092 A  
HETATM   29  C   UNL     1      -6.758  10.495  72.326  1.00  0.00     2.943 A  
HETATM   30  C   UNL     1      -9.936  11.709  63.539  1.00  0.00    -0.429 A  
HETATM   31  C   UNL     1      -9.560  11.351  64.843  1.00  0.00    -0.244 A  
HETATM   32  C   UNL     1      -7.770  10.355  71.369  1.00  0.00     2.953 A  
HETATM   33  C   UNL     1      -8.104   9.648  63.987  1.00  0.00    -0.152 A  
HETATM   34  C   UNL     1      -8.616  10.330  65.136  1.00  0.00    -0.181 A  
BRANCH  18  35
HETATM   35  C   UNL     1      -7.181  12.462  68.342  1.00  0.00    -0.110 C  
BRANCH  35  36
HETATM   36  N   UNL     1      -7.161  13.894  68.739  1.00  0.00    -0.104 NA 
HETATM   37  C   UNL     1      -7.429  14.802  67.619  1.00  0.00    -0.184 C  
HETATM   38  C   UNL     1      -5.852  14.225  69.314  1.00  0.00    -0.088 C  
ENDBRANCH  35  36
ENDBRANCH  18  35
ENDBRANCH   2   3
TORSDOF 3
ENDMDL
MODEL       71
REMARK 921   NORMALIZED FREE ENERGY PREDICTED BY IDOCK:    4.10 KCAL/MOL
REMARK 922        TOTAL FREE ENERGY PREDICTED BY IDOCK:    4.04 KCAL/MOL
REMARK 923 INTER-LIGAND FREE ENERGY PREDICTED BY IDOCK:    1.32 KCAL/MOL
REMARK 924 INTRA-LIGAND FREE ENERGY PREDICTED BY IDOCK:    2.72 KCAL/MOL
REMARK 927      BINDING AFFINITY PREDICTED BY RF-SCORE:    0.00 PKD
ROOT
HETATM    1  C   UNL     1     -11.025   8.083  65.833  1.00  0.00     3.206 C  
HETATM    2  O   UNL     1      -9.842   8.753  65.421  1.00  0.00     0.098 OA 
ENDROOT
BRANCH   2   3
HETATM    3  C   UNL     1      -9.346   9.668  66.321  1.00  0.00    -0.185 A  
HETATM    4  N   UNL     1      -9.070  10.921  65.862  1.00  0.00    -0.187 NA 
HETATM    5  C   UNL     1      -8.771  11.879  66.752  1.00  0.00    -0.193 A  
HETATM    6  C   UNL     1      -8.824  11.638  68.137  1.00  0.00    -0.164 A  
HETATM    7  C   UNL     1      -8.573  12.648  69.077  1.00  0.00     0.483 A  
HETATM    8  C   UNL     1      -9.101  10.344  68.565  1.00  0.00    -0.145 A  
HETATM    9  C   UNL     1      -8.251  13.925  68.643  1.00  0.00    -0.088 A  
HETATM   10  C   UNL     1      -9.259   9.282  67.664  1.00  0.00    -0.139 A  
HETATM   11  C   UNL     1      -8.143  14.184  67.282  1.00  0.00    -0.188 A  
HETATM   12 BR   UNL     1      -7.980  15.298  69.909  1.00  0.00     0.285 Br 
HETATM   13  C   UNL     1      -9.318   7.806  68.173  1.00  0.00    -0.148 C  
HETATM   14  C   UNL     1      -8.398  13.162  66.355  1.00  0.00     0.538 A  
HETATM   15  C   UNL     1      -8.927   6.764  67.104  1.00  0.00    -0.116 A  
HETATM   16  C   UNL     1      -8.747   7.550  69.701  1.00  0.00    -0.137 C  
HETATM   17  O   UNL     1      -9.741   8.191  70.583  1.00  0.00    -0.169 OA 
HETATM   18  C   UNL     1      -8.855   6.058  70.173  1.00  0.00    -0.143 C  
HETATM   19  C   UNL     1      -7.395   8.233  70.134  1.00  0.00    -0.056 A  
HETATM   20  C   UNL     1      -7.642   6.655  66.547  1.00  0.00    -0.090 A  
HETATM   21  C   UNL     1      -5.486   9.602  73.099  1.00  0.00     0.108 A  
HETATM   22  C   UNL     1      -6.550   8.779  69.145  1.00  0.00    -0.047 A  
HETATM   23  C   UNL     1      -7.391   5.831  65.445  1.00  0.00    -0.076 A  
HETATM   24  H   UNL     1      -9.412   8.043  71.462  1.00  0.00     0.000 HD 
HETATM   25  C   UNL     1      -5.455   9.591  69.435  1.00  0.00    -0.035 A  
HETATM   26  C   UNL     1      -6.196   9.122  74.192  1.00  0.00     0.064 A  
HETATM   27  C   UNL     1      -8.414   5.077  64.886  1.00  0.00    -0.147 A  
HETATM   28  C   UNL     1      -5.128   9.852  70.749  1.00  0.00    -0.044 A  
HETATM   29  C   UNL     1      -9.684   5.119  65.450  1.00  0.00     0.025 A  
HETATM   30  C   UNL     1      -7.326   8.355  73.979  1.00  0.00    -0.183 A  
HETATM   31  C   UNL     1      -7.735   8.063  72.670  1.00  0.00    -0.160 A  
HETATM   32  C   UNL     1      -9.938   5.949  66.548  1.00  0.00    -0.196 A  
HETATM   33  C   UNL     1      -5.881   9.301  71.784  1.00  0.00    -0.060 A  
HETATM   34  C   UNL     1      -7.030   8.493  71.513  1.00  0.00    -0.083 A  
BRANCH  18  35
HETATM   35  C   UNL     1      -7.940   4.996  69.556  1.00  0.00    -0.075 C  
BRANCH  35  36
HETATM   36  N   UNL     1      -8.680   3.781  69.126  1.00  0.00    -0.083 NA 
HETATM   37  C   UNL     1      -8.679   2.720  70.139  1.00  0.00    -0.068 C  
HETATM   38  C   UNL     1      -8.084   3.257  67.891  1.00  0.00    -0.079 C  
ENDBRANCH  35  36
ENDBRANCH  18  35
ENDBRANCH   2   3
TORSDOF 3
ENDMDL
MODEL       72
REMARK 921   NORMALIZED FREE ENERGY PREDICTED BY IDOCK:    4.39 KCAL/MOL
REMARK 922        TOTAL FREE ENERGY PREDICTED BY IDOCK:    4.38 KCAL/MOL
REMARK 923 INTER-LIGAND FREE ENERGY PREDICTED BY IDOCK:    4.32 KCAL/MOL
REMARK 924 INTRA-LIGAND FREE ENERGY PREDICTED BY IDOCK:    0.06 KCAL/MOL
REMARK 927      BINDING AFFINITY PREDICTED BY RF-SCORE:    0.00 PKD
ROOT
HETATM    1  C   UNL     1      -8.401  12.808  64.476  1.00  0.00     4.068 C  
HETATM    2  O   UNL     1      -9.166  12.800  65.673  1.00  0.00     0.064 OA 
ENDROOT
BRANCH   2   3
HETATM    3  C   UNL     1      -8.431  12.852  66.835  1.00  0.00    -0.086 A  
HETATM    4  N   UNL     1      -7.571  13.895  66.995  1.00  0.00     0.096 NA 
HETATM    5  C   UNL     1      -6.991  14.072  68.191  1.00  0.00    -0.120 A  
HETATM    6  C   UNL     1      -7.319  13.263  69.294  1.00  0.00     0.211 A  
HETATM    7  C   UNL     1      -6.765  13.477  70.564  1.00  0.00     0.635 A  
HETATM    8  C   UNL     1      -8.195  12.202  69.088  1.00  0.00     0.433 A  
HETATM    9  C   UNL     1      -5.856  14.507  70.751  1.00  0.00    -0.181 A  
HETATM   10  C   UNL     1      -8.696  11.889  67.817  1.00  0.00    -0.158 A  
HETATM   11  C   UNL     1      -5.472  15.294  69.672  1.00  0.00    -0.102 A  
HETATM   12 BR   UNL     1      -5.162  14.836  72.475  1.00  0.00    -0.052 Br 
HETATM   13  C   UNL     1      -9.469  10.554  67.572  1.00  0.00    -0.166 C  
HETATM   14  C   UNL     1      -6.038  15.066  68.407  1.00  0.00    -0.105 A  
HETATM   15  C   UNL     1      -9.453  10.088  66.100  1.00  0.00    -0.242 A  
HETATM   16  C   UNL     1      -9.270   9.386  68.721  1.00  0.00    -0.132 C  
HETATM   17  O   UNL     1      -9.976   9.906  69.908  1.00  0.00    -0.230 OA 
HETATM   18  C   UNL     1     -10.090   8.079  68.441  1.00  0.00    -0.221 C  
HETATM   19  C   UNL     1      -7.822   9.095  69.268  1.00  0.00    -0.095 A  
HETATM   20  C   UNL     1      -8.293   9.690  65.416  1.00  0.00    -0.146 A  
HETATM   21  C   UNL     1      -5.893   7.887  72.290  1.00  0.00    -0.040 A  
HETATM   22  C   UNL     1      -6.704   9.594  68.566  1.00  0.00    -0.052 A  
HETATM   23  C   UNL     1      -8.299   9.467  64.035  1.00  0.00    -0.171 A  
HETATM   24  H   UNL     1      -9.861   9.234  70.569  1.00  0.00     0.000 HD 
HETATM   25  C   UNL     1      -5.409   9.585  69.079  1.00  0.00    -0.036 A  
HETATM   26  C   UNL     1      -6.872   7.328  73.099  1.00  0.00    -0.065 A  
HETATM   27  C   UNL     1      -9.472   9.616  63.307  1.00  0.00     0.177 A  
HETATM   28  C   UNL     1      -5.168   9.019  70.313  1.00  0.00    -0.027 A  
HETATM   29  C   UNL     1     -10.649   9.954  63.964  1.00  0.00     2.042 A  
HETATM   30  C   UNL     1      -8.190   7.352  72.679  1.00  0.00    -0.128 A  
HETATM   31  C   UNL     1      -8.517   7.928  71.443  1.00  0.00    -0.133 A  
HETATM   32  C   UNL     1     -10.643  10.183  65.344  1.00  0.00     0.097 A  
HETATM   33  C   UNL     1      -6.211   8.453  71.044  1.00  0.00    -0.036 A  
HETATM   34  C   UNL     1      -7.555   8.482  70.555  1.00  0.00    -0.074 A  
BRANCH  18  35
HETATM   35  C   UNL     1      -9.675   7.150  67.297  1.00  0.00    -0.155 C  
BRANCH  35  36
HETATM   36  N   UNL     1      -9.422   5.757  67.750  1.00  0.00    -0.111 NA 
HETATM   37  C   UNL     1      -9.801   4.751  66.753  1.00  0.00    -0.208 C  
HETATM   38  C   UNL     1     -10.170   5.502  68.988  1.00  0.00    -0.228 C  
ENDBRANCH  35  36
ENDBRANCH  18  35
ENDBRANCH   2   3
TORSDOF 3
ENDMDL
MODEL       73
REMARK 921   NORMALIZED FREE ENERGY PREDICTED BY IDOCK:    5.40 KCAL/MOL
REMARK 922        TOTAL FREE ENERGY PREDICTED BY IDOCK:    5.57 KCAL/MOL
REMARK 923 INTER-LIGAND FREE ENERGY PREDICTED BY IDOCK:    5.82 KCAL/MOL
REMARK 924 INTRA-LIGAND FREE ENERGY PREDICTED BY IDOCK:   -0.25 KCAL/MOL
REMARK 927      BINDING AFFINITY PREDICTED BY RF-SCORE:    0.00 PKD
ROOT
HETATM    1  C   UNL     1     -13.134  15.784  64.601  1.00  0.00     1.655 C  
HETATM    2  O   UNL     1     -11.830  15.222  64.596  1.00  0.00    -0.362 OA 
ENDROOT
BRANCH   2   3
HETATM    3  C   UNL     1     -10.895  15.908  65.335  1.00  0.00    -0.349 A  
HETATM    4  N   UNL     1     -10.540  17.152  64.909  1.00  0.00    -0.539 NA 
HETATM    5  C   UNL     1      -9.781  17.913  65.712  1.00  0.00     0.175 A  
HETATM    6  C   UNL     1      -9.424  17.490  67.005  1.00  0.00    -0.268 A  
HETATM    7  C   UNL     1      -8.683  18.302  67.875  1.00  0.00    -0.274 A  
HETATM    8  C   UNL     1      -9.799  16.209  67.399  1.00  0.00    -0.238 A  
HETATM    9  C   UNL     1      -8.272  19.558  67.457  1.00  0.00    -0.293 A  
HETATM   10  C   UNL     1     -10.453  15.326  66.529  1.00  0.00    -0.299 A  
HETATM   11  C   UNL     1      -8.566  19.988  66.168  1.00  0.00    -0.301 A  
HETATM   12 BR   UNL     1      -7.333  20.677  68.653  1.00  0.00     0.403 Br 
HETATM   13  C   UNL     1     -10.635  13.822  66.910  1.00  0.00    -0.276 C  
HETATM   14  C   UNL     1      -9.309  19.162  65.311  1.00  0.00     1.589 A  
HETATM   15  C   UNL     1     -10.833  12.892  65.693  1.00  0.00    -0.296 A  
HETATM   16  C   UNL     1      -9.659  13.262  68.118  1.00  0.00    -0.227 C  
HETATM   17  O   UNL     1     -10.160  13.923  69.338  1.00  0.00    -0.411 OA 
HETATM   18  C   UNL     1      -9.903  11.756  68.480  1.00  0.00    -0.192 C  
HETATM   19  C   UNL     1      -8.133  13.650  68.106  1.00  0.00    -0.156 A  
HETATM   20  C   UNL     1      -9.851  12.659  64.717  1.00  0.00    -0.064 A  
HETATM   21  C   UNL     1      -5.126  14.258  70.319  1.00  0.00    -0.091 A  
HETATM   22  C   UNL     1      -7.566  14.187  66.931  1.00  0.00     0.424 A  
HETATM   23  C   UNL     1     -10.144  11.969  63.536  1.00  0.00    -0.448 A  
HETATM   24  H   UNL     1      -9.599  13.601  70.033  1.00  0.00     0.000 HD 
HETATM   25  C   UNL     1      -6.298  14.763  66.884  1.00  0.00     1.276 A  
HETATM   26  C   UNL     1      -5.519  13.749  71.549  1.00  0.00    -0.222 A  
HETATM   27  C   UNL     1     -11.423  11.478  63.311  1.00  0.00    -0.180 A  
HETATM   28  C   UNL     1      -5.514  14.778  68.018  1.00  0.00    -0.130 A  
HETATM   29  C   UNL     1     -12.402  11.644  64.282  1.00  0.00    -0.048 A  
HETATM   30  C   UNL     1      -6.786  13.211  71.683  1.00  0.00     3.374 A  
HETATM   31  C   UNL     1      -7.650  13.178  70.580  1.00  0.00     3.333 A  
HETATM   32  C   UNL     1     -12.112  12.339  65.462  1.00  0.00    -0.326 A  
HETATM   33  C   UNL     1      -5.980  14.215  69.204  1.00  0.00    -0.093 A  
HETATM   34  C   UNL     1      -7.292  13.649  69.287  1.00  0.00     0.129 A  
BRANCH  18  35
HETATM   35  C   UNL     1      -9.473  10.659  67.502  1.00  0.00    -0.153 C  
BRANCH  35  36
HETATM   36  N   UNL     1      -7.998  10.595  67.323  1.00  0.00    -0.114 NA 
HETATM   37  C   UNL     1      -7.586  10.726  65.922  1.00  0.00    -0.106 C  
HETATM   38  C   UNL     1      -7.496   9.320  67.848  1.00  0.00    -0.084 C  
ENDBRANCH  35  36
ENDBRANCH  18  35
ENDBRANCH   2   3
TORSDOF 3
ENDMDL
MODEL       74
REMARK 921   NORMALIZED FREE ENERGY PREDICTED BY IDOCK:    7.46 KCAL/MOL
REMARK 922        TOTAL FREE ENERGY PREDICTED BY IDOCK:    7.99 KCAL/MOL
REMARK 923 INTER-LIGAND FREE ENERGY PREDICTED BY IDOCK:    8.11 KCAL/MOL
REMARK 924 INTRA-LIGAND FREE ENERGY PREDICTED BY IDOCK:   -0.13 KCAL/MOL
REMARK 927      BINDING AFFINITY PREDICTED BY RF-SCORE:    0.00 PKD
ROOT
HETATM    1  C   UNL     1      -8.247   7.758  72.389  1.00  0.00    -0.121 C  
HETATM    2  O   UNL     1      -9.461   7.652  71.661  1.00  0.00    -0.145 OA 
ENDROOT
BRANCH   2   3
HETATM    3  C   UNL     1      -9.849   8.796  71.002  1.00  0.00    -0.230 A  
HETATM    4  N   UNL     1     -10.684   9.651  71.656  1.00  0.00    -0.116 NA 
HETATM    5  C   UNL     1     -10.921  10.856  71.116  1.00  0.00     1.489 A  
HETATM    6  C   UNL     1     -10.262  11.281  69.949  1.00  0.00     0.638 A  
HETATM    7  C   UNL     1     -10.455  12.561  69.410  1.00  0.00     0.320 A  
HETATM    8  C   UNL     1      -9.423  10.376  69.307  1.00  0.00    -0.214 A  
HETATM    9  C   UNL     1     -11.329  13.441  70.030  1.00  0.00     0.061 A  
HETATM   10  C   UNL     1      -9.277   9.055  69.751  1.00  0.00    -0.172 A  
HETATM   11  C   UNL     1     -12.034  13.035  71.158  1.00  0.00     0.282 A  
HETATM   12 BR   UNL     1     -11.537  15.186  69.342  1.00  0.00    -0.370 Br 
HETATM   13  C   UNL     1      -8.534   7.997  68.874  1.00  0.00    -0.131 C  
HETATM   14  C   UNL     1     -11.827  11.751  71.684  1.00  0.00     1.413 A  
HETATM   15  C   UNL     1      -8.930   6.538  69.191  1.00  0.00    -0.130 A  
HETATM   16  C   UNL     1      -8.350   8.385  67.280  1.00  0.00    -0.123 C  
HETATM   17  O   UNL     1      -7.372   9.490  67.276  1.00  0.00    -0.086 OA 
HETATM   18  C   UNL     1      -7.573   7.303  66.453  1.00  0.00    -0.092 C  
HETATM   19  C   UNL     1      -9.574   8.992  66.498  1.00  0.00    -0.286 A  
HETATM   20  C   UNL     1     -10.212   6.009  68.970  1.00  0.00    -0.245 A  
HETATM   21  C   UNL     1     -10.534  11.275  63.638  1.00  0.00    -0.464 A  
HETATM   22  C   UNL     1     -10.866   8.904  67.060  1.00  0.00    -0.039 A  
HETATM   23  C   UNL     1     -10.575   4.748  69.454  1.00  0.00     0.373 A  
HETATM   24  H   UNL     1      -7.266   9.713  66.359  1.00  0.00     0.000 HD 
HETATM   25  C   UNL     1     -11.968   9.595  66.562  1.00  0.00     5.018 A  
HETATM   26  C   UNL     1      -9.343  11.449  62.947  1.00  0.00    -0.351 A  
HETATM   27  C   UNL     1      -9.656   3.975  70.152  1.00  0.00    -0.270 A  
HETATM   28  C   UNL     1     -11.831  10.376  65.433  1.00  0.00     3.180 A  
HETATM   29  C   UNL     1      -8.363   4.447  70.338  1.00  0.00    -0.086 A  
HETATM   30  C   UNL     1      -8.195  10.837  63.416  1.00  0.00     0.038 A  
HETATM   31  C   UNL     1      -8.249  10.043  64.570  1.00  0.00    -0.164 A  
HETATM   32  C   UNL     1      -8.000   5.712  69.860  1.00  0.00    -0.095 A  
HETATM   33  C   UNL     1     -10.600  10.468  64.787  1.00  0.00    -0.079 A  
HETATM   34  C   UNL     1      -9.445   9.796  65.298  1.00  0.00    -0.343 A  
BRANCH  18  35
HETATM   35  C   UNL     1      -8.239   5.959  66.141  1.00  0.00    -0.116 C  
BRANCH  35  36
HETATM   36  N   UNL     1      -7.956   5.484  64.761  1.00  0.00    -0.107 NA 
HETATM   37  C   UNL     1      -7.828   4.027  64.671  1.00  0.00    -0.085 C  
HETATM   38  C   UNL     1      -6.715   6.100  64.276  1.00  0.00    -0.038 C  
ENDBRANCH  35  36
ENDBRANCH  18  35
ENDBRANCH   2   3
TORSDOF 3
ENDMDL
MODEL       75
REMARK 921   NORMALIZED FREE ENERGY PREDICTED BY IDOCK:    9.57 KCAL/MOL
REMARK 922        TOTAL FREE ENERGY PREDICTED BY IDOCK:   10.47 KCAL/MOL
REMARK 923 INTER-LIGAND FREE ENERGY PREDICTED BY IDOCK:    9.29 KCAL/MOL
REMARK 924 INTRA-LIGAND FREE ENERGY PREDICTED BY IDOCK:    1.18 KCAL/MOL
REMARK 927      BINDING AFFINITY PREDICTED BY RF-SCORE:    0.00 PKD
ROOT
HETATM    1  C   UNL     1      -5.175   9.780  64.302  1.00  0.00    -0.066 C  
HETATM    2  O   UNL     1      -6.573   9.955  64.480  1.00  0.00    -0.111 OA 
ENDROOT
BRANCH   2   3
HETATM    3  C   UNL     1      -7.258   8.829  64.873  1.00  0.00    -0.084 A  
HETATM    4  N   UNL     1      -7.805   8.049  63.900  1.00  0.00    -0.138 NA 
HETATM    5  C   UNL     1      -8.308   6.853  64.242  1.00  0.00     0.143 A  
HETATM    6  C   UNL     1      -8.200   6.359  65.555  1.00  0.00    -0.142 A  
HETATM    7  C   UNL     1      -8.667   5.086  65.910  1.00  0.00    -0.131 A  
HETATM    8  C   UNL     1      -7.641   7.189  66.521  1.00  0.00    -0.092 A  
HETATM    9  C   UNL     1      -9.265   4.282  64.951  1.00  0.00    -0.156 A  
HETATM   10  C   UNL     1      -7.253   8.505  66.235  1.00  0.00    -0.078 A  
HETATM   11  C   UNL     1      -9.432   4.760  63.657  1.00  0.00     0.164 A  
HETATM   12 BR   UNL     1      -9.832   2.543  65.416  1.00  0.00     0.540 Br 
HETATM   13  C   UNL     1      -6.867   9.490  67.385  1.00  0.00    -0.083 C  
HETATM   14  C   UNL     1      -8.958   6.037  63.318  1.00  0.00     0.667 A  
HETATM   15  C   UNL     1      -7.019  10.979  67.005  1.00  0.00    -0.117 A  
HETATM   16  C   UNL     1      -7.364   9.057  68.899  1.00  0.00    -0.074 C  
HETATM   17  O   UNL     1      -6.535   7.886  69.243  1.00  0.00    -0.035 OA 
HETATM   18  C   UNL     1      -6.925  10.065  70.018  1.00  0.00    -0.135 C  
HETATM   19  C   UNL     1      -8.832   8.523  69.096  1.00  0.00    -0.142 A  
HETATM   20  C   UNL     1      -8.249  11.593  66.719  1.00  0.00    -0.161 A  
HETATM   21  C   UNL     1     -10.991   6.257  71.221  1.00  0.00    -0.330 A  
HETATM   22  C   UNL     1      -9.780   8.714  68.069  1.00  0.00    -0.184 A  
HETATM   23  C   UNL     1      -8.313  12.886  66.190  1.00  0.00     0.837 A  
HETATM   24  H   UNL     1      -6.820   7.637  70.114  1.00  0.00     0.000 HD 
HETATM   25  C   UNL     1     -11.027   8.093  68.050  1.00  0.00     0.122 A  
HETATM   26  C   UNL     1     -10.190   5.984  72.322  1.00  0.00    -0.215 A  
HETATM   27  C   UNL     1      -7.149  13.606  65.955  1.00  0.00     4.642 A  
HETATM   28  C   UNL     1     -11.401   7.282  69.101  1.00  0.00     0.172 A  
HETATM   29  C   UNL     1      -5.919  13.047  66.281  1.00  0.00     3.198 A  
HETATM   30  C   UNL     1      -8.918   6.523  72.382  1.00  0.00    -0.133 A  
HETATM   31  C   UNL     1      -8.458   7.342  71.341  1.00  0.00    -0.113 A  
HETATM   32  C   UNL     1      -5.853  11.750  66.804  1.00  0.00    -0.110 A  
HETATM   33  C   UNL     1     -10.542   7.089  70.182  1.00  0.00    -0.249 A  
HETATM   34  C   UNL     1      -9.243   7.688  70.208  1.00  0.00    -0.157 A  
BRANCH  18  35
HETATM   35  C   UNL     1      -7.583  11.445  70.100  1.00  0.00     1.402 C  
BRANCH  35  36
HETATM   36  N   UNL     1      -6.699  12.533  69.604  1.00  0.00     0.006 NA 
HETATM   37  C   UNL     1      -5.274  12.198  69.691  1.00  0.00    -0.073 C  
HETATM   38  C   UNL     1      -6.947  13.756  70.376  1.00  0.00     0.705 C  
ENDBRANCH  35  36
ENDBRANCH  18  35
ENDBRANCH   2   3
TORSDOF 3
ENDMDL
MODEL       76
REMARK 921   NORMALIZED FREE ENERGY PREDICTED BY IDOCK:    9.93 KCAL/MOL
REMARK 922        TOTAL FREE ENERGY PREDICTED BY IDOCK:   10.89 KCAL/MOL
REMARK 923 INTER-LIGAND FREE ENERGY PREDICTED BY IDOCK:   11.38 KCAL/MOL
REMARK 924 INTRA-LIGAND FREE ENERGY PREDICTED BY IDOCK:   -0.49 KCAL/MOL
REMARK 927      BINDING AFFINITY PREDICTED BY RF-SCORE:    0.00 PKD
ROOT
HETATM    1  C   UNL     1     -12.712  12.616  66.935  1.00  0.00     1.463 C  
HETATM    2  O   UNL     1     -11.325  12.880  66.787  1.00  0.00    -0.292 OA 
ENDROOT
BRANCH   2   3
HETATM    3  C   UNL     1     -11.001  14.199  66.563  1.00  0.00    -0.309 A  
HETATM    4  N   UNL     1     -11.543  14.807  65.472  1.00  0.00    -0.330 NA 
HETATM    5  C   UNL     1     -11.400  16.135  65.339  1.00  0.00     0.134 A  
HETATM    6  C   UNL     1     -10.786  16.911  66.338  1.00  0.00    -0.085 A  
HETATM    7  C   UNL     1     -10.685  18.306  66.238  1.00  0.00    -0.182 A  
HETATM    8  C   UNL     1     -10.238  16.251  67.433  1.00  0.00    -0.275 A  
HETATM    9  C   UNL     1     -11.192  18.952  65.121  1.00  0.00     1.454 A  
HETATM   10  C   UNL     1     -10.226  14.853  67.528  1.00  0.00    -0.233 A  
HETATM   11  C   UNL     1     -11.761  18.210  64.092  1.00  0.00     6.378 A  
HETATM   12 BR   UNL     1     -11.115  20.835  65.019  1.00  0.00     2.163 Br 
HETATM   13  C   UNL     1      -9.388  14.137  68.635  1.00  0.00    -0.152 C  
HETATM   14  C   UNL     1     -11.854  16.814  64.209  1.00  0.00     1.181 A  
HETATM   15  C   UNL     1      -9.015  12.679  68.286  1.00  0.00    -0.176 A  
HETATM   16  C   UNL     1      -8.215  15.050  69.353  1.00  0.00    -0.147 C  
HETATM   17  O   UNL     1      -8.954  16.041  70.158  1.00  0.00     0.463 OA 
HETATM   18  C   UNL     1      -7.424  14.292  70.475  1.00  0.00     1.201 C  
HETATM   19  C   UNL     1      -7.288  15.947  68.450  1.00  0.00    -0.125 A  
HETATM   20  C   UNL     1      -8.163  12.319  67.229  1.00  0.00    -0.182 A  
HETATM   21  C   UNL     1      -5.240  19.128  68.397  1.00  0.00    -0.188 A  
HETATM   22  C   UNL     1      -7.258  15.726  67.056  1.00  0.00    -0.208 A  
HETATM   23  C   UNL     1      -8.015  10.986  66.832  1.00  0.00    -0.143 A  
HETATM   24  H   UNL     1      -8.280  16.566  70.571  1.00  0.00     0.000 HD 
HETATM   25  C   UNL     1      -6.652  16.597  66.154  1.00  0.00     0.569 A  
HETATM   26  C   UNL     1      -5.152  19.479  69.738  1.00  0.00    -0.203 A  
HETATM   27  C   UNL     1      -8.698   9.977  67.498  1.00  0.00    -0.125 A  
HETATM   28  C   UNL     1      -5.996  17.717  66.622  1.00  0.00    -0.217 A  
HETATM   29  C   UNL     1      -9.504  10.295  68.584  1.00  0.00    -0.169 A  
HETATM   30  C   UNL     1      -5.777  18.690  70.685  1.00  0.00    -0.123 A  
HETATM   31  C   UNL     1      -6.481  17.545  70.285  1.00  0.00     0.574 A  
HETATM   32  C   UNL     1      -9.659  11.630  68.978  1.00  0.00     0.095 A  
HETATM   33  C   UNL     1      -5.931  17.974  67.990  1.00  0.00    -0.163 A  
HETATM   34  C   UNL     1      -6.576  17.113  68.934  1.00  0.00    -0.199 A  
BRANCH  18  35
HETATM   35  C   UNL     1      -6.447  13.174  70.097  1.00  0.00     0.145 C  
BRANCH  35  36
HETATM   36  N   UNL     1      -6.009  12.373  71.270  1.00  0.00    -0.114 NA 
HETATM   37  C   UNL     1      -5.233  13.154  72.239  1.00  0.00     0.019 C  
HETATM   38  C   UNL     1      -5.194  11.241  70.812  1.00  0.00    -0.119 C  
ENDBRANCH  35  36
ENDBRANCH  18  35
ENDBRANCH   2   3
TORSDOF 3
ENDMDL
MODEL       77
REMARK 921   NORMALIZED FREE ENERGY PREDICTED BY IDOCK:   10.01 KCAL/MOL
REMARK 922        TOTAL FREE ENERGY PREDICTED BY IDOCK:   10.98 KCAL/MOL
REMARK 923 INTER-LIGAND FREE ENERGY PREDICTED BY IDOCK:   11.03 KCAL/MOL
REMARK 924 INTRA-LIGAND FREE ENERGY PREDICTED BY IDOCK:   -0.04 KCAL/MOL
REMARK 927      BINDING AFFINITY PREDICTED BY RF-SCORE:    0.00 PKD
ROOT
HETATM    1  C   UNL     1     -10.269  14.871  69.790  1.00  0.00    -0.042 C  
HETATM    2  O   UNL     1     -10.886  13.593  69.729  1.00  0.00     0.045 OA 
ENDROOT
BRANCH   2   3
HETATM    3  C   UNL     1     -10.352  12.731  68.800  1.00  0.00    -0.117 A  
HETATM    4  N   UNL     1     -10.137  13.208  67.543  1.00  0.00    -0.220 NA 
HETATM    5  C   UNL     1      -9.445  12.452  66.678  1.00  0.00    -0.232 A  
HETATM    6  C   UNL     1      -8.867  11.230  67.069  1.00  0.00    -0.153 A  
HETATM    7  C   UNL     1      -8.090  10.461  66.191  1.00  0.00    -0.139 A  
HETATM    8  C   UNL     1      -9.117  10.774  68.359  1.00  0.00    -0.164 A  
HETATM    9  C   UNL     1      -7.885  10.901  64.892  1.00  0.00     0.269 A  
HETATM   10  C   UNL     1      -9.968  11.457  69.237  1.00  0.00     0.086 A  
HETATM   11  C   UNL     1      -8.482  12.079  64.459  1.00  0.00     1.663 A  
HETATM   12 BR   UNL     1      -6.783   9.898  63.733  1.00  0.00    -0.128 Br 
HETATM   13  C   UNL     1     -10.427  10.798  70.577  1.00  0.00     0.713 C  
HETATM   14  C   UNL     1      -9.257  12.836  65.351  1.00  0.00     0.442 A  
HETATM   15  C   UNL     1     -11.745  11.378  71.136  1.00  0.00     0.449 A  
HETATM   16  C   UNL     1     -10.238   9.161  70.674  1.00  0.00    -0.246 C  
HETATM   17  O   UNL     1      -8.778   8.958  70.747  1.00  0.00    -0.166 OA 
HETATM   18  C   UNL     1     -10.687   8.555  72.049  1.00  0.00    -0.410 C  
HETATM   19  C   UNL     1     -10.660   8.271  69.446  1.00  0.00    -0.203 A  
HETATM   20  C   UNL     1     -12.990  11.251  70.498  1.00  0.00    -0.056 A  
HETATM   21  C   UNL     1      -9.928   5.029  67.638  1.00  0.00    -0.202 A  
HETATM   22  C   UNL     1     -11.465   8.830  68.431  1.00  0.00     0.970 A  
HETATM   23  C   UNL     1     -14.112  11.959  70.940  1.00  0.00     3.118 A  
HETATM   24  H   UNL     1      -8.670   8.016  70.803  1.00  0.00     0.000 HD 
HETATM   25  C   UNL     1     -11.705   8.205  67.209  1.00  0.00     2.826 A  
HETATM   26  C   UNL     1      -9.138   4.326  68.537  1.00  0.00    -0.175 A  
HETATM   27  C   UNL     1     -14.022  12.795  72.045  1.00  0.00    -0.044 A  
HETATM   28  C   UNL     1     -11.181   6.952  66.970  1.00  0.00    -0.155 A  
HETATM   29  C   UNL     1     -12.818  12.899  72.731  1.00  0.00     0.673 A  
HETATM   30  C   UNL     1      -8.813   4.908  69.749  1.00  0.00    -0.129 A  
HETATM   31  C   UNL     1      -9.291   6.190  70.057  1.00  0.00    -0.166 A  
HETATM   32  C   UNL     1     -11.693  12.195  72.286  1.00  0.00     4.176 A  
HETATM   33  C   UNL     1     -10.423   6.308  67.946  1.00  0.00    -0.285 A  
HETATM   34  C   UNL     1     -10.134   6.943  69.195  1.00  0.00    -0.180 A  
BRANCH  18  35
HETATM   35  C   UNL     1     -12.176   8.494  72.405  1.00  0.00    -0.366 C  
BRANCH  35  36
HETATM   36  N   UNL     1     -12.771   7.154  72.160  1.00  0.00    -0.163 NA 
HETATM   37  C   UNL     1     -11.764   6.108  71.957  1.00  0.00    -0.299 C  
HETATM   38  C   UNL     1     -13.638   7.213  70.977  1.00  0.00     0.038 C  
ENDBRANCH  35  36
ENDBRANCH  18  35
ENDBRANCH   2   3
TORSDOF 3
ENDMDL
MODEL       78
REMARK 921   NORMALIZED FREE ENERGY PREDICTED BY IDOCK:   10.21 KCAL/MOL
REMARK 922        TOTAL FREE ENERGY PREDICTED BY IDOCK:   11.22 KCAL/MOL
REMARK 923 INTER-LIGAND FREE ENERGY PREDICTED BY IDOCK:   -2.74 KCAL/MOL
REMARK 924 INTRA-LIGAND FREE ENERGY PREDICTED BY IDOCK:   13.96 KCAL/MOL
REMARK 927      BINDING AFFINITY PREDICTED BY RF-SCORE:    0.00 PKD
ROOT
HETATM    1  C   UNL     1      -8.504   7.185  71.711  1.00  0.00    -0.113 C  
HETATM    2  O   UNL     1      -9.000   5.883  71.433  1.00  0.00    -0.139 OA 
ENDROOT
BRANCH   2   3
HETATM    3  C   UNL     1      -8.923   5.497  70.115  1.00  0.00    -0.136 A  
HETATM    4  N   UNL     1      -9.090   4.176  69.831  1.00  0.00    -0.100 NA 
HETATM    5  C   UNL     1      -9.211   3.805  68.547  1.00  0.00    -0.156 A  
HETATM    6  C   UNL     1      -9.257   4.754  67.509  1.00  0.00    -0.142 A  
HETATM    7  C   UNL     1      -9.445   4.382  66.171  1.00  0.00    -0.175 A  
HETATM    8  C   UNL     1      -9.074   6.092  67.840  1.00  0.00    -0.117 A  
HETATM    9  C   UNL     1      -9.580   3.041  65.843  1.00  0.00     0.080 A  
HETATM   10  C   UNL     1      -8.784   6.501  69.149  1.00  0.00    -0.129 A  
HETATM   11  C   UNL     1      -9.489   2.075  66.839  1.00  0.00     0.145 A  
HETATM   12 BR   UNL     1      -9.899   2.548  64.050  1.00  0.00    -0.112 Br 
HETATM   13  C   UNL     1      -8.337   7.968  69.444  1.00  0.00    -0.131 C  
HETATM   14  C   UNL     1      -9.302   2.465  68.174  1.00  0.00    -0.263 A  
HETATM   15  C   UNL     1      -7.533   8.121  70.754  1.00  0.00    -0.066 A  
HETATM   16  C   UNL     1      -7.805   8.835  68.143  1.00  0.00    -0.102 C  
HETATM   17  O   UNL     1      -9.015   9.068  67.332  1.00  0.00    -0.124 OA 
HETATM   18  C   UNL     1      -7.397  10.308  68.491  1.00  0.00    -0.082 C  
HETATM   19  C   UNL     1      -6.820   8.150  67.124  1.00  0.00    -0.070 A  
HETATM   20  C   UNL     1      -6.264   7.556  70.965  1.00  0.00    -0.035 A  
HETATM   21  C   UNL     1      -5.717   8.120  63.505  1.00  0.00    -0.062 A  
HETATM   22  C   UNL     1      -6.170   6.952  67.489  1.00  0.00    -0.037 A  
HETATM   23  C   UNL     1      -5.666   7.556  72.229  1.00  0.00    -0.036 A  
HETATM   24  H   UNL     1      -8.710   9.566  66.583  1.00  0.00     0.000 HD 
HETATM   25  C   UNL     1      -5.462   6.158  66.589  1.00  0.00    -0.012 A  
HETATM   26  C   UNL     1      -6.270   9.283  62.987  1.00  0.00    -0.090 A  
HETATM   27  C   UNL     1      -6.313   8.140  73.310  1.00  0.00    -0.101 A  
HETATM   28  C   UNL     1      -5.331   6.564  65.278  1.00  0.00    -0.021 A  
HETATM   29  C   UNL     1      -7.544   8.756  73.122  1.00  0.00     0.187 A  
HETATM   30  C   UNL     1      -7.032  10.093  63.809  1.00  0.00    -0.105 A  
HETATM   31  C   UNL     1      -7.228   9.737  65.151  1.00  0.00    -0.122 A  
HETATM   32  C   UNL     1      -8.147   8.752  71.858  1.00  0.00    -0.090 A  
HETATM   33  C   UNL     1      -5.896   7.765  64.853  1.00  0.00    -0.038 A  
HETATM   34  C   UNL     1      -6.657   8.580  65.749  1.00  0.00    -0.056 A  
BRANCH  18  35
HETATM   35  C   UNL     1      -6.125  10.575  69.301  1.00  0.00    -0.039 C  
BRANCH  35  36
HETATM   36  N   UNL     1      -6.052  11.969  69.813  1.00  0.00    -0.132 NA 
HETATM   37  C   UNL     1      -5.175  12.828  69.011  1.00  0.00    -0.067 C  
HETATM   38  C   UNL     1      -5.566  11.957  71.198  1.00  0.00     0.050 C  
ENDBRANCH  35  36
ENDBRANCH  18  35
ENDBRANCH   2   3
TORSDOF 3
ENDMDL
MODEL       79
REMARK 921   NORMALIZED FREE ENERGY PREDICTED BY IDOCK:   10.69 KCAL/MOL
REMARK 922        TOTAL FREE ENERGY PREDICTED BY IDOCK:   11.79 KCAL/MOL
REMARK 923 INTER-LIGAND FREE ENERGY PREDICTED BY IDOCK:    6.58 KCAL/MOL
REMARK 924 INTRA-LIGAND FREE ENERGY PREDICTED BY IDOCK:    5.21 KCAL/MOL
REMARK 927      BINDING AFFINITY PREDICTED BY RF-SCORE:    0.00 PKD
ROOT
HETATM    1  C   UNL     1     -11.747  11.068  65.882  1.00  0.00     1.016 C  
HETATM    2  O   UNL     1     -11.252  11.588  67.107  1.00  0.00    -0.280 OA 
ENDROOT
BRANCH   2   3
HETATM    3  C   UNL     1     -11.154  10.676  68.132  1.00  0.00    -0.285 A  
HETATM    4  N   UNL     1     -11.387  11.118  69.399  1.00  0.00    -0.257 NA 
HETATM    5  C   UNL     1     -11.486  10.216  70.387  1.00  0.00    -0.322 A  
HETATM    6  C   UNL     1     -11.444   8.835  70.127  1.00  0.00    -0.027 A  
HETATM    7  C   UNL     1     -11.609   7.882  71.143  1.00  0.00    -0.302 A  
HETATM    8  C   UNL     1     -11.197   8.423  68.821  1.00  0.00     0.455 A  
HETATM    9  C   UNL     1     -11.808   8.301  72.449  1.00  0.00    -0.396 A  
HETATM   10  C   UNL     1     -10.927   9.336  67.793  1.00  0.00    -0.072 A  
HETATM   11  C   UNL     1     -11.806   9.658  72.748  1.00  0.00     1.627 A  
HETATM   12 BR   UNL     1     -12.096   7.019  73.804  1.00  0.00     3.707 Br 
HETATM   13  C   UNL     1     -10.407   8.843  66.405  1.00  0.00    -0.189 C  
HETATM   14  C   UNL     1     -11.641  10.598  71.718  1.00  0.00     0.995 A  
HETATM   15  C   UNL     1      -9.639   9.921  65.610  1.00  0.00    -0.320 A  
HETATM   16  C   UNL     1      -9.785   7.314  66.372  1.00  0.00    -0.079 C  
HETATM   17  O   UNL     1     -10.952   6.432  66.565  1.00  0.00    -0.581 OA 
HETATM   18  C   UNL     1      -9.305   6.859  64.950  1.00  0.00     1.206 C  
HETATM   19  C   UNL     1      -8.807   6.864  67.522  1.00  0.00    -0.118 A  
HETATM   20  C   UNL     1      -8.412  10.470  66.017  1.00  0.00    -0.157 A  
HETATM   21  C   UNL     1      -7.589   3.872  69.489  1.00  0.00    -0.053 A  
HETATM   22  C   UNL     1      -8.238   7.841  68.367  1.00  0.00    -0.124 A  
HETATM   23  C   UNL     1      -7.857  11.578  65.370  1.00  0.00     0.756 A  
HETATM   24  H   UNL     1     -10.594   5.553  66.546  1.00  0.00     0.000 HD 
HETATM   25  C   UNL     1      -7.548   7.535  69.537  1.00  0.00    -0.095 A  
HETATM   26  C   UNL     1      -8.058   2.789  68.758  1.00  0.00    -0.069 A  
HETATM   27  C   UNL     1      -8.505  12.152  64.284  1.00  0.00     2.031 A  
HETATM   28  C   UNL     1      -7.350   6.216  69.888  1.00  0.00    -0.079 A  
HETATM   29  C   UNL     1      -9.692  11.597  63.822  1.00  0.00    -0.276 A  
HETATM   30  C   UNL     1      -8.799   3.018  67.613  1.00  0.00    -0.160 A  
HETATM   31  C   UNL     1      -9.059   4.333  67.202  1.00  0.00    -0.150 A  
HETATM   32  C   UNL     1     -10.252  10.491  64.473  1.00  0.00    -0.355 A  
HETATM   33  C   UNL     1      -7.832   5.192  69.075  1.00  0.00    -0.081 A  
HETATM   34  C   UNL     1      -8.575   5.480  67.887  1.00  0.00    -0.104 A  
BRANCH  18  35
HETATM   35  C   UNL     1      -8.047   7.480  64.336  1.00  0.00    -0.074 C  
BRANCH  35  36
HETATM   36  N   UNL     1      -7.296   6.526  63.477  1.00  0.00    -0.061 NA 
HETATM   37  C   UNL     1      -8.110   5.969  62.393  1.00  0.00    -0.101 C  
HETATM   38  C   UNL     1      -6.785   5.424  64.301  1.00  0.00    -0.046 C  
ENDBRANCH  35  36
ENDBRANCH  18  35
ENDBRANCH   2   3
TORSDOF 3
ENDMDL
MODEL       80
REMARK 921   NORMALIZED FREE ENERGY PREDICTED BY IDOCK:   11.91 KCAL/MOL
REMARK 922        TOTAL FREE ENERGY PREDICTED BY IDOCK:   13.22 KCAL/MOL
REMARK 923 INTER-LIGAND FREE ENERGY PREDICTED BY IDOCK:   12.32 KCAL/MOL
REMARK 924 INTRA-LIGAND FREE ENERGY PREDICTED BY IDOCK:    0.90 KCAL/MOL
REMARK 927      BINDING AFFINITY PREDICTED BY RF-SCORE:    0.00 PKD
ROOT
HETATM    1  C   UNL     1      -9.721  16.260  64.386  1.00  0.00     3.411 C  
HETATM    2  O   UNL     1      -8.925  15.791  65.465  1.00  0.00    -0.146 OA 
ENDROOT
BRANCH   2   3
HETATM    3  C   UNL     1      -9.511  14.820  66.243  1.00  0.00    -0.303 A  
HETATM    4  N   UNL     1      -9.848  13.645  65.643  1.00  0.00    -0.223 NA 
HETATM    5  C   UNL     1     -10.239  12.618  66.413  1.00  0.00    -0.251 A  
HETATM    6  C   UNL     1     -10.222  12.705  67.817  1.00  0.00    -0.222 A  
HETATM    7  C   UNL     1     -10.570  11.619  68.632  1.00  0.00    -0.236 A  
HETATM    8  C   UNL     1      -9.880  13.925  68.391  1.00  0.00    -0.229 A  
HETATM    9  C   UNL     1     -10.956  10.421  68.052  1.00  0.00    -0.291 A  
HETATM   10  C   UNL     1      -9.622  15.064  67.617  1.00  0.00    -0.203 A  
HETATM   11  C   UNL     1     -11.031  10.317  66.667  1.00  0.00    -0.030 A  
HETATM   12 BR   UNL     1     -11.360   8.940  69.150  1.00  0.00     0.522 Br 
HETATM   13  C   UNL     1      -9.489  16.469  68.287  1.00  0.00    -0.220 C  
HETATM   14  C   UNL     1     -10.678  11.414  65.866  1.00  0.00    -0.311 A  
HETATM   15  C   UNL     1      -9.773  17.645  67.327  1.00  0.00    -0.284 A  
HETATM   16  C   UNL     1     -10.099  16.598  69.816  1.00  0.00     0.042 C  
HETATM   17  O   UNL     1      -9.180  15.801  70.652  1.00  0.00     0.824 OA 
HETATM   18  C   UNL     1      -9.913  18.019  70.451  1.00  0.00     1.935 C  
HETATM   19  C   UNL     1     -11.505  15.964  70.131  1.00  0.00    -0.366 A  
HETATM   20  C   UNL     1     -11.028  17.898  66.747  1.00  0.00     0.149 A  
HETATM   21  C   UNL     1     -13.605  14.415  72.871  1.00  0.00    -0.420 A  
HETATM   22  C   UNL     1     -12.347  15.585  69.064  1.00  0.00    -0.016 A  
HETATM   23  C   UNL     1     -11.186  18.851  65.736  1.00  0.00     0.599 A  
HETATM   24  H   UNL     1      -9.530  15.875  71.531  1.00  0.00     0.000 HD 
HETATM   25  C   UNL     1     -13.500  14.821  69.230  1.00  0.00     2.448 A  
HETATM   26  C   UNL     1     -12.907  14.726  74.030  1.00  0.00     0.127 A  
HETATM   27  C   UNL     1     -10.097  19.590  65.294  1.00  0.00     0.666 A  
HETATM   28  C   UNL     1     -13.891  14.443  70.498  1.00  0.00     0.580 A  
HETATM   29  C   UNL     1      -8.854  19.403  65.887  1.00  0.00    -0.016 A  
HETATM   30  C   UNL     1     -11.723  15.435  73.936  1.00  0.00    -0.118 A  
HETATM   31  C   UNL     1     -11.249  15.837  72.679  1.00  0.00     0.177 A  
HETATM   32  C   UNL     1      -8.693  18.445  66.895  1.00  0.00    -0.275 A  
HETATM   33  C   UNL     1     -13.144  14.828  71.609  1.00  0.00    -0.418 A  
HETATM   34  C   UNL     1     -11.937  15.582  71.462  1.00  0.00    -0.463 A  
BRANCH  18  35
HETATM   35  C   UNL     1     -10.736  19.200  69.928  1.00  0.00     1.690 C  
BRANCH  35  36
HETATM   36  N   UNL     1     -10.012  20.495  70.029  1.00  0.00     0.557 NA 
HETATM   37  C   UNL     1      -8.812  20.547  69.188  1.00  0.00     1.084 C  
HETATM   38  C   UNL     1      -9.622  20.731  71.425  1.00  0.00     2.552 C  
ENDBRANCH  35  36
ENDBRANCH  18  35
ENDBRANCH   2   3
TORSDOF 3
ENDMDL
MODEL       81
REMARK 921   NORMALIZED FREE ENERGY PREDICTED BY IDOCK:   12.01 KCAL/MOL
REMARK 922        TOTAL FREE ENERGY PREDICTED BY IDOCK:   13.34 KCAL/MOL
REMARK 923 INTER-LIGAND FREE ENERGY PREDICTED BY IDOCK:    4.35 KCAL/MOL
REMARK 924 INTRA-LIGAND FREE ENERGY PREDICTED BY IDOCK:    8.98 KCAL/MOL
REMARK 927      BINDING AFFINITY PREDICTED BY RF-SCORE:    0.00 PKD
ROOT
HETATM    1  C   UNL     1      -7.811  11.196  71.360  1.00  0.00     6.592 C  
HETATM    2  O   UNL     1      -7.996  10.394  70.203  1.00  0.00    -0.062 OA 
ENDROOT
BRANCH   2   3
HETATM    3  C   UNL     1      -7.583   9.088  70.325  1.00  0.00    -0.087 A  
HETATM    4  N   UNL     1      -6.807   8.767  71.397  1.00  0.00    -0.078 NA 
HETATM    5  C   UNL     1      -6.553   7.472  71.642  1.00  0.00    -0.042 A  
HETATM    6  C   UNL     1      -7.140   6.450  70.874  1.00  0.00    -0.070 A  
HETATM    7  C   UNL     1      -6.931   5.094  71.158  1.00  0.00    -0.051 A  
HETATM    8  C   UNL     1      -7.920   6.820  69.783  1.00  0.00    -0.124 A  
HETATM    9  C   UNL     1      -6.114   4.733  72.219  1.00  0.00    -0.021 A  
HETATM   10  C   UNL     1      -8.075   8.159  69.400  1.00  0.00    -0.116 A  
HETATM   11  C   UNL     1      -5.479   5.718  72.968  1.00  0.00    -0.027 A  
HETATM   12 BR   UNL     1      -5.887   2.908  72.642  1.00  0.00    -0.009 Br 
HETATM   13  C   UNL     1      -8.742   8.525  68.036  1.00  0.00    -0.142 C  
HETATM   14  C   UNL     1      -5.700   7.071  72.669  1.00  0.00    -0.038 A  
HETATM   15  C   UNL     1      -8.345   9.920  67.505  1.00  0.00    -0.114 A  
HETATM   16  C   UNL     1      -8.825   7.307  66.925  1.00  0.00    -0.132 C  
HETATM   17  O   UNL     1      -9.818   6.365  67.479  1.00  0.00    -0.117 OA 
HETATM   18  C   UNL     1      -9.529   7.720  65.586  1.00  0.00     0.294 C  
HETATM   19  C   UNL     1      -7.561   6.396  66.697  1.00  0.00    -0.094 A  
HETATM   20  C   UNL     1      -7.043  10.266  67.108  1.00  0.00    -0.089 A  
HETATM   21  C   UNL     1      -6.448   2.928  65.676  1.00  0.00    -0.032 A  
HETATM   22  C   UNL     1      -6.309   6.815  67.194  1.00  0.00    -0.041 A  
HETATM   23  C   UNL     1      -6.695  11.591  66.824  1.00  0.00    -0.121 A  
HETATM   24  H   UNL     1      -9.866   5.664  66.840  1.00  0.00     0.000 HD 
HETATM   25  C   UNL     1      -5.187   5.991  67.241  1.00  0.00    -0.005 A  
HETATM   26  C   UNL     1      -7.594   2.367  65.128  1.00  0.00    -0.075 A  
HETATM   27  C   UNL     1      -7.645  12.599  66.909  1.00  0.00     0.113 A  
HETATM   28  C   UNL     1      -5.260   4.709  66.737  1.00  0.00    -0.008 A  
HETATM   29  C   UNL     1      -8.955  12.280  67.245  1.00  0.00    -0.187 A  
HETATM   30  C   UNL     1      -8.761   3.108  65.099  1.00  0.00    -0.116 A  
HETATM   31  C   UNL     1      -8.771   4.414  65.610  1.00  0.00    -0.121 A  
HETATM   32  C   UNL     1      -9.305  10.956  67.535  1.00  0.00    -0.164 A  
HETATM   33  C   UNL     1      -6.447   4.240  66.177  1.00  0.00    -0.041 A  
HETATM   34  C   UNL     1      -7.623   5.055  66.149  1.00  0.00    -0.087 A  
BRANCH  18  35
HETATM   35  C   UNL     1      -8.823   8.674  64.618  1.00  0.00     0.050 C  
BRANCH  35  36
HETATM   36  N   UNL     1      -7.401   8.912  64.980  1.00  0.00    -0.094 NA 
HETATM   37  C   UNL     1      -7.088  10.331  65.172  1.00  0.00    -0.121 C  
HETATM   38  C   UNL     1      -6.532   8.373  63.927  1.00  0.00    -0.072 C  
ENDBRANCH  35  36
ENDBRANCH  18  35
ENDBRANCH   2   3
TORSDOF 3
ENDMDL
MODEL       82
REMARK 921   NORMALIZED FREE ENERGY PREDICTED BY IDOCK:   15.37 KCAL/MOL
REMARK 922        TOTAL FREE ENERGY PREDICTED BY IDOCK:   17.29 KCAL/MOL
REMARK 923 INTER-LIGAND FREE ENERGY PREDICTED BY IDOCK:   16.45 KCAL/MOL
REMARK 924 INTRA-LIGAND FREE ENERGY PREDICTED BY IDOCK:    0.83 KCAL/MOL
REMARK 927      BINDING AFFINITY PREDICTED BY RF-SCORE:    0.00 PKD
ROOT
HETATM    1  C   UNL     1      -5.986  13.792  66.843  1.00  0.00     1.578 C  
HETATM    2  O   UNL     1      -6.036  13.342  68.189  1.00  0.00    -0.083 OA 
ENDROOT
BRANCH   2   3
HETATM    3  C   UNL     1      -6.438  12.036  68.353  1.00  0.00    -0.055 A  
HETATM    4  N   UNL     1      -5.642  11.059  67.836  1.00  0.00    -0.043 NA 
HETATM    5  C   UNL     1      -5.908   9.782  68.147  1.00  0.00    -0.039 A  
HETATM    6  C   UNL     1      -6.926   9.444  69.057  1.00  0.00    -0.059 A  
HETATM    7  C   UNL     1      -7.173   8.117  69.437  1.00  0.00    -0.067 A  
HETATM    8  C   UNL     1      -7.722  10.470  69.557  1.00  0.00    -0.141 A  
HETATM    9  C   UNL     1      -6.407   7.095  68.898  1.00  0.00    -0.032 A  
HETATM   10  C   UNL     1      -7.577  11.797  69.130  1.00  0.00     0.080 A  
HETATM   11  C   UNL     1      -5.425   7.390  67.959  1.00  0.00    -0.026 A  
HETATM   12 BR   UNL     1      -6.696   5.317  69.461  1.00  0.00    -0.053 Br 
HETATM   13  C   UNL     1      -8.639  12.877  69.513  1.00  0.00     1.534 C  
HETATM   14  C   UNL     1      -5.191   8.724  67.591  1.00  0.00    -0.034 A  
HETATM   15  C   UNL     1      -8.670  14.086  68.552  1.00  0.00    -0.156 A  
HETATM   16  C   UNL     1     -10.099  12.301  70.026  1.00  0.00     2.246 C  
HETATM   17  O   UNL     1      -9.820  11.702  71.346  1.00  0.00     6.317 OA 
HETATM   18  C   UNL     1     -11.116  13.426  70.424  1.00  0.00     0.791 C  
HETATM   19  C   UNL     1     -10.772  11.118  69.234  1.00  0.00    -0.241 A  
HETATM   20  C   UNL     1      -9.052  14.005  67.203  1.00  0.00    -0.239 A  
HETATM   21  C   UNL     1     -13.086   8.146  69.582  1.00  0.00     3.665 A  
HETATM   22  C   UNL     1     -10.293  10.786  67.949  1.00  0.00    -0.216 A  
HETATM   23  C   UNL     1      -8.875  15.081  66.328  1.00  0.00    -0.159 A  
HETATM   24  H   UNL     1     -10.659  11.371  71.641  1.00  0.00     0.000 HD 
HETATM   25  C   UNL     1     -10.665   9.630  67.267  1.00  0.00    -0.284 A  
HETATM   26  C   UNL     1     -13.675   8.336  70.825  1.00  0.00     0.451 A  
HETATM   27  C   UNL     1      -8.331  16.274  66.787  1.00  0.00    -0.289 A  
HETATM   28  C   UNL     1     -11.586   8.772  67.830  1.00  0.00     1.813 A  
HETATM   29  C   UNL     1      -7.996  16.405  68.129  1.00  0.00    -0.160 A  
HETATM   30  C   UNL     1     -13.311   9.434  71.584  1.00  0.00    -0.477 A  
HETATM   31  C   UNL     1     -12.366  10.342  71.087  1.00  0.00    -0.505 A  
HETATM   32  C   UNL     1      -8.167  15.326  69.004  1.00  0.00    -0.205 A  
HETATM   33  C   UNL     1     -12.149   9.060  69.071  1.00  0.00     1.964 A  
HETATM   34  C   UNL     1     -11.757  10.222  69.808  1.00  0.00    -0.261 A  
BRANCH  18  35
HETATM   35  C   UNL     1     -11.744  14.304  69.338  1.00  0.00    -0.316 C  
BRANCH  35  36
HETATM   36  N   UNL     1     -12.683  15.317  69.890  1.00  0.00    -0.169 NA 
HETATM   37  C   UNL     1     -12.059  16.193  70.886  1.00  0.00    -0.157 C  
HETATM   38  C   UNL     1     -13.828  14.638  70.507  1.00  0.00     0.485 C  
ENDBRANCH  35  36
ENDBRANCH  18  35
ENDBRANCH   2   3
TORSDOF 3
ENDMDL
MODEL       83
REMARK 921   NORMALIZED FREE ENERGY PREDICTED BY IDOCK:   16.16 KCAL/MOL
REMARK 922        TOTAL FREE ENERGY PREDICTED BY IDOCK:   18.22 KCAL/MOL
REMARK 923 INTER-LIGAND FREE ENERGY PREDICTED BY IDOCK:   16.47 KCAL/MOL
REMARK 924 INTRA-LIGAND FREE ENERGY PREDICTED BY IDOCK:    1.74 KCAL/MOL
REMARK 927      BINDING AFFINITY PREDICTED BY RF-SCORE:    0.00 PKD
ROOT
HETATM    1  C   UNL     1     -11.079  18.352  71.713  1.00  0.00     3.584 C  
HETATM    2  O   UNL     1      -9.794  17.857  71.367  1.00  0.00     4.441 OA 
ENDROOT
BRANCH   2   3
HETATM    3  C   UNL     1      -9.497  17.892  70.024  1.00  0.00     1.578 A  
HETATM    4  N   UNL     1      -9.435  19.111  69.421  1.00  0.00    -0.076 NA 
HETATM    5  C   UNL     1      -8.962  19.185  68.167  1.00  0.00    -0.322 A  
HETATM    6  C   UNL     1      -8.452  18.053  67.507  1.00  0.00    -0.237 A  
HETATM    7  C   UNL     1      -7.899  18.129  66.221  1.00  0.00    -0.280 A  
HETATM    8  C   UNL     1      -8.541  16.824  68.154  1.00  0.00    -0.218 A  
HETATM    9  C   UNL     1      -7.857  19.349  65.563  1.00  0.00     0.238 A  
HETATM   10  C   UNL     1      -9.175  16.683  69.395  1.00  0.00     0.040 A  
HETATM   11  C   UNL     1      -8.398  20.478  66.168  1.00  0.00     0.084 A  
HETATM   12 BR   UNL     1      -7.052  19.463  63.860  1.00  0.00     3.325 Br 
HETATM   13  C   UNL     1      -9.482  15.266  69.976  1.00  0.00     0.106 C  
HETATM   14  C   UNL     1      -8.947  20.384  67.456  1.00  0.00    -0.419 A  
HETATM   15  C   UNL     1     -10.634  15.252  71.005  1.00  0.00     0.089 A  
HETATM   16  C   UNL     1      -9.440  14.020  68.894  1.00  0.00     0.012 C  
HETATM   17  O   UNL     1      -8.013  13.877  68.545  1.00  0.00    -0.137 OA 
HETATM   18  C   UNL     1      -9.726  12.617  69.535  1.00  0.00     1.291 C  
HETATM   19  C   UNL     1     -10.132  14.205  67.492  1.00  0.00    -0.236 A  
HETATM   20  C   UNL     1     -11.969  15.552  70.690  1.00  0.00    -0.416 A  
HETATM   21  C   UNL     1     -10.008  13.129  63.867  1.00  0.00     0.516 A  
HETATM   22  C   UNL     1     -11.027  15.279  67.299  1.00  0.00    -0.327 A  
HETATM   23  C   UNL     1     -12.935  15.718  71.687  1.00  0.00    -0.509 A  
HETATM   24  H   UNL     1      -7.989  13.161  67.923  1.00  0.00     0.000 HD 
HETATM   25  C   UNL     1     -11.513  15.658  66.050  1.00  0.00     0.174 A  
HETATM   26  C   UNL     1      -9.159  12.031  63.883  1.00  0.00     0.523 A  
HETATM   27  C   UNL     1     -12.594  15.567  73.025  1.00  0.00    -0.557 A  
HETATM   28  C   UNL     1     -11.157  14.935  64.931  1.00  0.00    -0.424 A  
HETATM   29  C   UNL     1     -11.294  15.214  73.366  1.00  0.00     0.392 A  
HETATM   30  C   UNL     1      -8.595  11.631  65.080  1.00  0.00     0.576 A  
HETATM   31  C   UNL     1      -8.892  12.329  66.259  1.00  0.00    -0.010 A  
HETATM   32  C   UNL     1     -10.324  15.054  72.368  1.00  0.00     2.643 A  
HETATM   33  C   UNL     1     -10.323  13.825  65.047  1.00  0.00    -0.402 A  
HETATM   34  C   UNL     1      -9.782  13.436  66.313  1.00  0.00    -0.280 A  
BRANCH  18  35
HETATM   35  C   UNL     1     -11.139  12.272  70.013  1.00  0.00     0.428 C  
BRANCH  35  36
HETATM   36  N   UNL     1     -11.941  11.570  68.976  1.00  0.00    -0.338 NA 
HETATM   37  C   UNL     1     -12.448  12.471  67.936  1.00  0.00     0.866 C  
HETATM   38  C   UNL     1     -13.077  10.893  69.612  1.00  0.00     0.754 C  
ENDBRANCH  35  36
ENDBRANCH  18  35
ENDBRANCH   2   3
TORSDOF 3
ENDMDL
MODEL       84
REMARK 921   NORMALIZED FREE ENERGY PREDICTED BY IDOCK:   16.75 KCAL/MOL
REMARK 922        TOTAL FREE ENERGY PREDICTED BY IDOCK:   18.91 KCAL/MOL
REMARK 923 INTER-LIGAND FREE ENERGY PREDICTED BY IDOCK:    5.34 KCAL/MOL
REMARK 924 INTRA-LIGAND FREE ENERGY PREDICTED BY IDOCK:   13.57 KCAL/MOL
REMARK 927      BINDING AFFINITY PREDICTED BY RF-SCORE:    0.00 PKD
ROOT
HETATM    1  C   UNL     1      -7.197  11.036  64.408  1.00  0.00     0.786 C  
HETATM    2  O   UNL     1      -6.454  10.325  65.388  1.00  0.00    -0.110 OA 
ENDROOT
BRANCH   2   3
HETATM    3  C   UNL     1      -6.572  10.804  66.672  1.00  0.00    -0.112 A  
HETATM    4  N   UNL     1      -5.945  10.115  67.665  1.00  0.00    -0.053 NA 
HETATM    5  C   UNL     1      -5.883  10.663  68.888  1.00  0.00    -0.040 A  
HETATM    6  C   UNL     1      -6.368  11.960  69.137  1.00  0.00    -0.092 A  
HETATM    7  C   UNL     1      -6.253  12.567  70.396  1.00  0.00     0.108 A  
HETATM    8  C   UNL     1      -7.008  12.628  68.099  1.00  0.00    -0.096 A  
HETATM    9  C   UNL     1      -5.656  11.876  71.439  1.00  0.00     0.232 A  
HETATM   10  C   UNL     1      -7.235  12.024  66.855  1.00  0.00    -0.040 A  
HETATM   11  C   UNL     1      -5.211  10.574  71.240  1.00  0.00    -0.084 A  
HETATM   12 BR   UNL     1      -5.442  12.719  73.114  1.00  0.00     0.976 Br 
HETATM   13  C   UNL     1      -8.170  12.697  65.800  1.00  0.00     1.531 C  
HETATM   14  C   UNL     1      -5.333   9.982  69.973  1.00  0.00    -0.038 A  
HETATM   15  C   UNL     1      -8.764  11.708  64.774  1.00  0.00     0.573 A  
HETATM   16  C   UNL     1      -9.187  13.862  66.380  1.00  0.00    -0.152 C  
HETATM   17  O   UNL     1      -8.302  14.989  66.731  1.00  0.00    -0.291 OA 
HETATM   18  C   UNL     1     -10.082  14.524  65.276  1.00  0.00    -0.389 C  
HETATM   19  C   UNL     1      -9.967  13.593  67.721  1.00  0.00    -0.235 A  
HETATM   20  C   UNL     1      -9.663  10.681  65.104  1.00  0.00    -0.327 A  
HETATM   21  C   UNL     1     -11.501  15.273  70.744  1.00  0.00    -0.361 A  
HETATM   22  C   UNL     1     -10.034  12.278  68.230  1.00  0.00    -0.216 A  
HETATM   23  C   UNL     1     -10.016   9.694  64.179  1.00  0.00     0.751 A  
HETATM   24  H   UNL     1      -8.886  15.658  67.064  1.00  0.00     0.000 HD 
HETATM   25  C   UNL     1     -10.502  11.972  69.506  1.00  0.00     0.358 A  
HETATM   26  C   UNL     1     -11.531  16.615  70.389  1.00  0.00     0.184 A  
HETATM   27  C   UNL     1      -9.494   9.721  62.892  1.00  0.00     0.000 A  
HETATM   28  C   UNL     1     -10.976  12.980  70.319  1.00  0.00     1.043 A  
HETATM   29  C   UNL     1      -8.646  10.756  62.518  1.00  0.00    -0.301 A  
HETATM   30  C   UNL     1     -11.032  16.999  69.159  1.00  0.00    -0.054 A  
HETATM   31  C   UNL     1     -10.514  16.034  68.284  1.00  0.00    -0.269 A  
HETATM   32  C   UNL     1      -8.287  11.741  63.445  1.00  0.00     1.192 A  
HETATM   33  C   UNL     1     -10.997  14.298  69.867  1.00  0.00    -0.053 A  
HETATM   34  C   UNL     1     -10.490  14.643  68.574  1.00  0.00    -0.247 A  
BRANCH  18  35
HETATM   35  C   UNL     1     -11.220  13.724  64.636  1.00  0.00    -0.378 C  
BRANCH  35  36
HETATM   36  N   UNL     1     -12.355  13.494  65.567  1.00  0.00    -0.452 NA 
HETATM   37  C   UNL     1     -12.321  12.171  66.197  1.00  0.00     0.538 C  
HETATM   38  C   UNL     1     -13.622  13.640  64.839  1.00  0.00     1.461 C  
ENDBRANCH  35  36
ENDBRANCH  18  35
ENDBRANCH   2   3
TORSDOF 3
ENDMDL
MODEL       85
REMARK 921   NORMALIZED FREE ENERGY PREDICTED BY IDOCK:   19.99 KCAL/MOL
REMARK 922        TOTAL FREE ENERGY PREDICTED BY IDOCK:   22.72 KCAL/MOL
REMARK 923 INTER-LIGAND FREE ENERGY PREDICTED BY IDOCK:   21.03 KCAL/MOL
REMARK 924 INTRA-LIGAND FREE ENERGY PREDICTED BY IDOCK:    1.69 KCAL/MOL
REMARK 927      BINDING AFFINITY PREDICTED BY RF-SCORE:    0.00 PKD
ROOT
HETATM    1  C   UNL     1     -11.161  16.947  68.477  1.00  0.00    -0.112 C  
HETATM    2  O   UNL     1     -11.676  15.643  68.702  1.00  0.00    -0.366 OA 
ENDROOT
BRANCH   2   3
HETATM    3  C   UNL     1     -11.289  14.695  67.783  1.00  0.00    -0.322 A  
HETATM    4  N   UNL     1     -11.492  14.971  66.465  1.00  0.00    -0.293 NA 
HETATM    5  C   UNL     1     -10.953  14.155  65.547  1.00  0.00    -0.310 A  
HETATM    6  C   UNL     1     -10.117  13.085  65.916  1.00  0.00    -0.291 A  
HETATM    7  C   UNL     1      -9.498  12.264  64.963  1.00  0.00     0.132 A  
HETATM    8  C   UNL     1      -9.940  12.832  67.272  1.00  0.00    -0.219 A  
HETATM    9  C   UNL     1      -9.716  12.493  63.613  1.00  0.00     0.269 A  
HETATM   10  C   UNL     1     -10.617  13.563  68.258  1.00  0.00    -0.259 A  
HETATM   11  C   UNL     1     -10.576  13.511  63.216  1.00  0.00     1.965 A  
HETATM   12 BR   UNL     1      -8.829  11.429  62.332  1.00  0.00     0.125 Br 
HETATM   13  C   UNL     1     -10.596  13.097  69.749  1.00  0.00     0.717 C  
HETATM   14  C   UNL     1     -11.186  14.325  64.183  1.00  0.00    -0.002 A  
HETATM   15  C   UNL     1     -11.787  13.623  70.581  1.00  0.00    -0.232 A  
HETATM   16  C   UNL     1     -10.147  11.530  70.008  1.00  0.00     1.424 C  
HETATM   17  O   UNL     1      -8.708  11.496  69.683  1.00  0.00     0.102 OA 
HETATM   18  C   UNL     1     -10.116  11.124  71.522  1.00  0.00     6.891 C  
HETATM   19  C   UNL     1     -10.746  10.404  69.084  1.00  0.00    -0.266 A  
HETATM   20  C   UNL     1     -13.124  13.259  70.352  1.00  0.00     0.304 A  
HETATM   21  C   UNL     1     -10.052   6.996  67.595  1.00  0.00    -0.218 A  
HETATM   22  C   UNL     1     -11.867  10.694  68.278  1.00  0.00     0.007 A  
HETATM   23  C   UNL     1     -14.179  13.910  70.999  1.00  0.00     0.567 A  
HETATM   24  H   UNL     1      -8.450  10.595  69.832  1.00  0.00     0.000 HD 
HETATM   25  C   UNL     1     -12.330   9.848  67.273  1.00  0.00     5.584 A  
HETATM   26  C   UNL     1      -8.954   6.544  68.314  1.00  0.00    -0.121 A  
HETATM   27  C   UNL     1     -13.921  14.928  71.908  1.00  0.00    -0.585 A  
HETATM   28  C   UNL     1     -11.710   8.634  67.064  1.00  0.00     3.447 A  
HETATM   29  C   UNL     1     -12.607  15.273  72.198  1.00  0.00    -0.428 A  
HETATM   30  C   UNL     1      -8.407   7.355  69.291  1.00  0.00    -0.132 A  
HETATM   31  C   UNL     1      -8.970   8.614  69.549  1.00  0.00    -0.145 A  
HETATM   32  C   UNL     1     -11.550  14.626  71.547  1.00  0.00    -0.187 A  
HETATM   33  C   UNL     1     -10.631   8.249  67.857  1.00  0.00    -0.212 A  
HETATM   34  C   UNL     1     -10.115   9.115  68.872  1.00  0.00    -0.209 A  
BRANCH  18  35
HETATM   35  C   UNL     1     -11.428  10.969  72.297  1.00  0.00     4.222 C  
BRANCH  35  36
HETATM   36  N   UNL     1     -11.884   9.557  72.377  1.00  0.00     0.174 NA 
HETATM   37  C   UNL     1     -11.857   8.871  71.081  1.00  0.00    -0.298 C  
HETATM   38  C   UNL     1     -13.253   9.514  72.907  1.00  0.00     0.307 C  
ENDBRANCH  35  36
ENDBRANCH  18  35
ENDBRANCH   2   3
TORSDOF 3
ENDMDL
MODEL       86
REMARK 921   NORMALIZED FREE ENERGY PREDICTED BY IDOCK:   20.02 KCAL/MOL
REMARK 922        TOTAL FREE ENERGY PREDICTED BY IDOCK:   22.75 KCAL/MOL
REMARK 923 INTER-LIGAND FREE ENERGY PREDICTED BY IDOCK:   22.66 KCAL/MOL
REMARK 924 INTRA-LIGAND FREE ENERGY PREDICTED BY IDOCK:    0.09 KCAL/MOL
REMARK 927      BINDING AFFINITY PREDICTED BY RF-SCORE:    0.00 PKD
ROOT
HETATM    1  C   UNL     1     -11.588  14.837  64.510  1.00  0.00    -0.361 C  
HETATM    2  O   UNL     1     -12.132  15.202  65.769  1.00  0.00     0.029 OA 
ENDROOT
BRANCH   2   3
HETATM    3  C   UNL     1     -11.815  14.360  66.810  1.00  0.00    -0.410 A  
HETATM    4  N   UNL     1     -12.760  13.465  67.211  1.00  0.00     0.301 NA 
HETATM    5  C   UNL     1     -12.410  12.511  68.087  1.00  0.00     0.451 A  
HETATM    6  C   UNL     1     -11.081  12.366  68.524  1.00  0.00    -0.296 A  
HETATM    7  C   UNL     1     -10.692  11.335  69.391  1.00  0.00    -0.188 A  
HETATM    8  C   UNL     1     -10.147  13.305  68.097  1.00  0.00    -0.241 A  
HETATM    9  C   UNL     1     -11.638  10.431  69.849  1.00  0.00    -0.284 A  
HETATM   10  C   UNL     1     -10.509  14.408  67.313  1.00  0.00    -0.269 A  
HETATM   11  C   UNL     1     -12.970  10.575  69.476  1.00  0.00     0.762 A  
HETATM   12 BR   UNL     1     -11.101   9.004  70.962  1.00  0.00    -0.387 Br 
HETATM   13  C   UNL     1      -9.498  15.572  67.061  1.00  0.00    -0.238 C  
HETATM   14  C   UNL     1     -13.341  11.613  68.607  1.00  0.00     4.602 A  
HETATM   15  C   UNL     1     -10.173  16.913  66.696  1.00  0.00    -0.312 A  
HETATM   16  C   UNL     1      -8.215  15.647  68.097  1.00  0.00    -0.144 C  
HETATM   17  O   UNL     1      -7.387  14.477  67.749  1.00  0.00    -0.139 OA 
HETATM   18  C   UNL     1      -7.218  16.816  67.782  1.00  0.00    -0.152 C  
HETATM   19  C   UNL     1      -8.469  15.457  69.639  1.00  0.00    -0.124 A  
HETATM   20  C   UNL     1     -10.993  17.642  67.572  1.00  0.00    -0.085 A  
HETATM   21  C   UNL     1      -6.894  14.252  72.861  1.00  0.00     2.858 A  
HETATM   22  C   UNL     1      -9.786  15.541  70.139  1.00  0.00     0.006 A  
HETATM   23  C   UNL     1     -11.736  18.742  67.132  1.00  0.00     1.637 A  
HETATM   24  H   UNL     1      -6.649  14.520  68.345  1.00  0.00     0.000 HD 
HETATM   25  C   UNL     1     -10.141  15.171  71.434  1.00  0.00     1.499 A  
HETATM   26  C   UNL     1      -5.548  14.137  72.541  1.00  0.00    -0.105 A  
HETATM   27  C   UNL     1     -11.661  19.153  65.808  1.00  0.00     1.851 A  
HETATM   28  C   UNL     1      -9.167  14.744  72.312  1.00  0.00     6.358 A  
HETATM   29  C   UNL     1     -10.815  18.487  64.929  1.00  0.00     1.696 A  
HETATM   30  C   UNL     1      -5.131  14.434  71.257  1.00  0.00    -0.135 A  
HETATM   31  C   UNL     1      -6.065  14.856  70.300  1.00  0.00    -0.158 A  
HETATM   32  C   UNL     1     -10.076  17.382  65.367  1.00  0.00     0.277 A  
HETATM   33  C   UNL     1      -7.834  14.689  71.912  1.00  0.00     4.608 A  
HETATM   34  C   UNL     1      -7.449  15.029  70.577  1.00  0.00     0.767 A  
BRANCH  18  35
HETATM   35  C   UNL     1      -7.634  18.265  68.051  1.00  0.00    -0.250 C  
BRANCH  35  36
HETATM   36  N   UNL     1      -6.927  19.237  67.176  1.00  0.00    -0.199 NA 
HETATM   37  C   UNL     1      -7.724  20.433  66.887  1.00  0.00    -0.300 C  
HETATM   38  C   UNL     1      -6.572  18.587  65.909  1.00  0.00    -0.264 C  
ENDBRANCH  35  36
ENDBRANCH  18  35
ENDBRANCH   2   3
TORSDOF 3
ENDMDL
MODEL       87
REMARK 921   NORMALIZED FREE ENERGY PREDICTED BY IDOCK:   20.45 KCAL/MOL
REMARK 922        TOTAL FREE ENERGY PREDICTED BY IDOCK:   23.26 KCAL/MOL
REMARK 923 INTER-LIGAND FREE ENERGY PREDICTED BY IDOCK:   22.01 KCAL/MOL
REMARK 924 INTRA-LIGAND FREE ENERGY PREDICTED BY IDOCK:    1.25 KCAL/MOL
REMARK 927      BINDING AFFINITY PREDICTED BY RF-SCORE:    0.00 PKD
ROOT
HETATM    1  C   UNL     1     -12.936  11.958  69.963  1.00  0.00     0.634 C  
HETATM    2  O   UNL     1     -11.678  12.292  70.531  1.00  0.00    -0.190 OA 
ENDROOT
BRANCH   2   3
HETATM    3  C   UNL     1     -11.533  13.611  70.896  1.00  0.00     0.662 A  
HETATM    4  N   UNL     1     -12.282  14.065  71.938  1.00  0.00    -0.133 NA 
HETATM    5  C   UNL     1     -12.021  15.284  72.434  1.00  0.00    -0.419 A  
HETATM    6  C   UNL     1     -10.942  16.054  71.962  1.00  0.00     0.590 A  
HETATM    7  C   UNL     1     -10.622  17.302  72.514  1.00  0.00     4.160 A  
HETATM    8  C   UNL     1     -10.206  15.558  70.891  1.00  0.00     0.526 A  
HETATM    9  C   UNL     1     -11.390  17.811  73.550  1.00  0.00     1.465 A  
HETATM   10  C   UNL     1     -10.550  14.364  70.243  1.00  0.00     0.416 A  
HETATM   11  C   UNL     1     -12.493  17.099  74.007  1.00  0.00     0.345 A  
HETATM   12 BR   UNL     1     -10.918  19.461  74.336  1.00  0.00     6.372 Br 
HETATM   13  C   UNL     1      -9.866  13.962  68.897  1.00  0.00    -0.041 C  
HETATM   14  C   UNL     1     -12.798  15.850  73.443  1.00  0.00    -0.688 A  
HETATM   15  C   UNL     1     -10.701  12.984  68.043  1.00  0.00    -0.248 A  
HETATM   16  C   UNL     1      -9.098  15.180  68.089  1.00  0.00    -0.176 C  
HETATM   17  O   UNL     1      -7.919  15.493  68.920  1.00  0.00    -0.155 OA 
HETATM   18  C   UNL     1      -8.405  14.717  66.761  1.00  0.00    -0.078 C  
HETATM   19  C   UNL     1      -9.816  16.574  67.951  1.00  0.00    -0.240 A  
HETATM   20  C   UNL     1     -11.939  13.308  67.465  1.00  0.00    -0.371 A  
HETATM   21  C   UNL     1      -9.211  20.293  67.610  1.00  0.00    -0.449 A  
HETATM   22  C   UNL     1     -11.196  16.672  68.231  1.00  0.00    -0.220 A  
HETATM   23  C   UNL     1     -12.745  12.332  66.871  1.00  0.00     1.984 A  
HETATM   24  H   UNL     1      -7.478  16.194  68.455  1.00  0.00     0.000 HD 
HETATM   25  C   UNL     1     -11.870  17.884  68.355  1.00  0.00     2.413 A  
HETATM   26  C   UNL     1      -7.860  20.376  67.302  1.00  0.00    -0.373 A  
HETATM   27  C   UNL     1     -12.323  11.010  66.820  1.00  0.00     2.844 A  
HETATM   28  C   UNL     1     -11.190  19.067  68.149  1.00  0.00     0.561 A  
HETATM   29  C   UNL     1     -11.078  10.667  67.333  1.00  0.00    -0.341 A  
HETATM   30  C   UNL     1      -7.114  19.214  67.217  1.00  0.00    -0.225 A  
HETATM   31  C   UNL     1      -7.730  17.973  67.433  1.00  0.00    -0.216 A  
HETATM   32  C   UNL     1     -10.273  11.642  67.934  1.00  0.00    -0.203 A  
HETATM   33  C   UNL     1      -9.838  19.052  67.813  1.00  0.00    -0.398 A  
HETATM   34  C   UNL     1      -9.115  17.822  67.714  1.00  0.00    -0.249 A  
BRANCH  18  35
HETATM   35  C   UNL     1      -9.259  14.332  65.549  1.00  0.00     0.554 C  
BRANCH  35  36
HETATM   36  N   UNL     1      -8.775  13.100  64.872  1.00  0.00     2.251 NA 
HETATM   37  C   UNL     1      -9.862  12.204  64.466  1.00  0.00    -0.125 C  
HETATM   38  C   UNL     1      -7.871  12.371  65.770  1.00  0.00     1.770 C  
ENDBRANCH  35  36
ENDBRANCH  18  35
ENDBRANCH   2   3
TORSDOF 3
ENDMDL
MODEL       88
REMARK 921   NORMALIZED FREE ENERGY PREDICTED BY IDOCK:   20.49 KCAL/MOL
REMARK 922        TOTAL FREE ENERGY PREDICTED BY IDOCK:   23.30 KCAL/MOL
REMARK 923 INTER-LIGAND FREE ENERGY PREDICTED BY IDOCK:   23.13 KCAL/MOL
REMARK 924 INTRA-LIGAND FREE ENERGY PREDICTED BY IDOCK:    0.17 KCAL/MOL
REMARK 927      BINDING AFFINITY PREDICTED BY RF-SCORE:    0.00 PKD
ROOT
HETATM    1  C   UNL     1      -7.367  10.043  71.539  1.00  0.00     1.517 C  
HETATM    2  O   UNL     1      -7.661  10.251  70.165  1.00  0.00    -0.147 OA 
ENDROOT
BRANCH   2   3
HETATM    3  C   UNL     1      -8.833  10.926  69.914  1.00  0.00     0.858 A  
HETATM    4  N   UNL     1      -9.758  10.982  70.912  1.00  0.00     3.000 NA 
HETATM    5  C   UNL     1     -10.818  11.792  70.761  1.00  0.00     2.490 A  
HETATM    6  C   UNL     1     -10.942  12.639  69.646  1.00  0.00     0.147 A  
HETATM    7  C   UNL     1     -12.013  13.534  69.508  1.00  0.00    -0.390 A  
HETATM    8  C   UNL     1      -9.980  12.547  68.645  1.00  0.00    -0.111 A  
HETATM    9  C   UNL     1     -12.993  13.587  70.487  1.00  0.00     0.043 A  
HETATM   10  C   UNL     1      -8.949  11.599  68.691  1.00  0.00    -0.087 A  
HETATM   11  C   UNL     1     -12.926  12.728  71.578  1.00  0.00    -0.388 A  
HETATM   12 BR   UNL     1     -14.397  14.838  70.333  1.00  0.00     1.792 Br 
HETATM   13  C   UNL     1      -8.040  11.349  67.445  1.00  0.00    -0.142 C  
HETATM   14  C   UNL     1     -11.846  11.839  71.701  1.00  0.00     1.413 A  
HETATM   15  C   UNL     1      -7.370   9.958  67.435  1.00  0.00    -0.090 A  
HETATM   16  C   UNL     1      -8.628  11.898  66.004  1.00  0.00     0.132 C  
HETATM   17  O   UNL     1      -8.560  13.369  66.110  1.00  0.00    -0.226 OA 
HETATM   18  C   UNL     1      -7.664  11.647  64.793  1.00  0.00     1.813 C  
HETATM   19  C   UNL     1     -10.140  11.637  65.648  1.00  0.00    -0.278 A  
HETATM   20  C   UNL     1      -8.075   8.748  67.323  1.00  0.00    -0.101 A  
HETATM   21  C   UNL     1     -13.094  12.999  63.717  1.00  0.00     0.533 A  
HETATM   22  C   UNL     1     -10.872  10.691  66.396  1.00  0.00    -0.132 A  
HETATM   23  C   UNL     1      -7.444   7.515  67.517  1.00  0.00    -0.104 A  
HETATM   24  H   UNL     1      -8.898  13.685  65.281  1.00  0.00     0.000 HD 
HETATM   25  C   UNL     1     -12.255  10.549  66.310  1.00  0.00     4.122 A  
HETATM   26  C   UNL     1     -12.527  13.958  62.890  1.00  0.00     1.077 A  
HETATM   27  C   UNL     1      -6.087   7.459  67.806  1.00  0.00    -0.039 A  
HETATM   28  C   UNL     1     -12.967  11.327  65.421  1.00  0.00     4.563 A  
HETATM   29  C   UNL     1      -5.350   8.636  67.867  1.00  0.00    -0.035 A  
HETATM   30  C   UNL     1     -11.166  14.192  62.961  1.00  0.00     2.804 A  
HETATM   31  C   UNL     1     -10.378  13.455  63.855  1.00  0.00     0.330 A  
HETATM   32  C   UNL     1      -5.981   9.871  67.680  1.00  0.00    -0.050 A  
HETATM   33  C   UNL     1     -12.308  12.245  64.606  1.00  0.00    -0.449 A  
HETATM   34  C   UNL     1     -10.893  12.434  64.700  1.00  0.00    -0.346 A  
BRANCH  18  35
HETATM   35  C   UNL     1      -7.456  10.224  64.267  1.00  0.00    -0.072 C  
BRANCH  35  36
HETATM   36  N   UNL     1      -6.041   9.779  64.356  1.00  0.00    -0.097 NA 
HETATM   37  C   UNL     1      -5.158  10.791  64.945  1.00  0.00    -0.135 C  
HETATM   38  C   UNL     1      -5.548   9.443  63.015  1.00  0.00    -0.080 C  
ENDBRANCH  35  36
ENDBRANCH  18  35
ENDBRANCH   2   3
TORSDOF 3
ENDMDL
MODEL       89
REMARK 921   NORMALIZED FREE ENERGY PREDICTED BY IDOCK:   21.90 KCAL/MOL
REMARK 922        TOTAL FREE ENERGY PREDICTED BY IDOCK:   24.96 KCAL/MOL
REMARK 923 INTER-LIGAND FREE ENERGY PREDICTED BY IDOCK:   25.13 KCAL/MOL
REMARK 924 INTRA-LIGAND FREE ENERGY PREDICTED BY IDOCK:   -0.18 KCAL/MOL
REMARK 927      BINDING AFFINITY PREDICTED BY RF-SCORE:    0.00 PKD
ROOT
HETATM    1  C   UNL     1     -11.911   8.126  70.301  1.00  0.00     0.305 C  
HETATM    2  O   UNL     1     -12.278   8.344  68.946  1.00  0.00     2.384 OA 
ENDROOT
BRANCH   2   3
HETATM    3  C   UNL     1     -11.821   9.521  68.400  1.00  0.00     1.433 A  
HETATM    4  N   UNL     1     -12.614  10.622  68.513  1.00  0.00     0.533 NA 
HETATM    5  C   UNL     1     -12.111  11.815  68.162  1.00  0.00     0.030 A  
HETATM    6  C   UNL     1     -10.768  11.960  67.770  1.00  0.00    -0.243 A  
HETATM    7  C   UNL     1     -10.215  13.211  67.460  1.00  0.00    -0.225 A  
HETATM    8  C   UNL     1      -9.993  10.810  67.659  1.00  0.00    -0.199 A  
HETATM    9  C   UNL     1     -11.008  14.347  67.528  1.00  0.00    -0.293 A  
HETATM   10  C   UNL     1     -10.528   9.531  67.861  1.00  0.00    -0.293 A  
HETATM   11  C   UNL     1     -12.352  14.232  67.864  1.00  0.00    -0.021 A  
HETATM   12 BR   UNL     1     -10.245  16.037  67.176  1.00  0.00    -0.283 Br 
HETATM   13  C   UNL     1      -9.708   8.256  67.486  1.00  0.00    -0.212 C  
HETATM   14  C   UNL     1     -12.889  12.972  68.172  1.00  0.00     1.783 A  
HETATM   15  C   UNL     1     -10.581   7.010  67.225  1.00  0.00    -0.395 A  
HETATM   16  C   UNL     1      -8.433   8.495  66.465  1.00  0.00    -0.115 C  
HETATM   17  O   UNL     1      -7.445   9.238  67.270  1.00  0.00    -0.090 OA 
HETATM   18  C   UNL     1      -7.627   7.188  66.145  1.00  0.00    -0.092 C  
HETATM   19  C   UNL     1      -8.630   9.417  65.204  1.00  0.00    -0.188 A  
HETATM   20  C   UNL     1     -11.486   6.897  66.157  1.00  0.00     2.631 A  
HETATM   21  C   UNL     1      -6.839  11.754  62.828  1.00  0.00     1.890 A  
HETATM   22  C   UNL     1      -9.937   9.762  64.797  1.00  0.00     0.014 A  
HETATM   23  C   UNL     1     -12.392   5.835  66.077  1.00  0.00     4.287 A  
HETATM   24  H   UNL     1      -6.712   9.376  66.682  1.00  0.00     0.000 HD 
HETATM   25  C   UNL     1     -10.211  10.739  63.843  1.00  0.00    -0.377 A  
HETATM   26  C   UNL     1      -5.496  11.517  63.090  1.00  0.00     1.102 A  
HETATM   27  C   UNL     1     -12.402   4.847  67.052  1.00  0.00     9.037 A  
HETATM   28  C   UNL     1      -9.170  11.386  63.211  1.00  0.00    -0.200 A  
HETATM   29  C   UNL     1     -11.481   4.900  68.091  1.00  0.00     3.591 A  
HETATM   30  C   UNL     1      -5.150  10.599  64.064  1.00  0.00    -0.161 A  
HETATM   31  C   UNL     1      -6.153   9.914  64.765  1.00  0.00    -0.102 A  
HETATM   32  C   UNL     1     -10.577   5.966  68.176  1.00  0.00    -0.312 A  
HETATM   33  C   UNL     1      -7.850  11.061  63.516  1.00  0.00     0.464 A  
HETATM   34  C   UNL     1      -7.542  10.086  64.517  1.00  0.00    -0.142 A  
BRANCH  18  35
HETATM   35  C   UNL     1      -8.251   6.107  65.258  1.00  0.00    -0.142 C  
BRANCH  35  36
HETATM   36  N   UNL     1      -7.637   4.769  65.466  1.00  0.00    -0.084 NA 
HETATM   37  C   UNL     1      -8.120   3.763  64.515  1.00  0.00    -0.086 C  
HETATM   38  C   UNL     1      -7.920   4.307  66.830  1.00  0.00    -0.098 C  
ENDBRANCH  35  36
ENDBRANCH  18  35
ENDBRANCH   2   3
TORSDOF 3
ENDMDL
MODEL       90
REMARK 921   NORMALIZED FREE ENERGY PREDICTED BY IDOCK:   22.40 KCAL/MOL
REMARK 922        TOTAL FREE ENERGY PREDICTED BY IDOCK:   25.55 KCAL/MOL
REMARK 923 INTER-LIGAND FREE ENERGY PREDICTED BY IDOCK:   23.35 KCAL/MOL
REMARK 924 INTRA-LIGAND FREE ENERGY PREDICTED BY IDOCK:    2.20 KCAL/MOL
REMARK 927      BINDING AFFINITY PREDICTED BY RF-SCORE:    0.00 PKD
ROOT
HETATM    1  C   UNL     1      -5.587  11.698  68.312  1.00  0.00    -0.045 C  
HETATM    2  O   UNL     1      -5.379  10.777  69.372  1.00  0.00    -0.038 OA 
ENDROOT
BRANCH   2   3
HETATM    3  C   UNL     1      -5.927   9.530  69.179  1.00  0.00    -0.038 A  
HETATM    4  N   UNL     1      -5.290   8.685  68.321  1.00  0.00    -0.034 NA 
HETATM    5  C   UNL     1      -5.692   7.406  68.262  1.00  0.00    -0.027 A  
HETATM    6  C   UNL     1      -6.685   6.908  69.124  1.00  0.00    -0.053 A  
HETATM    7  C   UNL     1      -7.069   5.560  69.115  1.00  0.00    -0.064 A  
HETATM    8  C   UNL     1      -7.316   7.804  69.981  1.00  0.00    -0.075 A  
HETATM    9  C   UNL     1      -6.468   4.682  68.225  1.00  0.00    -0.038 A  
HETATM   10  C   UNL     1      -7.036   9.177  69.956  1.00  0.00    -0.060 A  
HETATM   11  C   UNL     1      -5.519   5.152  67.325  1.00  0.00    -0.013 A  
HETATM   12 BR   UNL     1      -6.938   2.854  68.259  1.00  0.00    -0.049 Br 
HETATM   13  C   UNL     1      -7.932  10.187  70.743  1.00  0.00     0.888 C  
HETATM   14  C   UNL     1      -5.145   6.505  67.350  1.00  0.00    -0.005 A  
HETATM   15  C   UNL     1      -7.874  11.628  70.193  1.00  0.00     2.131 A  
HETATM   16  C   UNL     1      -9.416   9.627  71.200  1.00  0.00     0.260 C  
HETATM   17  O   UNL     1      -9.131   8.628  72.248  1.00  0.00    -0.259 OA 
HETATM   18  C   UNL     1     -10.261  10.670  72.011  1.00  0.00     6.393 C  
HETATM   19  C   UNL     1     -10.277   8.816  70.161  1.00  0.00    -0.207 A  
HETATM   20  C   UNL     1      -8.345  12.003  68.924  1.00  0.00     0.147 A  
HETATM   21  C   UNL     1     -12.913   6.122  69.831  1.00  0.00     4.100 A  
HETATM   22  C   UNL     1      -9.924   8.848  68.796  1.00  0.00    -0.195 A  
HETATM   23  C   UNL     1      -8.092  13.273  68.396  1.00  0.00    -0.134 A  
HETATM   24  H   UNL     1      -9.985   8.307  72.511  1.00  0.00     0.000 HD 
HETATM   25  C   UNL     1     -10.477   8.000  67.839  1.00  0.00    -0.259 A  
HETATM   26  C   UNL     1     -13.395   5.979  71.125  1.00  0.00     1.947 A  
HETATM   27  C   UNL     1      -7.379  14.209  69.134  1.00  0.00    -0.067 A  
HETATM   28  C   UNL     1     -11.459   7.105  68.208  1.00  0.00     0.470 A  
HETATM   29  C   UNL     1      -6.948  13.888  70.416  1.00  0.00     0.581 A  
HETATM   30  C   UNL     1     -12.853   6.750  72.137  1.00  0.00    -0.093 A  
HETATM   31  C   UNL     1     -11.836   7.670  71.844  1.00  0.00    -0.332 A  
HETATM   32  C   UNL     1      -7.195  12.615  70.943  1.00  0.00     4.023 A  
HETATM   33  C   UNL     1     -11.904   7.052  69.527  1.00  0.00     0.206 A  
HETATM   34  C   UNL     1     -11.327   7.888  70.535  1.00  0.00    -0.242 A  
BRANCH  18  35
HETATM   35  C   UNL     1     -10.843  11.896  71.301  1.00  0.00     4.598 C  
BRANCH  35  36
HETATM   36  N   UNL     1     -12.240  12.191  71.716  1.00  0.00     0.442 NA 
HETATM   37  C   UNL     1     -13.175  11.112  71.383  1.00  0.00    -0.203 C  
HETATM   38  C   UNL     1     -12.692  13.427  71.067  1.00  0.00    -0.307 C  
ENDBRANCH  35  36
ENDBRANCH  18  35
ENDBRANCH   2   3
TORSDOF 3
ENDMDL
MODEL       91
REMARK 921   NORMALIZED FREE ENERGY PREDICTED BY IDOCK:   23.68 KCAL/MOL
REMARK 922        TOTAL FREE ENERGY PREDICTED BY IDOCK:   27.05 KCAL/MOL
REMARK 923 INTER-LIGAND FREE ENERGY PREDICTED BY IDOCK:   11.63 KCAL/MOL
REMARK 924 INTRA-LIGAND FREE ENERGY PREDICTED BY IDOCK:   15.42 KCAL/MOL
REMARK 927      BINDING AFFINITY PREDICTED BY RF-SCORE:    0.00 PKD
ROOT
HETATM    1  C   UNL     1      -5.728  17.320  66.179  1.00  0.00    -0.043 C  
HETATM    2  O   UNL     1      -5.145  16.027  66.106  1.00  0.00     0.839 OA 
ENDROOT
BRANCH   2   3
HETATM    3  C   UNL     1      -5.886  15.019  66.678  1.00  0.00     2.287 A  
HETATM    4  N   UNL     1      -5.562  13.735  66.358  1.00  0.00     2.721 NA 
HETATM    5  C   UNL     1      -6.138  12.737  67.045  1.00  0.00     0.318 A  
HETATM    6  C   UNL     1      -6.990  12.991  68.135  1.00  0.00    -0.105 A  
HETATM    7  C   UNL     1      -7.549  11.957  68.899  1.00  0.00    -0.036 A  
HETATM    8  C   UNL     1      -7.302  14.316  68.425  1.00  0.00    -0.119 A  
HETATM    9  C   UNL     1      -7.270  10.638  68.575  1.00  0.00    -0.086 A  
HETATM   10  C   UNL     1      -6.849  15.376  67.629  1.00  0.00    -0.208 A  
HETATM   11  C   UNL     1      -6.472  10.351  67.474  1.00  0.00    -0.058 A  
HETATM   12 BR   UNL     1      -7.969   9.248  69.644  1.00  0.00    -0.108 Br 
HETATM   13  C   UNL     1      -7.416  16.819  67.826  1.00  0.00    -0.176 C  
HETATM   14  C   UNL     1      -5.920  11.399  66.721  1.00  0.00    -0.143 A  
HETATM   15  C   UNL     1      -7.277  17.717  66.578  1.00  0.00    -0.278 A  
HETATM   16  C   UNL     1      -8.837  16.926  68.660  1.00  0.00    -0.262 C  
HETATM   17  O   UNL     1      -8.481  16.572  70.048  1.00  0.00     0.828 OA 
HETATM   18  C   UNL     1      -9.345  18.397  68.854  1.00  0.00    -0.228 C  
HETATM   19  C   UNL     1      -9.997  15.916  68.322  1.00  0.00    -0.222 A  
HETATM   20  C   UNL     1      -7.944  17.482  65.364  1.00  0.00     1.299 A  
HETATM   21  C   UNL     1     -12.986  14.112  69.778  1.00  0.00     0.417 A  
HETATM   22  C   UNL     1      -9.931  15.161  67.132  1.00  0.00    -0.237 A  
HETATM   23  C   UNL     1      -7.634  18.206  64.209  1.00  0.00     6.550 A  
HETATM   24  H   UNL     1      -9.298  16.634  70.528  1.00  0.00     0.000 HD 
HETATM   25  C   UNL     1     -10.780  14.093  66.852  1.00  0.00    -0.286 A  
HETATM   26  C   UNL     1     -13.206  14.766  70.982  1.00  0.00    -0.435 A  
HETATM   27  C   UNL     1      -6.663  19.198  64.242  1.00  0.00     1.095 A  
HETATM   28  C   UNL     1     -11.778  13.763  67.745  1.00  0.00    -0.393 A  
HETATM   29  C   UNL     1      -6.025  19.493  65.441  1.00  0.00    -0.234 A  
HETATM   30  C   UNL     1     -12.367  15.802  71.351  1.00  0.00    -0.505 A  
HETATM   31  C   UNL     1     -11.316  16.183  70.505  1.00  0.00    -0.392 A  
HETATM   32  C   UNL     1      -6.330  18.765  66.597  1.00  0.00    -0.206 A  
HETATM   33  C   UNL     1     -11.944  14.498  68.918  1.00  0.00    -0.326 A  
HETATM   34  C   UNL     1     -11.063  15.577  69.244  1.00  0.00    -0.285 A  
BRANCH  18  35
HETATM   35  C   UNL     1      -9.888  19.179  67.654  1.00  0.00    -0.335 C  
BRANCH  35  36
HETATM   36  N   UNL     1      -9.429  20.593  67.635  1.00  0.00    -0.321 NA 
HETATM   37  C   UNL     1      -7.968  20.721  67.615  1.00  0.00    -0.117 C  
HETATM   38  C   UNL     1      -9.949  21.292  68.816  1.00  0.00     1.421 C  
ENDBRANCH  35  36
ENDBRANCH  18  35
ENDBRANCH   2   3
TORSDOF 3
ENDMDL
MODEL       92
REMARK 921   NORMALIZED FREE ENERGY PREDICTED BY IDOCK:   24.33 KCAL/MOL
REMARK 922        TOTAL FREE ENERGY PREDICTED BY IDOCK:   27.82 KCAL/MOL
REMARK 923 INTER-LIGAND FREE ENERGY PREDICTED BY IDOCK:   20.53 KCAL/MOL
REMARK 924 INTRA-LIGAND FREE ENERGY PREDICTED BY IDOCK:    7.28 KCAL/MOL
REMARK 927      BINDING AFFINITY PREDICTED BY RF-SCORE:    0.00 PKD
ROOT
HETATM    1  C   UNL     1     -13.770  15.337  69.652  1.00  0.00     2.034 C  
HETATM    2  O   UNL     1     -13.507  13.944  69.560  1.00  0.00     1.473 OA 
ENDROOT
BRANCH   2   3
HETATM    3  C   UNL     1     -12.583  13.586  68.606  1.00  0.00     0.625 A  
HETATM    4  N   UNL     1     -12.675  12.336  68.073  1.00  0.00     0.939 NA 
HETATM    5  C   UNL     1     -11.913  12.032  67.012  1.00  0.00    -0.023 A  
HETATM    6  C   UNL     1     -11.097  12.997  66.393  1.00  0.00    -0.313 A  
HETATM    7  C   UNL     1     -10.343  12.708  65.247  1.00  0.00    -0.309 A  
HETATM    8  C   UNL     1     -11.024  14.259  66.973  1.00  0.00    -0.305 A  
HETATM    9  C   UNL     1     -10.384  11.433  64.702  1.00  0.00    -0.307 A  
HETATM   10  C   UNL     1     -11.680  14.564  68.173  1.00  0.00    -0.369 A  
HETATM   11  C   UNL     1     -11.142  10.443  65.317  1.00  0.00     0.719 A  
HETATM   12 BR   UNL     1      -9.422  11.064  63.121  1.00  0.00    -0.403 Br 
HETATM   13  C   UNL     1     -11.380  15.898  68.928  1.00  0.00    -0.377 C  
HETATM   14  C   UNL     1     -11.891  10.751  66.464  1.00  0.00     1.473 A  
HETATM   15  C   UNL     1     -11.708  15.846  70.436  1.00  0.00    -0.371 A  
HETATM   16  C   UNL     1      -9.985  16.670  68.500  1.00  0.00    -0.261 C  
HETATM   17  O   UNL     1     -10.239  17.170  67.136  1.00  0.00    -0.301 OA 
HETATM   18  C   UNL     1      -9.748  18.017  69.267  1.00  0.00     0.008 C  
HETATM   19  C   UNL     1      -8.669  15.823  68.328  1.00  0.00    -0.172 A  
HETATM   20  C   UNL     1     -11.036  15.025  71.357  1.00  0.00    -0.161 A  
HETATM   21  C   UNL     1      -5.369  15.660  66.484  1.00  0.00     1.796 A  
HETATM   22  C   UNL     1      -8.622  14.506  68.834  1.00  0.00    -0.103 A  
HETATM   23  C   UNL     1     -11.498  14.867  72.667  1.00  0.00    -0.066 A  
HETATM   24  H   UNL     1      -9.437  17.614  66.889  1.00  0.00     0.000 HD 
HETATM   25  C   UNL     1      -7.600  13.607  68.542  1.00  0.00    -0.130 A  
HETATM   26  C   UNL     1      -5.245  16.926  65.927  1.00  0.00     0.803 A  
HETATM   27  C   UNL     1     -12.632  15.544  73.097  1.00  0.00    -0.582 A  
HETATM   28  C   UNL     1      -6.539  14.011  67.759  1.00  0.00    -0.188 A  
HETATM   29  C   UNL     1     -13.287  16.407  72.227  1.00  0.00     0.767 A  
HETATM   30  C   UNL     1      -6.250  17.854  66.130  1.00  0.00    -0.272 A  
HETATM   31  C   UNL     1      -7.372  17.511  66.899  1.00  0.00    -0.239 A  
HETATM   32  C   UNL     1     -12.829  16.562  70.913  1.00  0.00     2.284 A  
HETATM   33  C   UNL     1      -6.483  15.314  67.268  1.00  0.00     0.044 A  
HETATM   34  C   UNL     1      -7.538  16.246  67.525  1.00  0.00    -0.170 A  
BRANCH  18  35
HETATM   35  C   UNL     1      -9.383  17.992  70.754  1.00  0.00     4.577 C  
BRANCH  35  36
HETATM   36  N   UNL     1      -9.974  19.129  71.509  1.00  0.00     2.974 NA 
HETATM   37  C   UNL     1     -11.151  18.745  72.294  1.00  0.00     4.053 C  
HETATM   38  C   UNL     1     -10.354  20.193  70.573  1.00  0.00     1.388 C  
ENDBRANCH  35  36
ENDBRANCH  18  35
ENDBRANCH   2   3
TORSDOF 3
ENDMDL
MODEL       93
REMARK 921   NORMALIZED FREE ENERGY PREDICTED BY IDOCK:   29.54 KCAL/MOL
REMARK 922        TOTAL FREE ENERGY PREDICTED BY IDOCK:   33.94 KCAL/MOL
REMARK 923 INTER-LIGAND FREE ENERGY PREDICTED BY IDOCK:   19.25 KCAL/MOL
REMARK 924 INTRA-LIGAND FREE ENERGY PREDICTED BY IDOCK:   14.69 KCAL/MOL
REMARK 927      BINDING AFFINITY PREDICTED BY RF-SCORE:    0.00 PKD
ROOT
HETATM    1  C   UNL     1      -7.816  15.095  68.474  1.00  0.00    -0.135 C  
HETATM    2  O   UNL     1      -6.688  14.795  67.664  1.00  0.00    -0.165 OA 
ENDROOT
BRANCH   2   3
HETATM    3  C   UNL     1      -6.734  13.576  67.029  1.00  0.00     0.719 A  
HETATM    4  N   UNL     1      -6.062  13.451  65.851  1.00  0.00     4.990 NA 
HETATM    5  C   UNL     1      -5.931  12.228  65.313  1.00  0.00     4.558 A  
HETATM    6  C   UNL     1      -6.390  11.079  65.980  1.00  0.00    -0.060 A  
HETATM    7  C   UNL     1      -6.204   9.792  65.457  1.00  0.00    -0.074 A  
HETATM    8  C   UNL     1      -7.078  11.250  67.177  1.00  0.00    -0.125 A  
HETATM    9  C   UNL     1      -5.559   9.633  64.240  1.00  0.00    -0.076 A  
HETATM   10  C   UNL     1      -7.376  12.520  67.688  1.00  0.00    -0.134 A  
HETATM   11  C   UNL     1      -5.136  10.751  63.531  1.00  0.00    -0.161 A  
HETATM   12 BR   UNL     1      -5.250   7.896  63.569  1.00  0.00    -0.042 Br 
HETATM   13  C   UNL     1      -8.359  12.686  68.890  1.00  0.00     0.270 C  
HETATM   14  C   UNL     1      -5.330  12.032  64.070  1.00  0.00     3.979 A  
HETATM   15  C   UNL     1      -9.014  14.082  68.969  1.00  0.00     0.167 A  
HETATM   16  C   UNL     1      -9.334  11.391  69.206  1.00  0.00     0.311 C  
HETATM   17  O   UNL     1      -8.421  10.357  69.730  1.00  0.00    -0.348 OA 
HETATM   18  C   UNL     1     -10.280  11.599  70.439  1.00  0.00     2.570 C  
HETATM   19  C   UNL     1     -10.045  10.662  68.004  1.00  0.00    -0.181 A  
HETATM   20  C   UNL     1      -9.904  14.586  68.007  1.00  0.00    -0.222 A  
HETATM   21  C   UNL     1     -11.402   7.330  66.836  1.00  0.00     0.623 A  
HETATM   22  C   UNL     1     -10.096  11.295  66.745  1.00  0.00    -0.254 A  
HETATM   23  C   UNL     1     -10.314  15.923  68.020  1.00  0.00    -0.262 A  
HETATM   24  H   UNL     1      -8.982   9.612  69.911  1.00  0.00     0.000 HD 
HETATM   25  C   UNL     1     -10.498  10.651  65.577  1.00  0.00    -0.246 A  
HETATM   26  C   UNL     1     -11.439   6.569  67.996  1.00  0.00     0.137 A  
HETATM   27  C   UNL     1      -9.861  16.785  69.011  1.00  0.00    -0.260 A  
HETATM   28  C   UNL     1     -10.921   9.339  65.633  1.00  0.00     2.304 A  
HETATM   29  C   UNL     1      -9.024  16.302  70.010  1.00  0.00     0.975 A  
HETATM   30  C   UNL     1     -11.002   7.127  69.184  1.00  0.00    -0.142 A  
HETATM   31  C   UNL     1     -10.539   8.450  69.204  1.00  0.00    -0.177 A  
HETATM   32  C   UNL     1      -8.608  14.965  69.994  1.00  0.00     0.522 A  
HETATM   33  C   UNL     1     -10.954   8.662  66.851  1.00  0.00     0.267 A  
HETATM   34  C   UNL     1     -10.512   9.291  68.058  1.00  0.00    -0.275 A  
BRANCH  18  35
HETATM   35  C   UNL     1     -11.457  12.574  70.340  1.00  0.00     0.384 C  
BRANCH  35  36
HETATM   36  N   UNL     1     -12.197  12.712  71.621  1.00  0.00     0.318 NA 
HETATM   37  C   UNL     1     -12.814  11.458  72.065  1.00  0.00    -0.159 C  
HETATM   38  C   UNL     1     -13.245  13.730  71.474  1.00  0.00    -0.341 C  
ENDBRANCH  35  36
ENDBRANCH  18  35
ENDBRANCH   2   3
TORSDOF 3
ENDMDL
MODEL       94
REMARK 921   NORMALIZED FREE ENERGY PREDICTED BY IDOCK:   31.12 KCAL/MOL
REMARK 922        TOTAL FREE ENERGY PREDICTED BY IDOCK:   35.79 KCAL/MOL
REMARK 923 INTER-LIGAND FREE ENERGY PREDICTED BY IDOCK:   34.77 KCAL/MOL
REMARK 924 INTRA-LIGAND FREE ENERGY PREDICTED BY IDOCK:    1.02 KCAL/MOL
REMARK 927      BINDING AFFINITY PREDICTED BY RF-SCORE:    0.00 PKD
ROOT
HETATM    1  C   UNL     1     -10.486  16.583  64.160  1.00  0.00     2.463 C  
HETATM    2  O   UNL     1     -10.700  17.156  65.441  1.00  0.00    -0.562 OA 
ENDROOT
BRANCH   2   3
HETATM    3  C   UNL     1     -10.860  16.253  66.466  1.00  0.00    -0.105 A  
HETATM    4  N   UNL     1     -12.130  15.895  66.803  1.00  0.00     0.983 NA 
HETATM    5  C   UNL     1     -12.306  14.879  67.661  1.00  0.00     0.333 A  
HETATM    6  C   UNL     1     -11.219  14.128  68.143  1.00  0.00    -0.299 A  
HETATM    7  C   UNL     1     -11.395  13.026  68.991  1.00  0.00    -0.340 A  
HETATM    8  C   UNL     1      -9.937  14.530  67.782  1.00  0.00    -0.225 A  
HETATM    9  C   UNL     1     -12.673  12.661  69.385  1.00  0.00     0.792 A  
HETATM   10  C   UNL     1      -9.707  15.683  67.019  1.00  0.00    -0.234 A  
HETATM   11  C   UNL     1     -13.766  13.411  68.966  1.00  0.00     5.653 A  
HETATM   12 BR   UNL     1     -12.913  11.137  70.472  1.00  0.00     0.012 Br 
HETATM   13  C   UNL     1      -8.260  16.246  66.843  1.00  0.00    -0.261 C  
HETATM   14  C   UNL     1     -13.571  14.511  68.116  1.00  0.00     5.877 A  
HETATM   15  C   UNL     1      -8.218  17.750  66.495  1.00  0.00    -0.300 A  
HETATM   16  C   UNL     1      -7.140  15.706  67.929  1.00  0.00    -0.138 C  
HETATM   17  O   UNL     1      -6.934  14.288  67.576  1.00  0.00    -0.180 OA 
HETATM   18  C   UNL     1      -5.701  16.280  67.689  1.00  0.00    -0.168 C  
HETATM   19  C   UNL     1      -7.528  15.640  69.454  1.00  0.00    -0.221 A  
HETATM   20  C   UNL     1      -8.646  18.768  67.362  1.00  0.00    -0.289 A  
HETATM   21  C   UNL     1      -6.848  13.808  72.693  1.00  0.00     3.712 A  
HETATM   22  C   UNL     1      -8.678  16.321  69.905  1.00  0.00     0.770 A  
HETATM   23  C   UNL     1      -8.772  20.092  66.928  1.00  0.00    -0.417 A  
HETATM   24  H   UNL     1      -6.290  13.977  68.200  1.00  0.00     0.000 HD 
HETATM   25  C   UNL     1      -9.226  16.145  71.173  1.00  0.00     4.003 A  
HETATM   26  C   UNL     1      -5.696  13.083  72.421  1.00  0.00     0.830 A  
HETATM   27  C   UNL     1      -8.452  20.434  65.621  1.00  0.00     0.331 A  
HETATM   28  C   UNL     1      -8.605  15.306  72.074  1.00  0.00     6.284 A  
HETATM   29  C   UNL     1      -7.971  19.460  64.755  1.00  0.00     2.304 A  
HETATM   30  C   UNL     1      -5.128  13.165  71.163  1.00  0.00    -0.159 A  
HETATM   31  C   UNL     1      -5.712  13.983  70.186  1.00  0.00    -0.128 A  
HETATM   32  C   UNL     1      -7.850  18.134  65.186  1.00  0.00     1.877 A  
HETATM   33  C   UNL     1      -7.432  14.641  71.724  1.00  0.00     3.361 A  
HETATM   34  C   UNL     1      -6.869  14.777  70.415  1.00  0.00     0.105 A  
BRANCH  18  35
HETATM   35  C   UNL     1      -5.409  17.753  67.987  1.00  0.00    -0.145 C  
BRANCH  35  36
HETATM   36  N   UNL     1      -6.004  18.209  69.271  1.00  0.00    -0.225 NA 
HETATM   37  C   UNL     1      -5.973  19.665  69.432  1.00  0.00    -0.269 C  
HETATM   38  C   UNL     1      -5.282  17.592  70.391  1.00  0.00    -0.252 C  
ENDBRANCH  35  36
ENDBRANCH  18  35
ENDBRANCH   2   3
TORSDOF 3
ENDMDL
MODEL       95
REMARK 921   NORMALIZED FREE ENERGY PREDICTED BY IDOCK:   31.79 KCAL/MOL
REMARK 922        TOTAL FREE ENERGY PREDICTED BY IDOCK:   36.59 KCAL/MOL
REMARK 923 INTER-LIGAND FREE ENERGY PREDICTED BY IDOCK:   37.02 KCAL/MOL
REMARK 924 INTRA-LIGAND FREE ENERGY PREDICTED BY IDOCK:   -0.43 KCAL/MOL
REMARK 927      BINDING AFFINITY PREDICTED BY RF-SCORE:    0.00 PKD
ROOT
HETATM    1  C   UNL     1      -8.716  10.008  64.806  1.00  0.00    -0.187 C  
HETATM    2  O   UNL     1      -8.931   9.907  66.206  1.00  0.00    -0.141 OA 
ENDROOT
BRANCH   2   3
HETATM    3  C   UNL     1      -9.133   8.630  66.675  1.00  0.00    -0.165 A  
HETATM    4  N   UNL     1      -9.318   7.640  65.758  1.00  0.00     0.064 NA 
HETATM    5  C   UNL     1      -9.324   6.366  66.179  1.00  0.00    -0.076 A  
HETATM    6  C   UNL     1      -9.057   6.035  67.520  1.00  0.00    -0.109 A  
HETATM    7  C   UNL     1      -9.001   4.704  67.959  1.00  0.00    -0.131 A  
HETATM    8  C   UNL     1      -8.882   7.074  68.427  1.00  0.00    -0.123 A  
HETATM    9  C   UNL     1      -9.224   3.674  67.058  1.00  0.00    -0.186 A  
HETATM   10  C   UNL     1      -9.028   8.417  68.055  1.00  0.00    -0.138 A  
HETATM   11  C   UNL     1      -9.538   3.969  65.736  1.00  0.00    -0.191 A  
HETATM   12 BR   UNL     1      -9.081   1.883  67.636  1.00  0.00    -0.188 Br 
HETATM   13  C   UNL     1      -9.076   9.543  69.137  1.00  0.00    -0.152 C  
HETATM   14  C   UNL     1      -9.590   5.306  65.314  1.00  0.00     0.107 A  
HETATM   15  C   UNL     1      -9.785  10.831  68.664  1.00  0.00    -0.187 A  
HETATM   16  C   UNL     1      -9.394   9.046  70.679  1.00  0.00    -0.234 C  
HETATM   17  O   UNL     1      -8.182   8.312  71.091  1.00  0.00    -0.102 OA 
HETATM   18  C   UNL     1      -9.401  10.212  71.729  1.00  0.00     3.868 C  
HETATM   19  C   UNL     1     -10.544   7.998  70.920  1.00  0.00    -0.233 A  
HETATM   20  C   UNL     1     -11.151  10.902  68.347  1.00  0.00    -0.320 A  
HETATM   21  C   UNL     1     -11.696   5.208  73.200  1.00  0.00    -0.189 A  
HETATM   22  C   UNL     1     -11.473   7.743  69.889  1.00  0.00     0.101 A  
HETATM   23  C   UNL     1     -11.702  12.033  67.737  1.00  0.00    -0.379 A  
HETATM   24  H   UNL     1      -8.365   8.026  71.978  1.00  0.00     0.000 HD 
HETATM   25  C   UNL     1     -12.381   6.687  69.918  1.00  0.00     0.558 A  
HETATM   26  C   UNL     1     -10.872   5.335  74.311  1.00  0.00     0.031 A  
HETATM   27  C   UNL     1     -10.903  13.132  67.449  1.00  0.00    -0.269 A  
HETATM   28  C   UNL     1     -12.431   5.861  71.021  1.00  0.00     1.238 A  
HETATM   29  C   UNL     1      -9.559  13.114  67.801  1.00  0.00    -0.208 A  
HETATM   30  C   UNL     1      -9.910   6.327  74.327  1.00  0.00    -0.297 A  
HETATM   31  C   UNL     1      -9.783   7.195  73.233  1.00  0.00    -0.251 A  
HETATM   32  C   UNL     1      -9.005  11.980  68.406  1.00  0.00    -0.153 A  
HETATM   33  C   UNL     1     -11.585   6.083  72.106  1.00  0.00    -0.348 A  
HETATM   34  C   UNL     1     -10.620   7.139  72.085  1.00  0.00    -0.238 A  
BRANCH  18  35
HETATM   35  C   UNL     1     -10.543  11.232  71.726  1.00  0.00     6.716 C  
BRANCH  35  36
HETATM   36  N   UNL     1     -11.125  11.446  73.078  1.00  0.00    10.036 NA 
HETATM   37  C   UNL     1     -10.961  10.288  73.962  1.00  0.00    15.801 C  
HETATM   38  C   UNL     1     -12.555  11.749  72.953  1.00  0.00     3.699 C  
ENDBRANCH  35  36
ENDBRANCH  18  35
ENDBRANCH   2   3
TORSDOF 3
ENDMDL
MODEL       96
REMARK 921   NORMALIZED FREE ENERGY PREDICTED BY IDOCK:   34.19 KCAL/MOL
REMARK 922        TOTAL FREE ENERGY PREDICTED BY IDOCK:   39.41 KCAL/MOL
REMARK 923 INTER-LIGAND FREE ENERGY PREDICTED BY IDOCK:   18.35 KCAL/MOL
REMARK 924 INTRA-LIGAND FREE ENERGY PREDICTED BY IDOCK:   21.06 KCAL/MOL
REMARK 927      BINDING AFFINITY PREDICTED BY RF-SCORE:    0.00 PKD
ROOT
HETATM    1  C   UNL     1      -7.581  13.120  66.209  1.00  0.00     1.880 C  
HETATM    2  O   UNL     1      -6.935  12.588  67.357  1.00  0.00    -0.139 OA 
ENDROOT
BRANCH   2   3
HETATM    3  C   UNL     1      -7.749  11.873  68.206  1.00  0.00    -0.127 A  
HETATM    4  N   UNL     1      -7.750  10.516  68.089  1.00  0.00    -0.095 NA 
HETATM    5  C   UNL     1      -8.382   9.791  69.024  1.00  0.00    -0.127 A  
HETATM    6  C   UNL     1      -8.957  10.395  70.157  1.00  0.00     0.432 A  
HETATM    7  C   UNL     1      -9.566   9.642  71.171  1.00  0.00     0.123 A  
HETATM    8  C   UNL     1      -8.942  11.784  70.236  1.00  0.00     3.964 A  
HETATM    9  C   UNL     1      -9.619   8.261  71.063  1.00  0.00    -0.160 A  
HETATM   10  C   UNL     1      -8.435  12.580  69.200  1.00  0.00     0.624 A  
HETATM   11  C   UNL     1      -9.104   7.637  69.933  1.00  0.00    -0.147 A  
HETATM   12 BR   UNL     1     -10.379   7.245  72.461  1.00  0.00    -0.280 Br 
HETATM   13  C   UNL     1      -8.658  14.127  69.203  1.00  0.00     0.217 C  
HETATM   14  C   UNL     1      -8.497   8.405  68.927  1.00  0.00    -0.124 A  
HETATM   15  C   UNL     1      -8.567  14.770  67.802  1.00  0.00    -0.169 A  
HETATM   16  C   UNL     1      -9.856  14.679  70.195  1.00  0.00     0.636 C  
HETATM   17  O   UNL     1      -9.336  14.468  71.560  1.00  0.00     2.862 OA 
HETATM   18  C   UNL     1     -10.018  16.239  70.181  1.00  0.00     0.396 C  
HETATM   19  C   UNL     1     -11.236  13.921  70.219  1.00  0.00     0.122 A  
HETATM   20  C   UNL     1      -9.474  14.512  66.761  1.00  0.00    -0.284 A  
HETATM   21  C   UNL     1     -14.217  13.086  72.394  1.00  0.00    -0.166 A  
HETATM   22  C   UNL     1     -11.536  13.000  69.193  1.00  0.00    -0.368 A  
HETATM   23  C   UNL     1      -9.237  14.963  65.458  1.00  0.00     0.337 A  
HETATM   24  H   UNL     1     -10.026  14.786  72.131  1.00  0.00     0.000 HD 
HETATM   25  C   UNL     1     -12.617  12.123  69.241  1.00  0.00     0.513 A  
HETATM   26  C   UNL     1     -14.083  13.948  73.474  1.00  0.00     3.215 A  
HETATM   27  C   UNL     1      -8.097  15.701  65.169  1.00  0.00     4.863 A  
HETATM   28  C   UNL     1     -13.486  12.168  70.311  1.00  0.00     1.799 A  
HETATM   29  C   UNL     1      -7.209  16.021  66.189  1.00  0.00     1.107 A  
HETATM   30  C   UNL     1     -13.002  14.809  73.521  1.00  0.00    -0.449 A  
HETATM   31  C   UNL     1     -12.064  14.808  72.478  1.00  0.00    -0.318 A  
HETATM   32  C   UNL     1      -7.442  15.565  67.492  1.00  0.00    -0.209 A  
HETATM   33  C   UNL     1     -13.290  13.090  71.338  1.00  0.00    -0.183 A  
HETATM   34  C   UNL     1     -12.167  13.977  71.329  1.00  0.00    -0.392 A  
BRANCH  18  35
HETATM   35  C   UNL     1     -10.598  16.934  68.946  1.00  0.00    -0.353 C  
BRANCH  35  36
HETATM   36  N   UNL     1     -10.286  16.215  67.682  1.00  0.00    -0.259 NA 
HETATM   37  C   UNL     1      -9.849  17.110  66.607  1.00  0.00    -0.289 C  
HETATM   38  C   UNL     1     -11.472  15.477  67.233  1.00  0.00    -0.102 C  
ENDBRANCH  35  36
ENDBRANCH  18  35
ENDBRANCH   2   3
TORSDOF 3
ENDMDL
MODEL       97
REMARK 921   NORMALIZED FREE ENERGY PREDICTED BY IDOCK:   35.82 KCAL/MOL
REMARK 922        TOTAL FREE ENERGY PREDICTED BY IDOCK:   41.32 KCAL/MOL
REMARK 923 INTER-LIGAND FREE ENERGY PREDICTED BY IDOCK:   41.75 KCAL/MOL
REMARK 924 INTRA-LIGAND FREE ENERGY PREDICTED BY IDOCK:   -0.43 KCAL/MOL
REMARK 927      BINDING AFFINITY PREDICTED BY RF-SCORE:    0.00 PKD
ROOT
HETATM    1  C   UNL     1      -7.410  12.475  65.183  1.00  0.00     5.148 C  
HETATM    2  O   UNL     1      -7.938  13.217  66.273  1.00  0.00     0.829 OA 
ENDROOT
BRANCH   2   3
HETATM    3  C   UNL     1      -7.725  14.575  66.213  1.00  0.00     1.903 A  
HETATM    4  N   UNL     1      -6.582  15.012  65.615  1.00  0.00     6.608 NA 
HETATM    5  C   UNL     1      -6.444  16.324  65.373  1.00  0.00     4.885 A  
HETATM    6  C   UNL     1      -7.483  17.234  65.641  1.00  0.00     0.482 A  
HETATM    7  C   UNL     1      -7.374  18.598  65.336  1.00  0.00     0.219 A  
HETATM    8  C   UNL     1      -8.631  16.750  66.260  1.00  0.00    -0.340 A  
HETATM    9  C   UNL     1      -6.207  19.081  64.763  1.00  0.00    -0.209 A  
HETATM   10  C   UNL     1      -8.746  15.416  66.674  1.00  0.00    -0.332 A  
HETATM   11  C   UNL     1      -5.143  18.217  64.530  1.00  0.00    -0.038 A  
HETATM   12 BR   UNL     1      -6.087  20.904  64.291  1.00  0.00    -0.344 Br 
HETATM   13  C   UNL     1      -9.932  14.963  67.585  1.00  0.00    -0.226 C  
HETATM   14  C   UNL     1      -5.270  16.855  64.841  1.00  0.00     3.071 A  
HETATM   15  C   UNL     1      -9.637  13.684  68.398  1.00  0.00    -0.203 A  
HETATM   16  C   UNL     1     -10.738  16.171  68.369  1.00  0.00    -0.298 C  
HETATM   17  O   UNL     1     -11.461  16.890  67.303  1.00  0.00     0.278 OA 
HETATM   18  C   UNL     1     -11.936  15.664  69.246  1.00  0.00    -0.338 C  
HETATM   19  C   UNL     1      -9.908  17.313  69.068  1.00  0.00    -0.237 A  
HETATM   20  C   UNL     1      -8.664  13.604  69.408  1.00  0.00     0.872 A  
HETATM   21  C   UNL     1      -9.993  20.955  70.086  1.00  0.00     1.409 A  
HETATM   22  C   UNL     1      -8.526  17.129  69.284  1.00  0.00     0.149 A  
HETATM   23  C   UNL     1      -8.300  12.379  69.976  1.00  0.00     3.140 A  
HETATM   24  H   UNL     1     -11.925  17.585  67.755  1.00  0.00     0.000 HD 
HETATM   25  C   UNL     1      -7.669  18.151  69.684  1.00  0.00     0.624 A  
HETATM   26  C   UNL     1     -11.331  21.300  69.949  1.00  0.00     3.137 A  
HETATM   27  C   UNL     1      -8.917  11.205  69.563  1.00  0.00     0.482 A  
HETATM   28  C   UNL     1      -8.178  19.407  69.938  1.00  0.00     0.746 A  
HETATM   29  C   UNL     1      -9.923  11.258  68.607  1.00  0.00    -0.210 A  
HETATM   30  C   UNL     1     -12.231  20.349  69.502  1.00  0.00     6.618 A  
HETATM   31  C   UNL     1     -11.786  19.053  69.204  1.00  0.00     4.796 A  
HETATM   32  C   UNL     1     -10.284  12.483  68.033  1.00  0.00    -0.225 A  
HETATM   33  C   UNL     1      -9.542  19.655  69.804  1.00  0.00     0.247 A  
HETATM   34  C   UNL     1     -10.438  18.630  69.359  1.00  0.00     0.527 A  
BRANCH  18  35
HETATM   35  C   UNL     1     -11.660  14.888  70.537  1.00  0.00    -0.286 C  
BRANCH  35  36
HETATM   36  N   UNL     1     -12.753  15.027  71.535  1.00  0.00    -0.315 NA 
HETATM   37  C   UNL     1     -12.472  16.043  72.554  1.00  0.00    -0.473 C  
HETATM   38  C   UNL     1     -12.976  13.738  72.200  1.00  0.00    -0.343 C  
ENDBRANCH  35  36
ENDBRANCH  18  35
ENDBRANCH   2   3
TORSDOF 3
ENDMDL
MODEL       98
REMARK 921   NORMALIZED FREE ENERGY PREDICTED BY IDOCK:   38.98 KCAL/MOL
REMARK 922        TOTAL FREE ENERGY PREDICTED BY IDOCK:   45.03 KCAL/MOL
REMARK 923 INTER-LIGAND FREE ENERGY PREDICTED BY IDOCK:   45.63 KCAL/MOL
REMARK 924 INTRA-LIGAND FREE ENERGY PREDICTED BY IDOCK:   -0.59 KCAL/MOL
REMARK 927      BINDING AFFINITY PREDICTED BY RF-SCORE:    0.00 PKD
ROOT
HETATM    1  C   UNL     1     -11.773  12.005  65.407  1.00  0.00    -0.255 C  
HETATM    2  O   UNL     1     -11.110  11.655  66.613  1.00  0.00    -0.287 OA 
ENDROOT
BRANCH   2   3
HETATM    3  C   UNL     1     -10.458  12.689  67.243  1.00  0.00    -0.228 A  
HETATM    4  N   UNL     1     -10.302  13.853  66.553  1.00  0.00    -0.281 NA 
HETATM    5  C   UNL     1      -9.845  14.932  67.207  1.00  0.00    -0.229 A  
HETATM    6  C   UNL     1      -9.612  14.906  68.594  1.00  0.00    -0.222 A  
HETATM    7  C   UNL     1      -9.194  16.043  69.299  1.00  0.00    -0.243 A  
HETATM    8  C   UNL     1      -9.776  13.696  69.261  1.00  0.00     0.470 A  
HETATM    9  C   UNL     1      -8.987  17.234  68.619  1.00  0.00    -0.265 A  
HETATM   10  C   UNL     1     -10.096  12.512  68.584  1.00  0.00    -0.139 A  
HETATM   11  C   UNL     1      -9.160  17.281  67.241  1.00  0.00    -0.231 A  
HETATM   12 BR   UNL     1      -8.489  18.780  69.579  1.00  0.00     0.639 Br 
HETATM   13  C   UNL     1     -10.025  11.132  69.314  1.00  0.00    -0.034 C  
HETATM   14  C   UNL     1      -9.580  16.133  66.551  1.00  0.00    -0.285 A  
HETATM   15  C   UNL     1      -9.842   9.932  68.359  1.00  0.00    -0.166 A  
HETATM   16  C   UNL     1      -9.153  11.103  70.715  1.00  0.00     4.771 C  
HETATM   17  O   UNL     1      -9.959  11.886  71.672  1.00  0.00     8.339 OA 
HETATM   18  C   UNL     1      -9.139   9.703  71.421  1.00  0.00     0.747 C  
HETATM   19  C   UNL     1      -7.754  11.824  70.756  1.00  0.00     4.808 A  
HETATM   20  C   UNL     1      -8.694   9.721  67.577  1.00  0.00    -0.125 A  
HETATM   21  C   UNL     1      -5.307  13.601  73.030  1.00  0.00    -0.052 A  
HETATM   22  C   UNL     1      -7.134  12.201  69.546  1.00  0.00     0.191 A  
HETATM   23  C   UNL     1      -8.657   8.735  66.586  1.00  0.00    -0.120 A  
HETATM   24  H   UNL     1      -9.457  11.870  72.478  1.00  0.00     0.000 HD 
HETATM   25  C   UNL     1      -6.018  13.031  69.480  1.00  0.00    -0.110 A  
HETATM   26  C   UNL     1      -5.773  13.305  74.303  1.00  0.00     0.302 A  
HETATM   27  C   UNL     1      -9.760   7.920  66.367  1.00  0.00    -0.235 A  
HETATM   28  C   UNL     1      -5.436  13.484  70.646  1.00  0.00    -0.155 A  
HETATM   29  C   UNL     1     -10.890   8.066  67.163  1.00  0.00    -0.150 A  
HETATM   30  C   UNL     1      -6.910  12.531  74.443  1.00  0.00     4.219 A  
HETATM   31  C   UNL     1      -7.570  12.049  73.304  1.00  0.00    16.234 A  
HETATM   32  C   UNL     1     -10.931   9.058  68.151  1.00  0.00     0.015 A  
HETATM   33  C   UNL     1      -5.954  13.110  71.883  1.00  0.00     0.977 A  
HETATM   34  C   UNL     1      -7.121  12.286  71.976  1.00  0.00     8.060 A  
BRANCH  18  35
HETATM   35  C   UNL     1      -8.350   8.546  70.801  1.00  0.00    -0.139 C  
BRANCH  35  36
HETATM   36  N   UNL     1      -7.226   8.092  71.661  1.00  0.00    -0.068 NA 
HETATM   37  C   UNL     1      -5.929   8.630  71.239  1.00  0.00    -0.044 C  
HETATM   38  C   UNL     1      -7.158   6.626  71.646  1.00  0.00    -0.080 C  
ENDBRANCH  35  36
ENDBRANCH  18  35
ENDBRANCH   2   3
TORSDOF 3
ENDMDL
MODEL       99
REMARK 921   NORMALIZED FREE ENERGY PREDICTED BY IDOCK:   43.51 KCAL/MOL
REMARK 922        TOTAL FREE ENERGY PREDICTED BY IDOCK:   50.36 KCAL/MOL
REMARK 923 INTER-LIGAND FREE ENERGY PREDICTED BY IDOCK:   36.87 KCAL/MOL
REMARK 924 INTRA-LIGAND FREE ENERGY PREDICTED BY IDOCK:   13.49 KCAL/MOL
REMARK 927      BINDING AFFINITY PREDICTED BY RF-SCORE:    0.00 PKD
ROOT
HETATM    1  C   UNL     1      -7.399  14.264  70.945  1.00  0.00     1.748 C  
HETATM    2  O   UNL     1      -8.700  13.729  70.748  1.00  0.00     4.003 OA 
ENDROOT
BRANCH   2   3
HETATM    3  C   UNL     1      -9.267  14.006  69.526  1.00  0.00     0.780 A  
HETATM    4  N   UNL     1      -9.595  12.953  68.727  1.00  0.00     0.009 NA 
HETATM    5  C   UNL     1     -10.320  13.186  67.622  1.00  0.00    -0.223 A  
HETATM    6  C   UNL     1     -10.816  14.468  67.325  1.00  0.00    -0.297 A  
HETATM    7  C   UNL     1     -11.625  14.712  66.207  1.00  0.00    -0.344 A  
HETATM    8  C   UNL     1     -10.452  15.518  68.162  1.00  0.00    -0.259 A  
HETATM    9  C   UNL     1     -11.945  13.668  65.352  1.00  0.00    -0.378 A  
HETATM   10  C   UNL     1      -9.565  15.342  69.232  1.00  0.00    -0.249 A  
HETATM   11  C   UNL     1     -11.431  12.399  65.588  1.00  0.00    -0.412 A  
HETATM   12 BR   UNL     1     -13.089  13.984  63.884  1.00  0.00     1.611 Br 
HETATM   13  C   UNL     1      -8.980  16.574  69.994  1.00  0.00     1.258 C  
HETATM   14  C   UNL     1     -10.623  12.173  66.714  1.00  0.00    -0.256 A  
HETATM   15  C   UNL     1      -7.649  16.281  70.720  1.00  0.00     3.076 A  
HETATM   16  C   UNL     1      -9.094  18.024  69.212  1.00  0.00     0.247 C  
HETATM   17  O   UNL     1     -10.534  18.343  69.227  1.00  0.00    -0.419 OA 
HETATM   18  C   UNL     1      -8.518  19.230  70.032  1.00  0.00     1.096 C  
HETATM   19  C   UNL     1      -8.730  18.094  67.682  1.00  0.00    -0.249 A  
HETATM   20  C   UNL     1      -6.451  15.958  70.061  1.00  0.00    -0.055 A  
HETATM   21  C   UNL     1      -9.463  19.931  64.457  1.00  0.00     3.958 A  
HETATM   22  C   UNL     1      -8.027  17.024  67.088  1.00  0.00    -0.214 A  
HETATM   23  C   UNL     1      -5.329  15.510  70.765  1.00  0.00    -0.130 A  
HETATM   24  H   UNL     1     -10.600  19.176  68.777  1.00  0.00     0.000 HD 
HETATM   25  C   UNL     1      -7.855  16.888  65.713  1.00  0.00     0.409 A  
HETATM   26  C   UNL     1     -10.154  21.060  64.876  1.00  0.00     2.271 A  
HETATM   27  C   UNL     1      -5.369  15.395  72.148  1.00  0.00     0.205 A  
HETATM   28  C   UNL     1      -8.343  17.859  64.864  1.00  0.00     4.018 A  
HETATM   29  C   UNL     1      -6.521  15.760  72.834  1.00  0.00     3.824 A  
HETATM   30  C   UNL     1     -10.410  21.234  66.223  1.00  0.00     2.601 A  
HETATM   31  C   UNL     1      -9.963  20.278  67.147  1.00  0.00    -0.593 A  
HETATM   32  C   UNL     1      -7.647  16.203  72.130  1.00  0.00     8.948 A  
HETATM   33  C   UNL     1      -8.998  18.977  65.377  1.00  0.00     1.315 A  
HETATM   34  C   UNL     1      -9.219  19.122  66.784  1.00  0.00    -0.356 A  
BRANCH  18  35
HETATM   35  C   UNL     1      -7.006  19.359  70.238  1.00  0.00     0.331 C  
BRANCH  35  36
HETATM   36  N   UNL     1      -6.306  19.892  69.040  1.00  0.00    -0.294 NA 
HETATM   37  C   UNL     1      -7.106  20.872  68.298  1.00  0.00     0.101 C  
HETATM   38  C   UNL     1      -5.961  18.784  68.141  1.00  0.00    -0.211 C  
ENDBRANCH  35  36
ENDBRANCH  18  35
ENDBRANCH   2   3
TORSDOF 3
ENDMDL
MODEL      100
REMARK 921   NORMALIZED FREE ENERGY PREDICTED BY IDOCK:   43.58 KCAL/MOL
REMARK 922        TOTAL FREE ENERGY PREDICTED BY IDOCK:   50.44 KCAL/MOL
REMARK 923 INTER-LIGAND FREE ENERGY PREDICTED BY IDOCK:   26.75 KCAL/MOL
REMARK 924 INTRA-LIGAND FREE ENERGY PREDICTED BY IDOCK:   23.69 KCAL/MOL
REMARK 927      BINDING AFFINITY PREDICTED BY RF-SCORE:    0.00 PKD
ROOT
HETATM    1  C   UNL     1      -6.930   9.822  64.942  1.00  0.00    -0.124 C  
HETATM    2  O   UNL     1      -6.698   9.957  66.336  1.00  0.00    -0.080 OA 
ENDROOT
BRANCH   2   3
HETATM    3  C   UNL     1      -6.947  11.208  66.851  1.00  0.00    -0.131 A  
HETATM    4  N   UNL     1      -5.981  11.780  67.622  1.00  0.00    -0.061 NA 
HETATM    5  C   UNL     1      -6.117  13.068  67.973  1.00  0.00    -0.112 A  
HETATM    6  C   UNL     1      -7.181  13.852  67.493  1.00  0.00    -0.178 A  
HETATM    7  C   UNL     1      -7.300  15.214  67.804  1.00  0.00    -0.182 A  
HETATM    8  C   UNL     1      -8.152  13.229  66.715  1.00  0.00     0.223 A  
HETATM    9  C   UNL     1      -6.354  15.817  68.618  1.00  0.00    -0.107 A  
HETATM   10  C   UNL     1      -8.129  11.851  66.462  1.00  0.00     0.006 A  
HETATM   11  C   UNL     1      -5.317  15.059  69.150  1.00  0.00    -0.094 A  
HETATM   12 BR   UNL     1      -6.478  17.664  68.981  1.00  0.00    -0.236 Br 
HETATM   13  C   UNL     1      -9.355  11.141  65.805  1.00  0.00    -0.238 C  
HETATM   14  C   UNL     1      -5.212  13.697  68.828  1.00  0.00    -0.074 A  
HETATM   15  C   UNL     1      -9.429   9.627  66.101  1.00  0.00    -0.274 A  
HETATM   16  C   UNL     1     -10.779  11.975  65.851  1.00  0.00    -0.275 C  
HETATM   17  O   UNL     1     -10.579  13.106  64.924  1.00  0.00    -0.313 OA 
HETATM   18  C   UNL     1     -11.970  11.230  65.153  1.00  0.00     0.822 C  
HETATM   19  C   UNL     1     -11.203  12.685  67.191  1.00  0.00    -0.348 A  
HETATM   20  C   UNL     1      -9.641   9.088  67.380  1.00  0.00    -0.195 A  
HETATM   21  C   UNL     1     -13.147  15.605  68.610  1.00  0.00     2.249 A  
HETATM   22  C   UNL     1     -10.542  12.348  68.391  1.00  0.00    -0.251 A  
HETATM   23  C   UNL     1      -9.503   7.719  67.628  1.00  0.00    -0.168 A  
HETATM   24  H   UNL     1     -11.398  13.585  64.950  1.00  0.00     0.000 HD 
HETATM   25  C   UNL     1     -10.684  13.068  69.575  1.00  0.00     0.253 A  
HETATM   26  C   UNL     1     -13.893  16.055  67.529  1.00  0.00     7.842 A  
HETATM   27  C   UNL     1      -9.171   6.850  66.596  1.00  0.00    -0.185 A  
HETATM   28  C   UNL     1     -11.547  14.143  69.620  1.00  0.00    -0.349 A  
HETATM   29  C   UNL     1      -9.011   7.345  65.307  1.00  0.00     0.245 A  
HETATM   30  C   UNL     1     -13.760  15.422  66.307  1.00  0.00     4.644 A  
HETATM   31  C   UNL     1     -12.886  14.332  66.177  1.00  0.00    -0.000 A  
HETATM   32  C   UNL     1      -9.142   8.717  65.060  1.00  0.00     0.023 A  
HETATM   33  C   UNL     1     -12.280  14.504  68.491  1.00  0.00    -0.164 A  
HETATM   34  C   UNL     1     -12.125  13.802  67.254  1.00  0.00    -0.393 A  
BRANCH  18  35
HETATM   35  C   UNL     1     -12.576   9.984  65.804  1.00  0.00     9.921 C  
BRANCH  35  36
HETATM   36  N   UNL     1     -12.302   9.908  67.263  1.00  0.00     4.128 NA 
HETATM   37  C   UNL     1     -11.712  11.138  67.801  1.00  0.00    -0.139 C  
HETATM   38  C   UNL     1     -11.392   8.788  67.533  1.00  0.00     1.071 C  
ENDBRANCH  35  36
ENDBRANCH  18  35
ENDBRANCH   2   3
TORSDOF 3
ENDMDL
MODEL      101
REMARK 921   NORMALIZED FREE ENERGY PREDICTED BY IDOCK:   45.47 KCAL/MOL
REMARK 922        TOTAL FREE ENERGY PREDICTED BY IDOCK:   52.66 KCAL/MOL
REMARK 923 INTER-LIGAND FREE ENERGY PREDICTED BY IDOCK:   44.01 KCAL/MOL
REMARK 924 INTRA-LIGAND FREE ENERGY PREDICTED BY IDOCK:    8.66 KCAL/MOL
REMARK 927      BINDING AFFINITY PREDICTED BY RF-SCORE:    0.00 PKD
ROOT
HETATM    1  C   UNL     1      -7.087  16.377  63.887  1.00  0.00    15.981 C  
HETATM    2  O   UNL     1      -7.132  16.497  65.302  1.00  0.00     1.887 OA 
ENDROOT
BRANCH   2   3
HETATM    3  C   UNL     1      -7.746  15.455  65.957  1.00  0.00     1.902 A  
HETATM    4  N   UNL     1      -7.646  14.213  65.406  1.00  0.00     6.025 NA 
HETATM    5  C   UNL     1      -8.068  13.158  66.119  1.00  0.00     1.411 A  
HETATM    6  C   UNL     1      -8.522  13.300  67.442  1.00  0.00    -0.206 A  
HETATM    7  C   UNL     1      -8.907  12.197  68.218  1.00  0.00    -0.182 A  
HETATM    8  C   UNL     1      -8.617  14.585  67.966  1.00  0.00    -0.162 A  
HETATM    9  C   UNL     1      -8.854  10.923  67.673  1.00  0.00    -0.133 A  
HETATM   10  C   UNL     1      -8.340  15.722  67.197  1.00  0.00    -0.231 A  
HETATM   11  C   UNL     1      -8.457  10.753  66.352  1.00  0.00    -0.158 A  
HETATM   12 BR   UNL     1      -9.309   9.434  68.740  1.00  0.00    -0.148 Br 
HETATM   13  C   UNL     1      -8.695  17.149  67.726  1.00  0.00    -0.220 C  
HETATM   14  C   UNL     1      -8.074  11.868  65.590  1.00  0.00     0.833 A  
HETATM   15  C   UNL     1      -8.867  18.201  66.609  1.00  0.00    -0.287 A  
HETATM   16  C   UNL     1      -9.779  17.205  68.970  1.00  0.00    -0.212 C  
HETATM   17  O   UNL     1      -9.049  16.650  70.126  1.00  0.00     1.048 OA 
HETATM   18  C   UNL     1     -10.077  18.657  69.481  1.00  0.00     0.243 C  
HETATM   19  C   UNL     1     -11.068  16.304  68.898  1.00  0.00    -0.345 A  
HETATM   20  C   UNL     1      -9.890  18.164  65.648  1.00  0.00     0.352 A  
HETATM   21  C   UNL     1     -13.614  14.455  70.999  1.00  0.00    -0.256 A  
HETATM   22  C   UNL     1     -11.433  15.716  67.668  1.00  0.00    -0.167 A  
HETATM   23  C   UNL     1      -9.886  19.024  64.544  1.00  0.00     5.290 A  
HETATM   24  H   UNL     1      -9.672  16.683  70.841  1.00  0.00     0.000 HD 
HETATM   25  C   UNL     1     -12.414  14.735  67.548  1.00  0.00     0.447 A  
HETATM   26  C   UNL     1     -13.400  14.949  72.279  1.00  0.00    -0.489 A  
HETATM   27  C   UNL     1      -8.871  19.957  64.387  1.00  0.00     4.388 A  
HETATM   28  C   UNL     1     -13.117  14.332  68.664  1.00  0.00     2.195 A  
HETATM   29  C   UNL     1      -7.875  20.057  65.350  1.00  0.00     0.164 A  
HETATM   30  C   UNL     1     -12.403  15.885  72.483  1.00  0.00    -0.575 A  
HETATM   31  C   UNL     1     -11.632  16.330  71.400  1.00  0.00    -0.424 A  
HETATM   32  C   UNL     1      -7.873  19.193  66.452  1.00  0.00    -0.296 A  
HETATM   33  C   UNL     1     -12.855  14.907  69.906  1.00  0.00    -0.035 A  
HETATM   34  C   UNL     1     -11.828  15.891  70.062  1.00  0.00    -0.322 A  
BRANCH  18  35
HETATM   35  C   UNL     1     -10.891  19.619  68.611  1.00  0.00     0.561 C  
BRANCH  35  36
HETATM   36  N   UNL     1     -11.347  18.998  67.340  1.00  0.00     0.131 NA 
HETATM   37  C   UNL     1     -12.007  19.950  66.441  1.00  0.00     2.525 C  
HETATM   38  C   UNL     1     -12.277  17.902  67.636  1.00  0.00     3.471 C  
ENDBRANCH  35  36
ENDBRANCH  18  35
ENDBRANCH   2   3
TORSDOF 3
ENDMDL
MODEL      102
REMARK 921   NORMALIZED FREE ENERGY PREDICTED BY IDOCK:   47.34 KCAL/MOL
REMARK 922        TOTAL FREE ENERGY PREDICTED BY IDOCK:   54.86 KCAL/MOL
REMARK 923 INTER-LIGAND FREE ENERGY PREDICTED BY IDOCK:   55.04 KCAL/MOL
REMARK 924 INTRA-LIGAND FREE ENERGY PREDICTED BY IDOCK:   -0.18 KCAL/MOL
REMARK 927      BINDING AFFINITY PREDICTED BY RF-SCORE:    0.00 PKD
ROOT
HETATM    1  C   UNL     1     -12.312  15.645  71.405  1.00  0.00    -0.426 C  
HETATM    2  O   UNL     1     -10.945  15.424  71.088  1.00  0.00    -0.345 OA 
ENDROOT
BRANCH   2   3
HETATM    3  C   UNL     1     -10.659  15.371  69.743  1.00  0.00    -0.295 A  
HETATM    4  N   UNL     1     -11.058  16.418  68.969  1.00  0.00    -0.325 NA 
HETATM    5  C   UNL     1     -10.625  16.481  67.701  1.00  0.00    -0.321 A  
HETATM    6  C   UNL     1      -9.708  15.546  67.190  1.00  0.00    -0.226 A  
HETATM    7  C   UNL     1      -9.202  15.637  65.886  1.00  0.00    -0.330 A  
HETATM    8  C   UNL     1      -9.331  14.486  68.009  1.00  0.00    -0.201 A  
HETATM    9  C   UNL     1      -9.618  16.669  65.059  1.00  0.00     1.470 A  
HETATM   10  C   UNL     1      -9.886  14.298  69.282  1.00  0.00     0.100 A  
HETATM   11  C   UNL     1     -10.562  17.582  65.516  1.00  0.00    -0.097 A  
HETATM   12 BR   UNL     1      -8.886  16.829  63.327  1.00  0.00    21.987 Br 
HETATM   13  C   UNL     1      -9.637  12.974  70.072  1.00  0.00     3.030 C  
HETATM   14  C   UNL     1     -11.057  17.476  66.825  1.00  0.00     0.370 A  
HETATM   15  C   UNL     1     -10.715  12.673  71.136  1.00  0.00     5.085 A  
HETATM   16  C   UNL     1      -9.100  11.694  69.179  1.00  0.00     0.342 C  
HETATM   17  O   UNL     1      -7.721  12.057  68.799  1.00  0.00    -0.203 OA 
HETATM   18  C   UNL     1      -8.838  10.400  70.026  1.00  0.00     0.270 C  
HETATM   19  C   UNL     1      -9.783  11.392  67.793  1.00  0.00    -0.184 A  
HETATM   20  C   UNL     1     -12.057  12.390  70.834  1.00  0.00    -0.150 A  
HETATM   21  C   UNL     1      -9.187   9.923  64.358  1.00  0.00    -0.317 A  
HETATM   22  C   UNL     1     -11.017  12.001  67.484  1.00  0.00    -0.303 A  
HETATM   23  C   UNL     1     -13.031  12.320  71.835  1.00  0.00    -0.411 A  
HETATM   24  H   UNL     1      -7.412  11.321  68.285  1.00  0.00     0.000 HD 
HETATM   25  C   UNL     1     -11.588  11.977  66.213  1.00  0.00    -0.378 A  
HETATM   26  C   UNL     1      -7.983   9.247  64.498  1.00  0.00    -0.128 A  
HETATM   27  C   UNL     1     -12.684  12.510  73.166  1.00  0.00     3.438 A  
HETATM   28  C   UNL     1     -10.961  11.288  65.197  1.00  0.00    -0.216 A  
HETATM   29  C   UNL     1     -11.355  12.735  73.502  1.00  0.00    10.708 A  
HETATM   30  C   UNL     1      -7.331   9.274  65.717  1.00  0.00    -0.094 A  
HETATM   31  C   UNL     1      -7.896   9.971  66.795  1.00  0.00    -0.110 A  
HETATM   32  C   UNL     1     -10.379  12.812  72.501  1.00  0.00    14.619 A  
HETATM   33  C   UNL     1      -9.767  10.611  65.437  1.00  0.00    -0.306 A  
HETATM   34  C   UNL     1      -9.143  10.650  66.724  1.00  0.00    -0.167 A  
BRANCH  18  35
HETATM   35  C   UNL     1     -10.020   9.615  70.603  1.00  0.00    -0.231 C  
BRANCH  35  36
HETATM   36  N   UNL     1     -10.375   8.426  69.785  1.00  0.00    -0.212 NA 
HETATM   37  C   UNL     1     -11.324   7.532  70.456  1.00  0.00    -0.260 C  
HETATM   38  C   UNL     1      -9.158   7.671  69.466  1.00  0.00    -0.146 C  
ENDBRANCH  35  36
ENDBRANCH  18  35
ENDBRANCH   2   3
TORSDOF 3
ENDMDL
MODEL      103
REMARK 921   NORMALIZED FREE ENERGY PREDICTED BY IDOCK:   52.05 KCAL/MOL
REMARK 922        TOTAL FREE ENERGY PREDICTED BY IDOCK:   60.40 KCAL/MOL
REMARK 923 INTER-LIGAND FREE ENERGY PREDICTED BY IDOCK:   45.61 KCAL/MOL
REMARK 924 INTRA-LIGAND FREE ENERGY PREDICTED BY IDOCK:   14.79 KCAL/MOL
REMARK 927      BINDING AFFINITY PREDICTED BY RF-SCORE:    0.00 PKD
ROOT
HETATM    1  C   UNL     1     -10.614   6.639  63.231  1.00  0.00     9.024 C  
HETATM    2  O   UNL     1      -9.876   6.953  64.403  1.00  0.00     2.857 OA 
ENDROOT
BRANCH   2   3
HETATM    3  C   UNL     1      -9.731   8.297  64.659  1.00  0.00     2.116 A  
HETATM    4  N   UNL     1      -8.958   9.025  63.806  1.00  0.00     0.010 NA 
HETATM    5  C   UNL     1      -8.957  10.362  63.922  1.00  0.00    -0.227 A  
HETATM    6  C   UNL     1      -9.797  11.021  64.838  1.00  0.00    -0.327 A  
HETATM    7  C   UNL     1      -9.850  12.419  64.925  1.00  0.00    -0.122 A  
HETATM    8  C   UNL     1     -10.565  10.241  65.697  1.00  0.00    -0.044 A  
HETATM    9  C   UNL     1      -9.046  13.188  64.097  1.00  0.00     2.601 A  
HETATM   10  C   UNL     1     -10.471   8.843  65.715  1.00  0.00     1.014 A  
HETATM   11  C   UNL     1      -8.169  12.568  63.215  1.00  0.00     4.413 A  
HETATM   12 BR   UNL     1      -9.167  15.070  64.169  1.00  0.00     7.635 Br 
HETATM   13  C   UNL     1     -11.150   8.014  66.852  1.00  0.00     0.543 C  
HETATM   14  C   UNL     1      -8.130  11.167  63.141  1.00  0.00     0.310 A  
HETATM   15  C   UNL     1     -10.517   6.622  67.068  1.00  0.00    -0.369 A  
HETATM   16  C   UNL     1     -11.564   8.858  68.209  1.00  0.00     1.385 C  
HETATM   17  O   UNL     1     -12.684   9.720  67.784  1.00  0.00     4.127 OA 
HETATM   18  C   UNL     1     -12.267   7.984  69.305  1.00  0.00     2.283 C  
HETATM   19  C   UNL     1     -10.534   9.885  68.811  1.00  0.00    -0.234 A  
HETATM   20  C   UNL     1      -9.205   6.420  67.528  1.00  0.00    -0.112 A  
HETATM   21  C   UNL     1     -10.236  13.097  70.788  1.00  0.00     4.942 A  
HETATM   22  C   UNL     1      -9.189   9.843  68.388  1.00  0.00    -0.130 A  
HETATM   23  C   UNL     1      -8.615   5.152  67.519  1.00  0.00    -0.104 A  
HETATM   24  H   UNL     1     -12.923  10.205  68.564  1.00  0.00     0.000 HD 
HETATM   25  C   UNL     1      -8.259  10.836  68.688  1.00  0.00    -0.139 A  
HETATM   26  C   UNL     1     -11.510  13.278  71.308  1.00  0.00     1.689 A  
HETATM   27  C   UNL     1      -9.330   4.050  67.069  1.00  0.00    -0.204 A  
HETATM   28  C   UNL     1      -8.631  11.903  69.478  1.00  0.00     1.182 A  
HETATM   29  C   UNL     1     -10.648   4.208  66.660  1.00  0.00     0.767 A  
HETATM   30  C   UNL     1     -12.499  12.360  71.007  1.00  0.00    -0.353 A  
HETATM   31  C   UNL     1     -12.203  11.258  70.192  1.00  0.00    -0.410 A  
HETATM   32  C   UNL     1     -11.238   5.477  66.663  1.00  0.00     0.288 A  
HETATM   33  C   UNL     1      -9.928  11.987  69.983  1.00  0.00     2.192 A  
HETATM   34  C   UNL     1     -10.910  10.998  69.661  1.00  0.00    -0.241 A  
BRANCH  18  35
HETATM   35  C   UNL     1     -11.456   6.948  70.089  1.00  0.00    -0.303 C  
BRANCH  35  36
HETATM   36  N   UNL     1      -9.997   7.039  69.821  1.00  0.00    -0.172 NA 
HETATM   37  C   UNL     1      -9.530   6.047  68.848  1.00  0.00    -0.126 C  
HETATM   38  C   UNL     1      -9.257   6.856  71.076  1.00  0.00    -0.156 C  
ENDBRANCH  35  36
ENDBRANCH  18  35
ENDBRANCH   2   3
TORSDOF 3
ENDMDL
MODEL      104
REMARK 921   NORMALIZED FREE ENERGY PREDICTED BY IDOCK:   55.45 KCAL/MOL
REMARK 922        TOTAL FREE ENERGY PREDICTED BY IDOCK:   64.39 KCAL/MOL
REMARK 923 INTER-LIGAND FREE ENERGY PREDICTED BY IDOCK:   55.87 KCAL/MOL
REMARK 924 INTRA-LIGAND FREE ENERGY PREDICTED BY IDOCK:    8.52 KCAL/MOL
REMARK 927      BINDING AFFINITY PREDICTED BY RF-SCORE:    0.00 PKD
ROOT
HETATM    1  C   UNL     1      -6.949  15.639  72.254  1.00  0.00     4.660 C  
HETATM    2  O   UNL     1      -7.336  16.871  71.663  1.00  0.00     5.932 OA 
ENDROOT
BRANCH   2   3
HETATM    3  C   UNL     1      -7.221  16.923  70.293  1.00  0.00     1.610 A  
HETATM    4  N   UNL     1      -7.235  18.150  69.703  1.00  0.00     0.169 NA 
HETATM    5  C   UNL     1      -6.933  18.240  68.399  1.00  0.00    -0.245 A  
HETATM    6  C   UNL     1      -6.521  17.115  67.661  1.00  0.00    -0.164 A  
HETATM    7  C   UNL     1      -6.144  17.207  66.314  1.00  0.00    -0.101 A  
HETATM    8  C   UNL     1      -6.527  15.878  68.298  1.00  0.00    -0.124 A  
HETATM    9  C   UNL     1      -6.185  18.436  65.673  1.00  0.00    -0.262 A  
HETATM   10  C   UNL     1      -6.991  15.722  69.611  1.00  0.00    -0.157 A  
HETATM   11  C   UNL     1      -6.635  19.558  66.359  1.00  0.00    -0.196 A  
HETATM   12 BR   UNL     1      -5.614  18.570  63.879  1.00  0.00     0.460 Br 
HETATM   13  C   UNL     1      -7.223  14.298  70.210  1.00  0.00     0.464 C  
HETATM   14  C   UNL     1      -7.008  19.448  67.707  1.00  0.00    -0.272 A  
HETATM   15  C   UNL     1      -8.228  14.273  71.382  1.00  0.00     5.111 A  
HETATM   16  C   UNL     1      -7.331  13.066  69.116  1.00  0.00     0.143 C  
HETATM   17  O   UNL     1      -5.964  12.925  68.578  1.00  0.00    -0.061 OA 
HETATM   18  C   UNL     1      -7.535  11.656  69.771  1.00  0.00     0.591 C  
HETATM   19  C   UNL     1      -8.203  13.272  67.821  1.00  0.00    -0.168 A  
HETATM   20  C   UNL     1      -9.592  14.580  71.253  1.00  0.00     3.654 A  
HETATM   21  C   UNL     1      -8.569  12.245  64.198  1.00  0.00     2.025 A  
HETATM   22  C   UNL     1      -9.111  14.350  67.763  1.00  0.00    -0.192 A  
HETATM   23  C   UNL     1     -10.415  14.735  72.372  1.00  0.00     2.658 A  
HETATM   24  H   UNL     1      -6.027  12.217  67.948  1.00  0.00     0.000 HD 
HETATM   25  C   UNL     1      -9.758  14.748  66.596  1.00  0.00    -0.281 A  
HETATM   26  C   UNL     1      -7.730  11.144  64.086  1.00  0.00     0.848 A  
HETATM   27  C   UNL     1      -9.899  14.565  73.650  1.00  0.00     7.532 A  
HETATM   28  C   UNL     1      -9.558  14.038  65.430  1.00  0.00     0.027 A  
HETATM   29  C   UNL     1      -8.567  14.205  73.810  1.00  0.00     9.953 A  
HETATM   30  C   UNL     1      -7.013  10.726  65.192  1.00  0.00     0.162 A  
HETATM   31  C   UNL     1      -7.147  11.409  66.410  1.00  0.00     0.000 A  
HETATM   32  C   UNL     1      -7.740  14.056  72.690  1.00  0.00     7.229 A  
HETATM   33  C   UNL     1      -8.720  12.925  65.418  1.00  0.00     1.484 A  
HETATM   34  C   UNL     1      -8.017  12.518  66.596  1.00  0.00     0.186 A  
BRANCH  18  35
HETATM   35  C   UNL     1      -8.874  11.308  70.429  1.00  0.00     3.348 C  
BRANCH  35  36
HETATM   36  N   UNL     1      -9.996  11.258  69.455  1.00  0.00     0.163 NA 
HETATM   37  C   UNL     1     -11.297  11.550  70.065  1.00  0.00    -0.137 C  
HETATM   38  C   UNL     1     -10.050   9.927  68.838  1.00  0.00    -0.184 C  
ENDBRANCH  35  36
ENDBRANCH  18  35
ENDBRANCH   2   3
TORSDOF 3
ENDMDL
MODEL      105
REMARK 921   NORMALIZED FREE ENERGY PREDICTED BY IDOCK:   58.90 KCAL/MOL
REMARK 922        TOTAL FREE ENERGY PREDICTED BY IDOCK:   68.45 KCAL/MOL
REMARK 923 INTER-LIGAND FREE ENERGY PREDICTED BY IDOCK:   52.07 KCAL/MOL
REMARK 924 INTRA-LIGAND FREE ENERGY PREDICTED BY IDOCK:   16.39 KCAL/MOL
REMARK 927      BINDING AFFINITY PREDICTED BY RF-SCORE:    0.00 PKD
ROOT
HETATM    1  C   UNL     1      -7.713  12.876  68.473  1.00  0.00    -0.109 C  
HETATM    2  O   UNL     1      -8.302  12.733  69.757  1.00  0.00     1.556 OA 
ENDROOT
BRANCH   2   3
HETATM    3  C   UNL     1      -9.092  13.786  70.157  1.00  0.00     2.799 A  
HETATM    4  N   UNL     1      -9.866  13.612  71.264  1.00  0.00     6.234 NA 
HETATM    5  C   UNL     1     -10.493  14.678  71.784  1.00  0.00     2.247 A  
HETATM    6  C   UNL     1     -10.296  15.971  71.266  1.00  0.00     1.269 A  
HETATM    7  C   UNL     1     -10.898  17.100  71.839  1.00  0.00     2.128 A  
HETATM    8  C   UNL     1      -9.505  16.106  70.130  1.00  0.00     0.757 A  
HETATM    9  C   UNL     1     -11.724  16.952  72.943  1.00  0.00     0.229 A  
HETATM   10  C   UNL     1      -8.965  14.997  69.465  1.00  0.00    -0.059 A  
HETATM   11  C   UNL     1     -11.978  15.683  73.450  1.00  0.00    -0.560 A  
HETATM   12 BR   UNL     1     -12.479  18.480  73.754  1.00  0.00     6.381 Br 
HETATM   13  C   UNL     1      -8.298  15.156  68.062  1.00  0.00    -0.147 C  
HETATM   14  C   UNL     1     -11.367  14.563  72.864  1.00  0.00     0.967 A  
HETATM   15  C   UNL     1      -8.274  13.853  67.233  1.00  0.00    -0.176 A  
HETATM   16  C   UNL     1      -8.660  16.545  67.247  1.00  0.00    -0.184 C  
HETATM   17  O   UNL     1      -7.977  17.611  68.005  1.00  0.00    -0.227 OA 
HETATM   18  C   UNL     1      -7.941  16.667  65.858  1.00  0.00     0.202 C  
HETATM   19  C   UNL     1     -10.155  17.039  67.209  1.00  0.00    -0.295 A  
HETATM   20  C   UNL     1      -9.425  13.207  66.754  1.00  0.00    -0.252 A  
HETATM   21  C   UNL     1     -12.343  20.115  66.960  1.00  0.00     3.656 A  
HETATM   22  C   UNL     1     -11.185  16.152  67.586  1.00  0.00    -0.147 A  
HETATM   23  C   UNL     1      -9.363  11.933  66.182  1.00  0.00    -0.228 A  
HETATM   24  H   UNL     1      -8.185  18.410  67.536  1.00  0.00     0.000 HD 
HETATM   25  C   UNL     1     -12.502  16.551  67.799  1.00  0.00     2.241 A  
HETATM   26  C   UNL     1     -11.460  21.110  66.562  1.00  0.00     5.034 A  
HETATM   27  C   UNL     1      -8.144  11.280  66.056  1.00  0.00    -0.009 A  
HETATM   28  C   UNL     1     -12.858  17.867  67.590  1.00  0.00     6.341 A  
HETATM   29  C   UNL     1      -6.979  11.916  66.469  1.00  0.00     0.193 A  
HETATM   30  C   UNL     1     -10.125  20.797  66.385  1.00  0.00     0.195 A  
HETATM   31  C   UNL     1      -9.682  19.484  66.598  1.00  0.00    -0.470 A  
HETATM   32  C   UNL     1      -7.041  13.189  67.047  1.00  0.00     0.307 A  
HETATM   33  C   UNL     1     -11.909  18.793  67.161  1.00  0.00     2.093 A  
HETATM   34  C   UNL     1     -10.543  18.415  66.969  1.00  0.00    -0.400 A  
BRANCH  18  35
HETATM   35  C   UNL     1      -8.372  15.768  64.696  1.00  0.00     7.419 C  
BRANCH  35  36
HETATM   36  N   UNL     1      -9.796  15.352  64.789  1.00  0.00    -0.041 NA 
HETATM   37  C   UNL     1     -10.091  14.141  64.015  1.00  0.00     1.743 C  
HETATM   38  C   UNL     1     -10.656  16.441  64.311  1.00  0.00     1.377 C  
ENDBRANCH  35  36
ENDBRANCH  18  35
ENDBRANCH   2   3
TORSDOF 3
ENDMDL
MODEL      106
REMARK 921   NORMALIZED FREE ENERGY PREDICTED BY IDOCK:   60.87 KCAL/MOL
REMARK 922        TOTAL FREE ENERGY PREDICTED BY IDOCK:   70.76 KCAL/MOL
REMARK 923 INTER-LIGAND FREE ENERGY PREDICTED BY IDOCK:   41.42 KCAL/MOL
REMARK 924 INTRA-LIGAND FREE ENERGY PREDICTED BY IDOCK:   29.34 KCAL/MOL
REMARK 927      BINDING AFFINITY PREDICTED BY RF-SCORE:    0.00 PKD
ROOT
HETATM    1  C   UNL     1      -8.193  17.082  70.595  1.00  0.00     4.432 C  
HETATM    2  O   UNL     1      -8.762  16.082  71.428  1.00  0.00     4.304 OA 
ENDROOT
BRANCH   2   3
HETATM    3  C   UNL     1      -9.052  14.894  70.800  1.00  0.00     2.100 A  
HETATM    4  N   UNL     1      -8.462  13.764  71.278  1.00  0.00     6.193 NA 
HETATM    5  C   UNL     1      -8.875  12.576  70.810  1.00  0.00     8.935 A  
HETATM    6  C   UNL     1      -9.953  12.474  69.912  1.00  0.00     2.095 A  
HETATM    7  C   UNL     1     -10.432  11.235  69.464  1.00  0.00    -0.017 A  
HETATM    8  C   UNL     1     -10.524  13.652  69.441  1.00  0.00     0.180 A  
HETATM    9  C   UNL     1      -9.827  10.067  69.901  1.00  0.00    -0.224 A  
HETATM   10  C   UNL     1     -10.015  14.912  69.782  1.00  0.00     0.018 A  
HETATM   11  C   UNL     1      -8.728  10.134  70.750  1.00  0.00     1.114 A  
HETATM   12 BR   UNL     1     -10.516   8.398  69.349  1.00  0.00    -0.206 Br 
HETATM   13  C   UNL     1     -10.510  16.198  69.047  1.00  0.00    -0.261 C  
HETATM   14  C   UNL     1      -8.262  11.383  71.189  1.00  0.00     7.347 A  
HETATM   15  C   UNL     1      -9.509  17.372  69.104  1.00  0.00    -0.025 A  
HETATM   16  C   UNL     1     -11.280  15.951  67.607  1.00  0.00    -0.219 C  
HETATM   17  O   UNL     1     -12.565  15.325  67.974  1.00  0.00    -0.068 OA 
HETATM   18  C   UNL     1     -11.782  17.272  66.926  1.00  0.00     1.740 C  
HETATM   19  C   UNL     1     -10.666  14.927  66.581  1.00  0.00    -0.312 A  
HETATM   20  C   UNL     1      -8.245  17.355  68.493  1.00  0.00    -0.268 A  
HETATM   21  C   UNL     1     -11.528  12.518  63.795  1.00  0.00    -0.542 A  
HETATM   22  C   UNL     1      -9.338  14.483  66.758  1.00  0.00    -0.278 A  
HETATM   23  C   UNL     1      -7.301  18.358  68.739  1.00  0.00    -0.304 A  
HETATM   24  H   UNL     1     -13.007  15.183  67.146  1.00  0.00     0.000 HD 
HETATM   25  C   UNL     1      -8.782  13.423  66.045  1.00  0.00     0.713 A  
HETATM   26  C   UNL     1     -12.839  12.845  63.476  1.00  0.00     0.030 A  
HETATM   27  C   UNL     1      -7.607  19.415  69.586  1.00  0.00     0.081 A  
HETATM   28  C   UNL     1      -9.528  12.787  65.075  1.00  0.00     0.307 A  
HETATM   29  C   UNL     1      -8.870  19.490  70.162  1.00  0.00     1.205 A  
HETATM   30  C   UNL     1     -13.474  13.851  64.180  1.00  0.00     2.268 A  
HETATM   31  C   UNL     1     -12.788  14.532  65.196  1.00  0.00    -0.072 A  
HETATM   32  C   UNL     1      -9.813  18.484  69.921  1.00  0.00     0.823 A  
HETATM   33  C   UNL     1     -10.829  13.205  64.801  1.00  0.00    -0.368 A  
HETATM   34  C   UNL     1     -11.435  14.268  65.543  1.00  0.00    -0.329 A  
BRANCH  18  35
HETATM   35  C   UNL     1     -10.770  18.248  66.319  1.00  0.00    -0.155 C  
BRANCH  35  36
HETATM   36  N   UNL     1      -9.463  17.607  66.016  1.00  0.00    -0.518 NA 
HETATM   37  C   UNL     1      -9.552  16.600  64.954  1.00  0.00     1.920 C  
HETATM   38  C   UNL     1      -8.937  16.971  67.230  1.00  0.00    -0.215 C  
ENDBRANCH  35  36
ENDBRANCH  18  35
ENDBRANCH   2   3
TORSDOF 3
ENDMDL
MODEL      107
REMARK 921   NORMALIZED FREE ENERGY PREDICTED BY IDOCK:   64.07 KCAL/MOL
REMARK 922        TOTAL FREE ENERGY PREDICTED BY IDOCK:   74.53 KCAL/MOL
REMARK 923 INTER-LIGAND FREE ENERGY PREDICTED BY IDOCK:   68.68 KCAL/MOL
REMARK 924 INTRA-LIGAND FREE ENERGY PREDICTED BY IDOCK:    5.85 KCAL/MOL
REMARK 927      BINDING AFFINITY PREDICTED BY RF-SCORE:    0.00 PKD
ROOT
HETATM    1  C   UNL     1      -7.728  19.241  71.432  1.00  0.00     3.709 C  
HETATM    2  O   UNL     1      -8.730  19.508  70.461  1.00  0.00     1.323 OA 
ENDROOT
BRANCH   2   3
HETATM    3  C   UNL     1      -8.394  19.179  69.169  1.00  0.00    -0.110 A  
HETATM    4  N   UNL     1      -7.744  20.116  68.424  1.00  0.00    -0.175 NA 
HETATM    5  C   UNL     1      -7.238  19.755  67.235  1.00  0.00    -0.230 A  
HETATM    6  C   UNL     1      -7.288  18.422  66.790  1.00  0.00    -0.234 A  
HETATM    7  C   UNL     1      -6.709  18.022  65.577  1.00  0.00    -0.124 A  
HETATM    8  C   UNL     1      -7.968  17.496  67.575  1.00  0.00    -0.210 A  
HETATM    9  C   UNL     1      -6.074  18.960  64.778  1.00  0.00    -0.229 A  
HETATM   10  C   UNL     1      -8.647  17.869  68.742  1.00  0.00    -0.208 A  
HETATM   11  C   UNL     1      -6.050  20.295  65.165  1.00  0.00    -0.283 A  
HETATM   12 BR   UNL     1      -5.237  18.407  63.179  1.00  0.00     0.555 Br 
HETATM   13  C   UNL     1      -9.604  16.866  69.462  1.00  0.00     0.157 C  
HETATM   14  C   UNL     1      -6.634  20.678  66.382  1.00  0.00    -0.307 A  
HETATM   15  C   UNL     1     -10.672  17.550  70.343  1.00  0.00     1.157 A  
HETATM   16  C   UNL     1     -10.102  15.575  68.562  1.00  0.00    -0.211 C  
HETATM   17  O   UNL     1      -8.894  14.744  68.402  1.00  0.00    -0.168 OA 
HETATM   18  C   UNL     1     -11.037  14.586  69.341  1.00  0.00    -0.297 C  
HETATM   19  C   UNL     1     -10.567  15.816  67.077  1.00  0.00    -0.316 A  
HETATM   20  C   UNL     1     -11.698  18.366  69.840  1.00  0.00     6.073 A  
HETATM   21  C   UNL     1     -10.805  14.210  63.660  1.00  0.00     1.454 A  
HETATM   22  C   UNL     1     -10.848  17.130  66.645  1.00  0.00     0.043 A  
HETATM   23  C   UNL     1     -12.516  19.118  70.689  1.00  0.00    17.861 A  
HETATM   24  H   UNL     1      -9.181  14.002  67.884  1.00  0.00     0.000 HD 
HETATM   25  C   UNL     1     -11.047  17.473  65.310  1.00  0.00     0.403 A  
HETATM   26  C   UNL     1     -10.569  12.866  63.915  1.00  0.00    -0.367 A  
HETATM   27  C   UNL     1     -12.343  19.055  72.065  1.00  0.00    14.296 A  
HETATM   28  C   UNL     1     -11.023  16.491  64.342  1.00  0.00     0.274 A  
HETATM   29  C   UNL     1     -11.373  18.214  72.597  1.00  0.00     2.726 A  
HETATM   30  C   UNL     1     -10.309  12.461  65.211  1.00  0.00    -0.308 A  
HETATM   31  C   UNL     1     -10.296  13.405  66.248  1.00  0.00    -0.291 A  
HETATM   32  C   UNL     1     -10.550  17.465  71.748  1.00  0.00     3.117 A  
HETATM   33  C   UNL     1     -10.809  15.160  64.695  1.00  0.00    -0.285 A  
HETATM   34  C   UNL     1     -10.567  14.787  66.055  1.00  0.00    -0.318 A  
BRANCH  18  35
HETATM   35  C   UNL     1     -12.467  15.007  69.692  1.00  0.00    -0.133 C  
BRANCH  35  36
HETATM   36  N   UNL     1     -12.969  16.111  68.832  1.00  0.00     1.334 NA 
HETATM   37  C   UNL     1     -13.506  17.237  69.602  1.00  0.00    10.326 C  
HETATM   38  C   UNL     1     -14.020  15.601  67.943  1.00  0.00     8.676 C  
ENDBRANCH  35  36
ENDBRANCH  18  35
ENDBRANCH   2   3
TORSDOF 3
ENDMDL
MODEL      108
REMARK 921   NORMALIZED FREE ENERGY PREDICTED BY IDOCK:   64.14 KCAL/MOL
REMARK 922        TOTAL FREE ENERGY PREDICTED BY IDOCK:   74.61 KCAL/MOL
REMARK 923 INTER-LIGAND FREE ENERGY PREDICTED BY IDOCK:   72.75 KCAL/MOL
REMARK 924 INTRA-LIGAND FREE ENERGY PREDICTED BY IDOCK:    1.87 KCAL/MOL
REMARK 927      BINDING AFFINITY PREDICTED BY RF-SCORE:    0.00 PKD
ROOT
HETATM    1  C   UNL     1      -7.988  16.276  63.197  1.00  0.00    24.679 C  
HETATM    2  O   UNL     1      -7.340  15.453  64.156  1.00  0.00    13.068 OA 
ENDROOT
BRANCH   2   3
HETATM    3  C   UNL     1      -8.180  14.690  64.934  1.00  0.00     7.162 A  
HETATM    4  N   UNL     1      -8.781  13.616  64.351  1.00  0.00     3.832 NA 
HETATM    5  C   UNL     1      -9.447  12.751  65.131  1.00  0.00     0.290 A  
HETATM    6  C   UNL     1      -9.460  12.883  66.531  1.00  0.00    -0.251 A  
HETATM    7  C   UNL     1     -10.100  11.951  67.359  1.00  0.00    -0.211 A  
HETATM    8  C   UNL     1      -8.840  13.998  67.087  1.00  0.00    -0.239 A  
HETATM    9  C   UNL     1     -10.756  10.868  66.794  1.00  0.00    -0.252 A  
HETATM   10  C   UNL     1      -8.275  15.005  66.295  1.00  0.00     0.511 A  
HETATM   11  C   UNL     1     -10.805  10.734  65.412  1.00  0.00    -0.062 A  
HETATM   12 BR   UNL     1     -11.561   9.579  67.914  1.00  0.00     1.540 Br 
HETATM   13  C   UNL     1      -7.815  16.356  66.932  1.00  0.00    -0.273 C  
HETATM   14  C   UNL     1     -10.157  11.676  64.597  1.00  0.00    -0.305 A  
HETATM   15  C   UNL     1      -7.758  17.529  65.929  1.00  0.00    -0.119 A  
HETATM   16  C   UNL     1      -8.427  16.691  68.428  1.00  0.00    -0.216 C  
HETATM   17  O   UNL     1      -7.770  15.720  69.325  1.00  0.00    -0.201 OA 
HETATM   18  C   UNL     1      -7.911  18.043  69.033  1.00  0.00    -0.097 C  
HETATM   19  C   UNL     1      -9.958  16.444  68.698  1.00  0.00    -0.235 A  
HETATM   20  C   UNL     1      -8.885  18.068  65.288  1.00  0.00     1.987 A  
HETATM   21  C   UNL     1     -12.479  15.577  71.382  1.00  0.00    -0.480 A  
HETATM   22  C   UNL     1     -10.830  16.249  67.605  1.00  0.00    -0.293 A  
HETATM   23  C   UNL     1      -8.760  18.991  64.245  1.00  0.00     7.483 A  
HETATM   24  H   UNL     1      -8.122  15.912  70.185  1.00  0.00     0.000 HD 
HETATM   25  C   UNL     1     -12.144  15.808  67.740  1.00  0.00     0.555 A  
HETATM   26  C   UNL     1     -11.768  15.745  72.562  1.00  0.00    -0.566 A  
HETATM   27  C   UNL     1      -7.504  19.415  63.831  1.00  0.00     4.233 A  
HETATM   28  C   UNL     1     -12.663  15.588  68.999  1.00  0.00     0.561 A  
HETATM   29  C   UNL     1      -6.372  18.943  64.484  1.00  0.00     0.169 A  
HETATM   30  C   UNL     1     -10.440  16.129  72.502  1.00  0.00     3.469 A  
HETATM   31  C   UNL     1      -9.835  16.352  71.257  1.00  0.00     3.401 A  
HETATM   32  C   UNL     1      -6.495  18.014  65.523  1.00  0.00    -0.187 A  
HETATM   33  C   UNL     1     -11.883  15.813  70.131  1.00  0.00    -0.369 A  
HETATM   34  C   UNL     1     -10.520  16.233  70.017  1.00  0.00    -0.164 A  
BRANCH  18  35
HETATM   35  C   UNL     1      -8.388  19.372  68.442  1.00  0.00    -0.350 C  
BRANCH  35  36
HETATM   36  N   UNL     1      -8.625  20.410  69.480  1.00  0.00     0.889 NA 
HETATM   37  C   UNL     1      -7.388  20.892  70.102  1.00  0.00     2.471 C  
HETATM   38  C   UNL     1      -9.501  19.866  70.525  1.00  0.00     1.316 C  
ENDBRANCH  35  36
ENDBRANCH  18  35
ENDBRANCH   2   3
TORSDOF 3
ENDMDL
MODEL      109
REMARK 921   NORMALIZED FREE ENERGY PREDICTED BY IDOCK:   70.34 KCAL/MOL
REMARK 922        TOTAL FREE ENERGY PREDICTED BY IDOCK:   81.89 KCAL/MOL
REMARK 923 INTER-LIGAND FREE ENERGY PREDICTED BY IDOCK:   79.59 KCAL/MOL
REMARK 924 INTRA-LIGAND FREE ENERGY PREDICTED BY IDOCK:    2.30 KCAL/MOL
REMARK 927      BINDING AFFINITY PREDICTED BY RF-SCORE:    0.00 PKD
ROOT
HETATM    1  C   UNL     1      -8.924   8.320  72.824  1.00  0.00    -0.253 C  
HETATM    2  O   UNL     1      -8.356   8.000  71.562  1.00  0.00    -0.102 OA 
ENDROOT
BRANCH   2   3
HETATM    3  C   UNL     1      -9.256   7.611  70.598  1.00  0.00    -0.162 A  
HETATM    4  N   UNL     1      -9.581   6.290  70.531  1.00  0.00    -0.164 NA 
HETATM    5  C   UNL     1     -10.593   5.917  69.734  1.00  0.00    -0.303 A  
HETATM    6  C   UNL     1     -11.372   6.863  69.044  1.00  0.00    -0.064 A  
HETATM    7  C   UNL     1     -12.471   6.489  68.256  1.00  0.00     5.035 A  
HETATM    8  C   UNL     1     -11.003   8.201  69.132  1.00  0.00     0.068 A  
HETATM    9  C   UNL     1     -12.804   5.149  68.136  1.00  0.00    15.145 A  
HETATM   10  C   UNL     1      -9.856   8.611  69.824  1.00  0.00    -0.183 A  
HETATM   11  C   UNL     1     -12.025   4.184  68.765  1.00  0.00    12.576 A  
HETATM   12 BR   UNL     1     -14.322   4.653  67.130  1.00  0.00    30.327 Br 
HETATM   13  C   UNL     1      -9.329  10.077  69.696  1.00  0.00    -0.242 C  
HETATM   14  C   UNL     1     -10.929   4.576  69.550  1.00  0.00     2.150 A  
HETATM   15  C   UNL     1      -7.827  10.227  70.019  1.00  0.00    -0.056 A  
HETATM   16  C   UNL     1      -9.900  10.936  68.407  1.00  0.00    -0.177 C  
HETATM   17  O   UNL     1     -11.322  11.176  68.719  1.00  0.00    -0.227 OA 
HETATM   18  C   UNL     1      -9.362  12.408  68.343  1.00  0.00    -0.158 C  
HETATM   19  C   UNL     1      -9.957  10.243  66.995  1.00  0.00    -0.249 A  
HETATM   20  C   UNL     1      -6.799   9.655  69.252  1.00  0.00    -0.050 A  
HETATM   21  C   UNL     1     -11.810  10.198  63.696  1.00  0.00     5.643 A  
HETATM   22  C   UNL     1      -9.248   9.042  66.785  1.00  0.00    -0.198 A  
HETATM   23  C   UNL     1      -5.472   9.654  69.693  1.00  0.00    -0.033 A  
HETATM   24  H   UNL     1     -11.650  11.670  67.978  1.00  0.00     0.000 HD 
HETATM   25  C   UNL     1      -9.410   8.241  65.657  1.00  0.00    -0.018 A  
HETATM   26  C   UNL     1     -12.563  11.363  63.731  1.00  0.00     0.287 A  
HETATM   27  C   UNL     1      -5.136  10.244  70.905  1.00  0.00    -0.067 A  
HETATM   28  C   UNL     1     -10.266   8.643  64.653  1.00  0.00     3.473 A  
HETATM   29  C   UNL     1      -6.122  10.868  71.660  1.00  0.00     0.970 A  
HETATM   30  C   UNL     1     -12.494  12.179  64.844  1.00  0.00    -0.185 A  
HETATM   31  C   UNL     1     -11.661  11.828  65.916  1.00  0.00    -0.200 A  
HETATM   32  C   UNL     1      -7.451  10.865  71.222  1.00  0.00     3.818 A  
HETATM   33  C   UNL     1     -10.961   9.846  64.759  1.00  0.00     2.422 A  
HETATM   34  C   UNL     1     -10.837  10.669  65.924  1.00  0.00    -0.030 A  
BRANCH  18  35
HETATM   35  C   UNL     1      -7.897  12.669  67.982  1.00  0.00    -0.149 C  
BRANCH  35  36
HETATM   36  N   UNL     1      -7.402  11.772  66.905  1.00  0.00    -0.132 NA 
HETATM   37  C   UNL     1      -5.998  12.014  66.557  1.00  0.00     0.349 C  
HETATM   38  C   UNL     1      -8.225  11.950  65.703  1.00  0.00     0.731 C  
ENDBRANCH  35  36
ENDBRANCH  18  35
ENDBRANCH   2   3
TORSDOF 3
ENDMDL
MODEL      110
REMARK 921   NORMALIZED FREE ENERGY PREDICTED BY IDOCK:   70.46 KCAL/MOL
REMARK 922        TOTAL FREE ENERGY PREDICTED BY IDOCK:   82.04 KCAL/MOL
REMARK 923 INTER-LIGAND FREE ENERGY PREDICTED BY IDOCK:   68.09 KCAL/MOL
REMARK 924 INTRA-LIGAND FREE ENERGY PREDICTED BY IDOCK:   13.96 KCAL/MOL
REMARK 927      BINDING AFFINITY PREDICTED BY RF-SCORE:    0.00 PKD
ROOT
HETATM    1  C   UNL     1      -8.184   8.191  71.220  1.00  0.00    -0.116 C  
HETATM    2  O   UNL     1      -8.771   7.176  70.419  1.00  0.00    -0.147 OA 
ENDROOT
BRANCH   2   3
HETATM    3  C   UNL     1      -9.156   7.575  69.160  1.00  0.00    -0.138 A  
HETATM    4  N   UNL     1      -9.424   6.605  68.242  1.00  0.00    -0.125 NA 
HETATM    5  C   UNL     1      -9.982   6.961  67.075  1.00  0.00    -0.197 A  
HETATM    6  C   UNL     1     -10.373   8.288  66.822  1.00  0.00    -0.361 A  
HETATM    7  C   UNL     1     -11.012   8.661  65.632  1.00  0.00     3.577 A  
HETATM    8  C   UNL     1     -10.074   9.251  67.781  1.00  0.00    -0.253 A  
HETATM    9  C   UNL     1     -11.265   7.704  64.660  1.00  0.00    12.493 A  
HETATM   10  C   UNL     1      -9.348   8.944  68.940  1.00  0.00    -0.140 A  
HETATM   11  C   UNL     1     -10.848   6.392  64.858  1.00  0.00     5.164 A  
HETATM   12 BR   UNL     1     -12.186   8.193  63.088  1.00  0.00    25.848 Br 
HETATM   13  C   UNL     1      -8.811  10.081  69.868  1.00  0.00    -0.177 C  
HETATM   14  C   UNL     1     -10.209   6.037  66.056  1.00  0.00     0.178 A  
HETATM   15  C   UNL     1      -7.605   9.658  70.734  1.00  0.00    -0.031 A  
HETATM   16  C   UNL     1      -8.751  11.588  69.198  1.00  0.00     0.271 C  
HETATM   17  O   UNL     1     -10.163  11.988  69.052  1.00  0.00    -0.402 OA 
HETATM   18  C   UNL     1      -8.233  12.695  70.181  1.00  0.00     3.601 C  
HETATM   19  C   UNL     1      -8.182  11.751  67.739  1.00  0.00    -0.144 A  
HETATM   20  C   UNL     1      -6.347   9.316  70.212  1.00  0.00    -0.051 A  
HETATM   21  C   UNL     1      -8.389  13.862  64.606  1.00  0.00     7.165 A  
HETATM   22  C   UNL     1      -7.459  10.689  67.156  1.00  0.00    -0.099 A  
HETATM   23  C   UNL     1      -5.351   8.753  71.017  1.00  0.00    -0.029 A  
HETATM   24  H   UNL     1     -10.128  12.856  68.667  1.00  0.00     0.000 HD 
HETATM   25  C   UNL     1      -7.111  10.645  65.808  1.00  0.00    -0.096 A  
HETATM   26  C   UNL     1      -9.075  14.995  65.022  1.00  0.00     1.835 A  
HETATM   27  C   UNL     1      -5.581   8.538  72.369  1.00  0.00    -0.052 A  
HETATM   28  C   UNL     1      -7.434  11.704  64.986  1.00  0.00     1.782 A  
HETATM   29  C   UNL     1      -6.796   8.918  72.927  1.00  0.00     0.177 A  
HETATM   30  C   UNL     1      -9.501  15.082  66.335  1.00  0.00    -0.325 A  
HETATM   31  C   UNL     1      -9.227  14.036  67.228  1.00  0.00    -0.231 A  
HETATM   32  C   UNL     1      -7.796   9.476  72.122  1.00  0.00     1.381 A  
HETATM   33  C   UNL     1      -8.098  12.816  65.498  1.00  0.00     2.591 A  
HETATM   34  C   UNL     1      -8.498  12.869  66.872  1.00  0.00    -0.093 A  
BRANCH  18  35
HETATM   35  C   UNL     1      -6.757  12.720  70.591  1.00  0.00     1.455 C  
BRANCH  35  36
HETATM   36  N   UNL     1      -6.539  13.362  71.914  1.00  0.00     1.692 NA 
HETATM   37  C   UNL     1      -5.734  14.585  71.832  1.00  0.00     0.018 C  
HETATM   38  C   UNL     1      -5.872  12.414  72.814  1.00  0.00     2.061 C  
ENDBRANCH  35  36
ENDBRANCH  18  35
ENDBRANCH   2   3
TORSDOF 3
ENDMDL
MODEL      111
REMARK 921   NORMALIZED FREE ENERGY PREDICTED BY IDOCK:   73.21 KCAL/MOL
REMARK 922        TOTAL FREE ENERGY PREDICTED BY IDOCK:   85.28 KCAL/MOL
REMARK 923 INTER-LIGAND FREE ENERGY PREDICTED BY IDOCK:   81.84 KCAL/MOL
REMARK 924 INTRA-LIGAND FREE ENERGY PREDICTED BY IDOCK:    3.43 KCAL/MOL
REMARK 927      BINDING AFFINITY PREDICTED BY RF-SCORE:    0.00 PKD
ROOT
HETATM    1  C   UNL     1     -11.126  19.235  68.550  1.00  0.00     0.997 C  
HETATM    2  O   UNL     1     -12.088  18.209  68.751  1.00  0.00     2.988 OA 
ENDROOT
BRANCH   2   3
HETATM    3  C   UNL     1     -11.993  17.142  67.889  1.00  0.00     1.498 A  
HETATM    4  N   UNL     1     -12.425  17.321  66.610  1.00  0.00     4.470 NA 
HETATM    5  C   UNL     1     -12.168  16.365  65.705  1.00  0.00     2.306 A  
HETATM    6  C   UNL     1     -11.391  15.237  66.028  1.00  0.00    -0.162 A  
HETATM    7  C   UNL     1     -11.064  14.262  65.075  1.00  0.00    -0.377 A  
HETATM    8  C   UNL     1     -10.975  15.087  67.347  1.00  0.00    -0.315 A  
HETATM    9  C   UNL     1     -11.522  14.395  63.773  1.00  0.00     0.480 A  
HETATM   10  C   UNL     1     -11.362  15.982  68.354  1.00  0.00    -0.355 A  
HETATM   11  C   UNL     1     -12.333  15.472  63.432  1.00  0.00     1.514 A  
HETATM   12 BR   UNL     1     -11.025  13.117  62.476  1.00  0.00     5.030 Br 
HETATM   13  C   UNL     1     -11.093  15.654  69.857  1.00  0.00    -0.323 C  
HETATM   14  C   UNL     1     -12.650  16.439  64.399  1.00  0.00     1.995 A  
HETATM   15  C   UNL     1     -12.032  16.396  70.833  1.00  0.00     0.119 A  
HETATM   16  C   UNL     1     -10.768  14.072  70.202  1.00  0.00     0.558 C  
HETATM   17  O   UNL     1      -9.434  13.831  69.619  1.00  0.00     0.172 OA 
HETATM   18  C   UNL     1     -10.478  13.804  71.719  1.00  0.00     5.696 C  
HETATM   19  C   UNL     1     -11.653  12.951  69.539  1.00  0.00    -0.348 A  
HETATM   20  C   UNL     1     -13.419  16.182  70.902  1.00  0.00     1.517 A  
HETATM   21  C   UNL     1     -11.630   9.363  68.340  1.00  0.00     0.754 A  
HETATM   22  C   UNL     1     -12.876  13.305  68.931  1.00  0.00     1.274 A  
HETATM   23  C   UNL     1     -14.249  17.015  71.658  1.00  0.00     7.759 A  
HETATM   24  H   UNL     1      -9.247  12.921  69.817  1.00  0.00     0.000 HD 
HETATM   25  C   UNL     1     -13.615  12.436  68.132  1.00  0.00     7.606 A  
HETATM   26  C   UNL     1     -10.464   8.845  68.887  1.00  0.00    -0.225 A  
HETATM   27  C   UNL     1     -13.711  18.071  72.382  1.00  0.00    13.739 A  
HETATM   28  C   UNL     1     -13.180  11.140  67.949  1.00  0.00     6.560 A  
HETATM   29  C   UNL     1     -12.336  18.274  72.379  1.00  0.00     8.050 A  
HETATM   30  C   UNL     1      -9.651   9.666  69.646  1.00  0.00    -0.225 A  
HETATM   31  C   UNL     1     -10.016  11.003  69.861  1.00  0.00     0.557 A  
HETATM   32  C   UNL     1     -11.504  17.445  71.618  1.00  0.00     1.781 A  
HETATM   33  C   UNL     1     -12.011  10.697  68.564  1.00  0.00     0.048 A  
HETATM   34  C   UNL     1     -11.215  11.580  69.360  1.00  0.00    -0.324 A  
BRANCH  18  35
HETATM   35  C   UNL     1     -11.618  13.884  72.738  1.00  0.00     2.136 C  
BRANCH  35  36
HETATM   36  N   UNL     1     -12.807  13.089  72.334  1.00  0.00    -0.129 NA 
HETATM   37  C   UNL     1     -13.776  13.865  71.553  1.00  0.00    -0.247 C  
HETATM   38  C   UNL     1     -13.475  12.563  73.530  1.00  0.00     5.267 C  
ENDBRANCH  35  36
ENDBRANCH  18  35
ENDBRANCH   2   3
TORSDOF 3
ENDMDL
MODEL      112
REMARK 921   NORMALIZED FREE ENERGY PREDICTED BY IDOCK:   75.20 KCAL/MOL
REMARK 922        TOTAL FREE ENERGY PREDICTED BY IDOCK:   87.61 KCAL/MOL
REMARK 923 INTER-LIGAND FREE ENERGY PREDICTED BY IDOCK:   82.80 KCAL/MOL
REMARK 924 INTRA-LIGAND FREE ENERGY PREDICTED BY IDOCK:    4.81 KCAL/MOL
REMARK 927      BINDING AFFINITY PREDICTED BY RF-SCORE:    0.00 PKD
ROOT
HETATM    1  C   UNL     1     -10.091   9.364  71.180  1.00  0.00    -0.265 C  
HETATM    2  O   UNL     1      -9.167   8.414  70.670  1.00  0.00    -0.147 OA 
ENDROOT
BRANCH   2   3
HETATM    3  C   UNL     1      -9.137   8.305  69.299  1.00  0.00    -0.151 A  
HETATM    4  N   UNL     1      -8.945   7.067  68.766  1.00  0.00    -0.132 NA 
HETATM    5  C   UNL     1      -9.103   6.905  67.443  1.00  0.00    -0.122 A  
HETATM    6  C   UNL     1      -9.545   7.958  66.622  1.00  0.00    -0.293 A  
HETATM    7  C   UNL     1      -9.772   7.785  65.249  1.00  0.00     1.301 A  
HETATM    8  C   UNL     1      -9.721   9.210  67.203  1.00  0.00    -0.236 A  
HETATM    9  C   UNL     1      -9.548   6.546  64.668  1.00  0.00     2.011 A  
HETATM   10  C   UNL     1      -9.411   9.455  68.547  1.00  0.00    -0.139 A  
HETATM   11  C   UNL     1      -9.065   5.497  65.442  1.00  0.00    -0.064 A  
HETATM   12 BR   UNL     1      -9.919   6.297  62.834  1.00  0.00     3.937 Br 
HETATM   13  C   UNL     1      -9.378  10.914  69.105  1.00  0.00    -0.096 C  
HETATM   14  C   UNL     1      -8.843   5.688  66.815  1.00  0.00    -0.115 A  
HETATM   15  C   UNL     1      -8.505  11.077  70.368  1.00  0.00     2.453 A  
HETATM   16  C   UNL     1      -9.278  12.113  67.975  1.00  0.00    -0.194 C  
HETATM   17  O   UNL     1     -10.590  12.100  67.300  1.00  0.00    -0.220 OA 
HETATM   18  C   UNL     1      -9.278  13.557  68.586  1.00  0.00    -0.022 C  
HETATM   19  C   UNL     1      -8.263  11.953  66.782  1.00  0.00    -0.129 A  
HETATM   20  C   UNL     1      -7.111  10.903  70.385  1.00  0.00     0.571 A  
HETATM   21  C   UNL     1      -7.632  12.893  63.172  1.00  0.00     9.182 A  
HETATM   22  C   UNL     1      -7.255  10.969  66.859  1.00  0.00    -0.133 A  
HETATM   23  C   UNL     1      -6.395  10.868  71.586  1.00  0.00     1.547 A  
HETATM   24  H   UNL     1     -10.533  12.790  66.650  1.00  0.00     0.000 HD 
HETATM   25  C   UNL     1      -6.458  10.600  65.778  1.00  0.00    -0.107 A  
HETATM   26  C   UNL     1      -8.557  13.900  62.932  1.00  0.00    14.072 A  
HETATM   27  C   UNL     1      -7.052  11.027  72.799  1.00  0.00     7.511 A  
HETATM   28  C   UNL     1      -6.605  11.248  64.570  1.00  0.00     1.410 A  
HETATM   29  C   UNL     1      -8.422  11.257  72.812  1.00  0.00    17.802 A  
HETATM   30  C   UNL     1      -9.419  14.280  63.943  1.00  0.00     4.881 A  
HETATM   31  C   UNL     1      -9.344  13.654  65.196  1.00  0.00     0.689 A  
HETATM   32  C   UNL     1      -9.142  11.287  71.611  1.00  0.00    11.292 A  
HETATM   33  C   UNL     1      -7.540  12.271  64.429  1.00  0.00     4.932 A  
HETATM   34  C   UNL     1      -8.395  12.644  65.514  1.00  0.00     1.807 A  
BRANCH  18  35
HETATM   35  C   UNL     1      -8.053  14.058  69.357  1.00  0.00     0.422 C  
BRANCH  35  36
HETATM   36  N   UNL     1      -7.361  15.180  68.668  1.00  0.00    -0.115 NA 
HETATM   37  C   UNL     1      -6.178  15.654  69.393  1.00  0.00    -0.136 C  
HETATM   38  C   UNL     1      -8.294  16.300  68.499  1.00  0.00    -0.204 C  
ENDBRANCH  35  36
ENDBRANCH  18  35
ENDBRANCH   2   3
TORSDOF 3
ENDMDL
MODEL      113
REMARK 921   NORMALIZED FREE ENERGY PREDICTED BY IDOCK:   77.41 KCAL/MOL
REMARK 922        TOTAL FREE ENERGY PREDICTED BY IDOCK:   90.21 KCAL/MOL
REMARK 923 INTER-LIGAND FREE ENERGY PREDICTED BY IDOCK:   87.83 KCAL/MOL
REMARK 924 INTRA-LIGAND FREE ENERGY PREDICTED BY IDOCK:    2.38 KCAL/MOL
REMARK 927      BINDING AFFINITY PREDICTED BY RF-SCORE:    0.00 PKD
ROOT
HETATM    1  C   UNL     1      -6.145  15.520  71.697  1.00  0.00     1.042 C  
HETATM    2  O   UNL     1      -6.607  16.582  70.875  1.00  0.00     1.175 OA 
ENDROOT
BRANCH   2   3
HETATM    3  C   UNL     1      -6.674  16.295  69.531  1.00  0.00    -0.198 A  
HETATM    4  N   UNL     1      -6.031  17.134  68.672  1.00  0.00    -0.147 NA 
HETATM    5  C   UNL     1      -5.919  16.772  67.385  1.00  0.00    -0.161 A  
HETATM    6  C   UNL     1      -6.368  15.519  66.932  1.00  0.00     0.577 A  
HETATM    7  C   UNL     1      -6.201  15.105  65.603  1.00  0.00     8.407 A  
HETATM    8  C   UNL     1      -7.026  14.694  67.838  1.00  0.00    -0.172 A  
HETATM    9  C   UNL     1      -5.586  15.952  64.693  1.00  0.00    11.307 A  
HETATM   10  C   UNL     1      -7.305  15.105  69.149  1.00  0.00    -0.167 A  
HETATM   11  C   UNL     1      -5.174  17.217  65.096  1.00  0.00     1.199 A  
HETATM   12 BR   UNL     1      -5.301  15.368  62.921  1.00  0.00    15.778 Br 
HETATM   13  C   UNL     1      -8.259  14.269  70.060  1.00  0.00     1.095 C  
HETATM   14  C   UNL     1      -5.349  17.614  66.431  1.00  0.00    -0.224 A  
HETATM   15  C   UNL     1      -8.905  15.086  71.200  1.00  0.00     3.100 A  
HETATM   16  C   UNL     1      -9.232  13.186  69.281  1.00  0.00     0.892 C  
HETATM   17  O   UNL     1      -8.312  12.137  68.800  1.00  0.00    -0.330 OA 
HETATM   18  C   UNL     1     -10.147  12.354  70.245  1.00  0.00     3.280 C  
HETATM   19  C   UNL     1      -9.975  13.637  67.968  1.00  0.00    -0.247 A  
HETATM   20  C   UNL     1      -9.815  16.136  70.993  1.00  0.00     2.182 A  
HETATM   21  C   UNL     1     -11.377  12.396  64.681  1.00  0.00    -0.364 A  
HETATM   22  C   UNL     1     -10.053  15.011  67.656  1.00  0.00    -0.231 A  
HETATM   23  C   UNL     1     -10.218  16.971  72.040  1.00  0.00     5.214 A  
HETATM   24  H   UNL     1      -8.872  11.515  68.352  1.00  0.00     0.000 HD 
HETATM   25  C   UNL     1     -10.487  15.494  66.423  1.00  0.00    -0.310 A  
HETATM   26  C   UNL     1     -11.390  11.016  64.834  1.00  0.00     0.224 A  
HETATM   27  C   UNL     1      -9.737  16.763  73.326  1.00  0.00    11.729 A  
HETATM   28  C   UNL     1     -10.914  14.609  65.456  1.00  0.00    -0.344 A  
HETATM   29  C   UNL     1      -8.879  15.698  73.574  1.00  0.00    13.276 A  
HETATM   30  C   UNL     1     -10.922  10.462  66.011  1.00  0.00     0.170 A  
HETATM   31  C   UNL     1     -10.452  11.297  67.036  1.00  0.00    -0.272 A  
HETATM   32  C   UNL     1      -8.470  14.865  72.525  1.00  0.00     7.515 A  
HETATM   33  C   UNL     1     -10.921  13.239  65.709  1.00  0.00    -0.284 A  
HETATM   34  C   UNL     1     -10.448  12.716  66.954  1.00  0.00    -0.246 A  
BRANCH  18  35
HETATM   35  C   UNL     1     -11.321  13.033  70.956  1.00  0.00     1.888 C  
BRANCH  35  36
HETATM   36  N   UNL     1     -12.365  13.512  70.013  1.00  0.00    -0.287 NA 
HETATM   37  C   UNL     1     -13.003  14.758  70.449  1.00  0.00    -0.223 C  
HETATM   38  C   UNL     1     -13.398  12.479  69.860  1.00  0.00     1.983 C  
ENDBRANCH  35  36
ENDBRANCH  18  35
ENDBRANCH   2   3
TORSDOF 3
ENDMDL
MODEL      114
REMARK 921   NORMALIZED FREE ENERGY PREDICTED BY IDOCK:   78.20 KCAL/MOL
REMARK 922        TOTAL FREE ENERGY PREDICTED BY IDOCK:   91.14 KCAL/MOL
REMARK 923 INTER-LIGAND FREE ENERGY PREDICTED BY IDOCK:   80.33 KCAL/MOL
REMARK 924 INTRA-LIGAND FREE ENERGY PREDICTED BY IDOCK:   10.80 KCAL/MOL
REMARK 927      BINDING AFFINITY PREDICTED BY RF-SCORE:    0.00 PKD
ROOT
HETATM    1  C   UNL     1     -12.046  13.471  67.473  1.00  0.00    -0.300 C  
HETATM    2  O   UNL     1     -10.729  13.125  67.069  1.00  0.00    -0.259 OA 
ENDROOT
BRANCH   2   3
HETATM    3  C   UNL     1      -9.811  13.028  68.089  1.00  0.00    -0.228 A  
HETATM    4  N   UNL     1      -8.701  13.813  68.018  1.00  0.00    -0.172 NA 
HETATM    5  C   UNL     1      -7.891  13.879  69.086  1.00  0.00     0.151 A  
HETATM    6  C   UNL     1      -8.212  13.231  70.292  1.00  0.00     3.604 A  
HETATM    7  C   UNL     1      -7.405  13.343  71.433  1.00  0.00     5.048 A  
HETATM    8  C   UNL     1      -9.351  12.432  70.321  1.00  0.00     4.685 A  
HETATM    9  C   UNL     1      -6.247  14.103  71.382  1.00  0.00     0.178 A  
HETATM   10  C   UNL     1     -10.132  12.211  69.179  1.00  0.00     0.220 A  
HETATM   11  C   UNL     1      -5.875  14.716  70.192  1.00  0.00    -0.139 A  
HETATM   12 BR   UNL     1      -5.197  14.307  72.938  1.00  0.00    -0.257 Br 
HETATM   13  C   UNL     1     -11.249  11.118  69.178  1.00  0.00    -0.328 C  
HETATM   14  C   UNL     1      -6.695  14.594  69.059  1.00  0.00    -0.103 A  
HETATM   15  C   UNL     1     -11.614  10.605  67.768  1.00  0.00    -0.063 A  
HETATM   16  C   UNL     1     -11.150   9.987  70.376  1.00  0.00    -0.327 C  
HETATM   17  O   UNL     1     -11.479  10.723  71.611  1.00  0.00     0.292 OA 
HETATM   18  C   UNL     1     -12.311   8.933  70.345  1.00  0.00     0.360 C  
HETATM   19  C   UNL     1      -9.750   9.347  70.706  1.00  0.00    -0.332 A  
HETATM   20  C   UNL     1     -10.733   9.887  66.943  1.00  0.00    -0.195 A  
HETATM   21  C   UNL     1      -7.684   7.797  73.470  1.00  0.00    -0.179 A  
HETATM   22  C   UNL     1      -8.686   9.504  69.793  1.00  0.00    -0.204 A  
HETATM   23  C   UNL     1     -11.041   9.617  65.605  1.00  0.00     1.896 A  
HETATM   24  H   UNL     1     -11.423  10.072  72.300  1.00  0.00     0.000 HD 
HETATM   25  C   UNL     1      -7.366   9.173  70.089  1.00  0.00    -0.077 A  
HETATM   26  C   UNL     1      -8.613   7.550  74.471  1.00  0.00    -0.204 A  
HETATM   27  C   UNL     1     -12.248  10.041  65.065  1.00  0.00     7.571 A  
HETATM   28  C   UNL     1      -7.060   8.615  71.312  1.00  0.00    -0.086 A  
HETATM   29  C   UNL     1     -13.165  10.704  65.872  1.00  0.00    10.977 A  
HETATM   30  C   UNL     1      -9.934   7.904  74.268  1.00  0.00     1.275 A  
HETATM   31  C   UNL     1     -10.320   8.495  73.056  1.00  0.00     0.229 A  
HETATM   32  C   UNL     1     -12.855  10.980  67.209  1.00  0.00     5.569 A  
HETATM   33  C   UNL     1      -8.065   8.375  72.247  1.00  0.00    -0.186 A  
HETATM   34  C   UNL     1      -9.423   8.738  71.980  1.00  0.00    -0.336 A  
BRANCH  18  35
HETATM   35  C   UNL     1     -12.356   7.881  69.232  1.00  0.00     2.640 C  
BRANCH  35  36
HETATM   36  N   UNL     1     -12.843   8.431  67.941  1.00  0.00     8.796 NA 
HETATM   37  C   UNL     1     -14.280   8.222  67.734  1.00  0.00    25.419 C  
HETATM   38  C   UNL     1     -12.110   7.806  66.834  1.00  0.00     5.398 C  
ENDBRANCH  35  36
ENDBRANCH  18  35
ENDBRANCH   2   3
TORSDOF 3
ENDMDL
MODEL      115
REMARK 921   NORMALIZED FREE ENERGY PREDICTED BY IDOCK:   79.12 KCAL/MOL
REMARK 922        TOTAL FREE ENERGY PREDICTED BY IDOCK:   92.21 KCAL/MOL
REMARK 923 INTER-LIGAND FREE ENERGY PREDICTED BY IDOCK:   92.76 KCAL/MOL
REMARK 924 INTRA-LIGAND FREE ENERGY PREDICTED BY IDOCK:   -0.55 KCAL/MOL
REMARK 927      BINDING AFFINITY PREDICTED BY RF-SCORE:    0.00 PKD
ROOT
HETATM    1  C   UNL     1      -7.066  12.475  64.852  1.00  0.00     6.686 C  
HETATM    2  O   UNL     1      -7.691  13.123  65.951  1.00  0.00     1.937 OA 
ENDROOT
BRANCH   2   3
HETATM    3  C   UNL     1      -7.576  14.494  65.963  1.00  0.00     3.398 A  
HETATM    4  N   UNL     1      -7.162  15.105  64.818  1.00  0.00    11.291 NA 
HETATM    5  C   UNL     1      -7.226  16.443  64.744  1.00  0.00     8.029 A  
HETATM    6  C   UNL     1      -7.789  17.210  65.780  1.00  0.00     0.250 A  
HETATM    7  C   UNL     1      -7.918  18.603  65.688  1.00  0.00     0.325 A  
HETATM    8  C   UNL     1      -8.194  16.549  66.935  1.00  0.00    -0.250 A  
HETATM    9  C   UNL     1      -7.469  19.259  64.552  1.00  0.00     2.314 A  
HETATM   10  C   UNL     1      -7.994  15.174  67.113  1.00  0.00    -0.248 A  
HETATM   11  C   UNL     1      -6.862  18.537  63.531  1.00  0.00     5.816 A  
HETATM   12 BR   UNL     1      -7.704  21.126  64.401  1.00  0.00     1.861 Br 
HETATM   13  C   UNL     1      -8.224  14.509  68.508  1.00  0.00    -0.154 C  
HETATM   14  C   UNL     1      -6.743  17.143  63.639  1.00  0.00    11.342 A  
HETATM   15  C   UNL     1      -7.452  13.185  68.701  1.00  0.00    -0.092 A  
HETATM   16  C   UNL     1      -8.262  15.538  69.798  1.00  0.00     0.011 C  
HETATM   17  O   UNL     1      -9.520  16.293  69.636  1.00  0.00    -0.146 OA 
HETATM   18  C   UNL     1      -8.525  14.823  71.169  1.00  0.00     3.358 C  
HETATM   19  C   UNL     1      -7.177  16.675  69.899  1.00  0.00     0.561 A  
HETATM   20  C   UNL     1      -6.051  13.094  68.746  1.00  0.00    -0.079 A  
HETATM   21  C   UNL     1      -6.527  20.159  71.222  1.00  0.00     0.020 A  
HETATM   22  C   UNL     1      -6.029  16.608  69.081  1.00  0.00    -0.162 A  
HETATM   23  C   UNL     1      -5.399  11.857  68.723  1.00  0.00    -0.049 A  
HETATM   24  H   UNL     1      -9.542  16.885  70.378  1.00  0.00     0.000 HD 
HETATM   25  C   UNL     1      -5.130  17.661  68.933  1.00  0.00    -0.158 A  
HETATM   26  C   UNL     1      -7.588  20.381  72.089  1.00  0.00     2.017 A  
HETATM   27  C   UNL     1      -6.133  10.679  68.676  1.00  0.00    -0.039 A  
HETATM   28  C   UNL     1      -5.319  18.826  69.648  1.00  0.00    -0.200 A  
HETATM   29  C   UNL     1      -7.521  10.735  68.688  1.00  0.00    -0.102 A  
HETATM   30  C   UNL     1      -8.550  19.399  72.244  1.00  0.00     5.515 A  
HETATM   31  C   UNL     1      -8.437  18.194  71.535  1.00  0.00    10.179 A  
HETATM   32  C   UNL     1      -8.175  11.972  68.704  1.00  0.00    -0.052 A  
HETATM   33  C   UNL     1      -6.399  18.948  70.520  1.00  0.00     0.249 A  
HETATM   34  C   UNL     1      -7.356  17.894  70.663  1.00  0.00     3.226 A  
BRANCH  18  35
HETATM   35  C   UNL     1      -7.436  13.943  71.789  1.00  0.00     5.207 C  
BRANCH  35  36
HETATM   36  N   UNL     1      -7.252  14.196  73.243  1.00  0.00     3.278 NA 
HETATM   37  C   UNL     1      -6.035  14.957  73.542  1.00  0.00     0.768 C  
HETATM   38  C   UNL     1      -7.199  12.916  73.959  1.00  0.00     6.854 C  
ENDBRANCH  35  36
ENDBRANCH  18  35
ENDBRANCH   2   3
TORSDOF 3
ENDMDL
MODEL      116
REMARK 921   NORMALIZED FREE ENERGY PREDICTED BY IDOCK:   79.54 KCAL/MOL
REMARK 922        TOTAL FREE ENERGY PREDICTED BY IDOCK:   92.71 KCAL/MOL
REMARK 923 INTER-LIGAND FREE ENERGY PREDICTED BY IDOCK:   85.33 KCAL/MOL
REMARK 924 INTRA-LIGAND FREE ENERGY PREDICTED BY IDOCK:    7.38 KCAL/MOL
REMARK 927      BINDING AFFINITY PREDICTED BY RF-SCORE:    0.00 PKD
ROOT
HETATM    1  C   UNL     1      -8.450  19.586  72.016  1.00  0.00     4.653 C  
HETATM    2  O   UNL     1      -7.280  19.269  71.275  1.00  0.00     1.695 OA 
ENDROOT
BRANCH   2   3
HETATM    3  C   UNL     1      -7.461  19.167  69.915  1.00  0.00     0.455 A  
HETATM    4  N   UNL     1      -7.424  20.315  69.183  1.00  0.00     0.083 NA 
HETATM    5  C   UNL     1      -7.404  20.224  67.845  1.00  0.00    -0.276 A  
HETATM    6  C   UNL     1      -7.331  18.979  67.194  1.00  0.00    -0.227 A  
HETATM    7  C   UNL     1      -7.248  18.874  65.799  1.00  0.00    -0.246 A  
HETATM    8  C   UNL     1      -7.379  17.830  67.976  1.00  0.00    -0.220 A  
HETATM    9  C   UNL     1      -7.248  20.023  65.023  1.00  0.00     0.085 A  
HETATM   10  C   UNL     1      -7.562  17.883  69.364  1.00  0.00     0.199 A  
HETATM   11  C   UNL     1      -7.369  21.267  65.631  1.00  0.00     0.900 A  
HETATM   12 BR   UNL     1      -7.069  19.883  63.149  1.00  0.00     3.607 Br 
HETATM   13  C   UNL     1      -7.863  16.584  70.179  1.00  0.00     1.599 C  
HETATM   14  C   UNL     1      -7.451  21.354  67.030  1.00  0.00     0.257 A  
HETATM   15  C   UNL     1      -8.580  16.845  71.522  1.00  0.00     9.364 A  
HETATM   16  C   UNL     1      -8.385  15.288  69.300  1.00  0.00    -0.243 C  
HETATM   17  O   UNL     1      -7.204  14.865  68.523  1.00  0.00    -0.104 OA 
HETATM   18  C   UNL     1      -8.645  14.004  70.162  1.00  0.00     2.104 C  
HETATM   19  C   UNL     1      -9.479  15.512  68.190  1.00  0.00    -0.198 A  
HETATM   20  C   UNL     1      -9.880  17.366  71.628  1.00  0.00     6.489 A  
HETATM   21  C   UNL     1     -10.772  14.214  64.880  1.00  0.00    -0.444 A  
HETATM   22  C   UNL     1     -10.211  16.719  68.174  1.00  0.00    -0.301 A  
HETATM   23  C   UNL     1     -10.408  17.768  72.859  1.00  0.00     5.751 A  
HETATM   24  H   UNL     1      -7.505  14.120  68.017  1.00  0.00     0.000 HD 
HETATM   25  C   UNL     1     -11.032  17.104  67.117  1.00  0.00     0.040 A  
HETATM   26  C   UNL     1     -10.148  12.981  64.748  1.00  0.00    -0.239 A  
HETATM   27  C   UNL     1      -9.656  17.638  74.019  1.00  0.00    11.221 A  
HETATM   28  C   UNL     1     -11.197  16.261  66.038  1.00  0.00     0.262 A  
HETATM   29  C   UNL     1      -8.387  17.074  73.955  1.00  0.00    18.239 A  
HETATM   30  C   UNL     1      -9.275  12.557  65.734  1.00  0.00     0.111 A  
HETATM   31  C   UNL     1      -9.040  13.369  66.853  1.00  0.00    -0.237 A  
HETATM   32  C   UNL     1      -7.856  16.677  72.722  1.00  0.00    16.251 A  
HETATM   33  C   UNL     1     -10.553  15.026  66.006  1.00  0.00    -0.329 A  
HETATM   34  C   UNL     1      -9.677  14.622  67.062  1.00  0.00    -0.247 A  
BRANCH  18  35
HETATM   35  C   UNL     1      -9.843  13.955  71.114  1.00  0.00     5.411 C  
BRANCH  35  36
HETATM   36  N   UNL     1     -11.111  13.599  70.423  1.00  0.00     0.423 NA 
HETATM   37  C   UNL     1     -10.974  13.548  68.964  1.00  0.00    -0.225 C  
HETATM   38  C   UNL     1     -12.148  14.579  70.767  1.00  0.00    -0.329 C  
ENDBRANCH  35  36
ENDBRANCH  18  35
ENDBRANCH   2   3
TORSDOF 3
ENDMDL
MODEL      117
REMARK 921   NORMALIZED FREE ENERGY PREDICTED BY IDOCK:   88.21 KCAL/MOL
REMARK 922        TOTAL FREE ENERGY PREDICTED BY IDOCK:  102.90 KCAL/MOL
REMARK 923 INTER-LIGAND FREE ENERGY PREDICTED BY IDOCK:  101.52 KCAL/MOL
REMARK 924 INTRA-LIGAND FREE ENERGY PREDICTED BY IDOCK:    1.38 KCAL/MOL
REMARK 927      BINDING AFFINITY PREDICTED BY RF-SCORE:    0.00 PKD
ROOT
HETATM    1  C   UNL     1     -14.112   6.954  72.223  1.00  0.00     0.154 C  
HETATM    2  O   UNL     1     -14.133   7.446  70.891  1.00  0.00    -0.143 OA 
ENDROOT
BRANCH   2   3
HETATM    3  C   UNL     1     -13.135   6.966  70.074  1.00  0.00     2.103 A  
HETATM    4  N   UNL     1     -13.187   5.653  69.716  1.00  0.00     7.731 NA 
HETATM    5  C   UNL     1     -12.342   5.210  68.774  1.00  0.00     9.456 A  
HETATM    6  C   UNL     1     -11.475   6.085  68.094  1.00  0.00     0.537 A  
HETATM    7  C   UNL     1     -10.631   5.644  67.065  1.00  0.00    -0.358 A  
HETATM    8  C   UNL     1     -11.446   7.417  68.494  1.00  0.00     0.661 A  
HETATM    9  C   UNL     1     -10.632   4.306  66.703  1.00  0.00     0.602 A  
HETATM   10  C   UNL     1     -12.197   7.882  69.583  1.00  0.00     1.458 A  
HETATM   11  C   UNL     1     -11.440   3.406  67.388  1.00  0.00     9.068 A  
HETATM   12 BR   UNL     1      -9.545   3.727  65.273  1.00  0.00    -0.165 Br 
HETATM   13  C   UNL     1     -11.956   9.311  70.165  1.00  0.00     0.164 C  
HETATM   14  C   UNL     1     -12.279   3.864  68.415  1.00  0.00    17.506 A  
HETATM   15  C   UNL     1     -12.406   9.468  71.634  1.00  0.00    -0.480 A  
HETATM   16  C   UNL     1     -10.528  10.026  69.747  1.00  0.00    -0.256 C  
HETATM   17  O   UNL     1     -10.669  10.329  68.310  1.00  0.00    -0.205 OA 
HETATM   18  C   UNL     1     -10.350  11.470  70.334  1.00  0.00     2.072 C  
HETATM   19  C   UNL     1      -9.204   9.175  69.803  1.00  0.00    -0.179 A  
HETATM   20  C   UNL     1     -11.813   8.790  72.712  1.00  0.00     0.071 A  
HETATM   21  C   UNL     1      -5.766   8.784  68.273  1.00  0.00    -0.039 A  
HETATM   22  C   UNL     1      -9.203   7.944  70.491  1.00  0.00    -0.158 A  
HETATM   23  C   UNL     1     -12.381   8.814  73.989  1.00  0.00     6.207 A  
HETATM   24  H   UNL     1      -9.847  10.740  68.069  1.00  0.00     0.000 HD 
HETATM   25  C   UNL     1      -8.163   7.021  70.412  1.00  0.00    -0.124 A  
HETATM   26  C   UNL     1      -5.594   9.960  67.556  1.00  0.00    -0.039 A  
HETATM   27  C   UNL     1     -13.544   9.534  74.226  1.00  0.00     7.726 A  
HETATM   28  C   UNL     1      -7.041   7.320  69.669  1.00  0.00    -0.073 A  
HETATM   29  C   UNL     1     -14.123  10.261  73.193  1.00  0.00     2.123 A  
HETATM   30  C   UNL     1      -6.609  10.899  67.544  1.00  0.00    -0.063 A  
HETATM   31  C   UNL     1      -7.790  10.657  68.260  1.00  0.00    -0.113 A  
HETATM   32  C   UNL     1     -13.560  10.234  71.912  1.00  0.00    -0.292 A  
HETATM   33  C   UNL     1      -6.941   8.541  69.006  1.00  0.00    -0.064 A  
HETATM   34  C   UNL     1      -8.011   9.491  69.043  1.00  0.00    -0.092 A  
BRANCH  18  35
HETATM   35  C   UNL     1     -10.108  11.658  71.834  1.00  0.00    12.087 C  
BRANCH  35  36
HETATM   36  N   UNL     1     -10.221  13.077  72.261  1.00  0.00    11.341 NA 
HETATM   37  C   UNL     1     -10.768  13.226  73.613  1.00  0.00    11.136 C  
HETATM   38  C   UNL     1     -11.081  13.804  71.319  1.00  0.00     2.161 C  
ENDBRANCH  35  36
ENDBRANCH  18  35
ENDBRANCH   2   3
TORSDOF 3
ENDMDL
MODEL      118
REMARK 921   NORMALIZED FREE ENERGY PREDICTED BY IDOCK:   88.31 KCAL/MOL
REMARK 922        TOTAL FREE ENERGY PREDICTED BY IDOCK:  103.02 KCAL/MOL
REMARK 923 INTER-LIGAND FREE ENERGY PREDICTED BY IDOCK:  101.00 KCAL/MOL
REMARK 924 INTRA-LIGAND FREE ENERGY PREDICTED BY IDOCK:    2.02 KCAL/MOL
REMARK 927      BINDING AFFINITY PREDICTED BY RF-SCORE:    0.00 PKD
ROOT
HETATM    1  C   UNL     1      -9.968  16.863  63.638  1.00  0.00     9.037 C  
HETATM    2  O   UNL     1      -9.164  16.855  64.809  1.00  0.00     1.844 OA 
ENDROOT
BRANCH   2   3
HETATM    3  C   UNL     1      -9.773  16.346  65.932  1.00  0.00    -0.294 A  
HETATM    4  N   UNL     1     -10.998  15.769  65.782  1.00  0.00    -0.263 NA 
HETATM    5  C   UNL     1     -11.524  15.098  66.818  1.00  0.00    -0.195 A  
HETATM    6  C   UNL     1     -10.803  14.907  68.011  1.00  0.00    -0.263 A  
HETATM    7  C   UNL     1     -11.318  14.156  69.078  1.00  0.00    -0.310 A  
HETATM    8  C   UNL     1      -9.559  15.519  68.128  1.00  0.00    -0.199 A  
HETATM    9  C   UNL     1     -12.578  13.588  68.971  1.00  0.00     0.479 A  
HETATM   10  C   UNL     1      -9.049  16.360  67.131  1.00  0.00    -0.220 A  
HETATM   11  C   UNL     1     -13.336  13.799  67.826  1.00  0.00     4.347 A  
HETATM   12 BR   UNL     1     -13.241  12.522  70.381  1.00  0.00     1.091 Br 
HETATM   13  C   UNL     1      -7.777  17.228  67.394  1.00  0.00    -0.194 C  
HETATM   14  C   UNL     1     -12.805  14.553  66.767  1.00  0.00     0.866 A  
HETATM   15  C   UNL     1      -7.670  18.468  66.480  1.00  0.00    -0.278 A  
HETATM   16  C   UNL     1      -7.365  17.438  68.978  1.00  0.00    -0.204 C  
HETATM   17  O   UNL     1      -6.895  16.111  69.421  1.00  0.00    -0.198 OA 
HETATM   18  C   UNL     1      -6.065  18.292  69.184  1.00  0.00    -0.234 C  
HETATM   19  C   UNL     1      -8.494  17.781  70.020  1.00  0.00     2.146 A  
HETATM   20  C   UNL     1      -8.569  19.546  66.514  1.00  0.00    -0.374 A  
HETATM   21  C   UNL     1      -9.497  17.434  73.652  1.00  0.00    13.255 A  
HETATM   22  C   UNL     1      -9.757  18.206  69.556  1.00  0.00     0.303 A  
HETATM   23  C   UNL     1      -8.547  20.547  65.538  1.00  0.00     0.613 A  
HETATM   24  H   UNL     1      -6.659  16.232  70.332  1.00  0.00     0.000 HD 
HETATM   25  C   UNL     1     -10.879  18.317  70.374  1.00  0.00     2.286 A  
HETATM   26  C   UNL     1      -8.325  17.031  74.276  1.00  0.00    18.280 A  
HETATM   27  C   UNL     1      -7.609  20.506  64.514  1.00  0.00     1.018 A  
HETATM   28  C   UNL     1     -10.768  18.052  71.723  1.00  0.00     3.087 A  
HETATM   29  C   UNL     1      -6.670  19.482  64.484  1.00  0.00     0.346 A  
HETATM   30  C   UNL     1      -7.185  16.846  73.516  1.00  0.00    11.796 A  
HETATM   31  C   UNL     1      -7.223  17.077  72.133  1.00  0.00     9.063 A  
HETATM   32  C   UNL     1      -6.696  18.477  65.458  1.00  0.00    -0.270 A  
HETATM   33  C   UNL     1      -9.540  17.682  72.269  1.00  0.00    10.418 A  
HETATM   34  C   UNL     1      -8.382  17.526  71.443  1.00  0.00     9.598 A  
BRANCH  18  35
HETATM   35  C   UNL     1      -6.089  19.796  68.898  1.00  0.00    -0.264 C  
BRANCH  35  36
HETATM   36  N   UNL     1      -6.588  20.592  70.050  1.00  0.00    -0.205 NA 
HETATM   37  C   UNL     1      -6.877  19.772  71.231  1.00  0.00     0.671 C  
HETATM   38  C   UNL     1      -7.809  21.307  69.659  1.00  0.00     4.424 C  
ENDBRANCH  35  36
ENDBRANCH  18  35
ENDBRANCH   2   3
TORSDOF 3
ENDMDL
MODEL      119
REMARK 921   NORMALIZED FREE ENERGY PREDICTED BY IDOCK:   88.62 KCAL/MOL
REMARK 922        TOTAL FREE ENERGY PREDICTED BY IDOCK:  103.39 KCAL/MOL
REMARK 923 INTER-LIGAND FREE ENERGY PREDICTED BY IDOCK:   74.56 KCAL/MOL
REMARK 924 INTRA-LIGAND FREE ENERGY PREDICTED BY IDOCK:   28.83 KCAL/MOL
REMARK 927      BINDING AFFINITY PREDICTED BY RF-SCORE:    0.00 PKD
ROOT
HETATM    1  C   UNL     1      -7.783  16.743  69.168  1.00  0.00    -0.165 C  
HETATM    2  O   UNL     1      -6.712  16.480  68.273  1.00  0.00    -0.131 OA 
ENDROOT
BRANCH   2   3
HETATM    3  C   UNL     1      -6.864  15.357  67.494  1.00  0.00    -0.194 A  
HETATM    4  N   UNL     1      -6.223  15.328  66.292  1.00  0.00     2.372 NA 
HETATM    5  C   UNL     1      -6.198  14.176  65.605  1.00  0.00     9.945 A  
HETATM    6  C   UNL     1      -6.738  12.991  66.137  1.00  0.00     3.443 A  
HETATM    7  C   UNL     1      -6.663  11.769  65.454  1.00  0.00     2.018 A  
HETATM    8  C   UNL     1      -7.391  13.064  67.363  1.00  0.00    -0.122 A  
HETATM    9  C   UNL     1      -6.052  11.714  64.211  1.00  0.00     2.982 A  
HETATM   10  C   UNL     1      -7.578  14.280  68.034  1.00  0.00    -0.144 A  
HETATM   11  C   UNL     1      -5.552  12.876  63.635  1.00  0.00    10.453 A  
HETATM   12 BR   UNL     1      -5.893  10.055  63.324  1.00  0.00    -0.135 Br 
HETATM   13  C   UNL     1      -8.526  14.369  69.272  1.00  0.00     0.171 C  
HETATM   14  C   UNL     1      -5.635  14.091  64.333  1.00  0.00    20.288 A  
HETATM   15  C   UNL     1      -9.067  15.791  69.539  1.00  0.00    -0.202 A  
HETATM   16  C   UNL     1      -9.596  13.124  69.450  1.00  0.00     1.018 C  
HETATM   17  O   UNL     1      -8.761  11.965  69.820  1.00  0.00     0.767 OA 
HETATM   18  C   UNL     1     -10.503  13.250  70.724  1.00  0.00     3.816 C  
HETATM   19  C   UNL     1     -10.381  12.608  68.187  1.00  0.00    -0.238 A  
HETATM   20  C   UNL     1      -9.928  16.478  68.669  1.00  0.00    -0.248 A  
HETATM   21  C   UNL     1     -12.019   9.563  66.652  1.00  0.00     5.079 A  
HETATM   22  C   UNL     1     -10.402  13.396  67.017  1.00  0.00    -0.247 A  
HETATM   23  C   UNL     1     -10.230  17.831  68.858  1.00  0.00    -0.345 A  
HETATM   24  H   UNL     1      -9.376  11.249  69.922  1.00  0.00     0.000 HD 
HETATM   25  C   UNL     1     -10.873  12.935  65.789  1.00  0.00    -0.292 A  
HETATM   26  C   UNL     1     -12.098   8.668  67.710  1.00  0.00     4.693 A  
HETATM   27  C   UNL     1      -9.694  18.524  69.935  1.00  0.00     0.877 A  
HETATM   28  C   UNL     1     -11.398  11.663  65.694  1.00  0.00    -0.233 A  
HETATM   29  C   UNL     1      -8.883  17.858  70.845  1.00  0.00     6.186 A  
HETATM   30  C   UNL     1     -11.599   9.038  68.946  1.00  0.00     0.837 A  
HETATM   31  C   UNL     1     -11.032  10.309  69.117  1.00  0.00    -0.280 A  
HETATM   32  C   UNL     1      -8.575  16.506  70.654  1.00  0.00     3.626 A  
HETATM   33  C   UNL     1     -11.465  10.844  66.819  1.00  0.00     0.202 A  
HETATM   34  C   UNL     1     -10.956  11.281  68.083  1.00  0.00    -0.284 A  
BRANCH  18  35
HETATM   35  C   UNL     1     -11.599  14.317  70.776  1.00  0.00    -0.120 C  
BRANCH  35  36
HETATM   36  N   UNL     1     -12.301  14.484  69.476  1.00  0.00    -0.258 NA 
HETATM   37  C   UNL     1     -11.972  13.433  68.508  1.00  0.00    -0.328 C  
HETATM   38  C   UNL     1     -11.954  15.788  68.897  1.00  0.00    -0.252 C  
ENDBRANCH  35  36
ENDBRANCH  18  35
ENDBRANCH   2   3
TORSDOF 3
ENDMDL
MODEL      120
REMARK 921   NORMALIZED FREE ENERGY PREDICTED BY IDOCK:   93.55 KCAL/MOL
REMARK 922        TOTAL FREE ENERGY PREDICTED BY IDOCK:  109.18 KCAL/MOL
REMARK 923 INTER-LIGAND FREE ENERGY PREDICTED BY IDOCK:   95.17 KCAL/MOL
REMARK 924 INTRA-LIGAND FREE ENERGY PREDICTED BY IDOCK:   14.01 KCAL/MOL
REMARK 927      BINDING AFFINITY PREDICTED BY RF-SCORE:    0.00 PKD
ROOT
HETATM    1  C   UNL     1     -11.059  19.394  68.487  1.00  0.00     1.016 C  
HETATM    2  O   UNL     1     -11.571  18.073  68.376  1.00  0.00     0.966 OA 
ENDROOT
BRANCH   2   3
HETATM    3  C   UNL     1     -10.836  17.228  67.578  1.00  0.00    -0.206 A  
HETATM    4  N   UNL     1     -11.006  17.322  66.230  1.00  0.00     0.090 NA 
HETATM    5  C   UNL     1     -10.168  16.649  65.427  1.00  0.00    -0.111 A  
HETATM    6  C   UNL     1      -9.075  15.929  65.945  1.00  0.00    -0.304 A  
HETATM    7  C   UNL     1      -8.157  15.273  65.113  1.00  0.00     5.477 A  
HETATM    8  C   UNL     1      -8.941  15.850  67.327  1.00  0.00    -0.209 A  
HETATM    9  C   UNL     1      -8.325  15.317  63.737  1.00  0.00    16.076 A  
HETATM   10  C   UNL     1      -9.888  16.405  68.198  1.00  0.00    -0.238 A  
HETATM   11  C   UNL     1      -9.421  15.978  63.195  1.00  0.00    15.041 A  
HETATM   12 BR   UNL     1      -7.051  14.489  62.616  1.00  0.00    24.681 Br 
HETATM   13  C   UNL     1      -9.847  16.087  69.727  1.00  0.00    -0.126 C  
HETATM   14  C   UNL     1     -10.330  16.630  64.043  1.00  0.00     3.797 A  
HETATM   15  C   UNL     1     -11.206  16.273  70.437  1.00  0.00    -0.336 A  
HETATM   16  C   UNL     1      -8.959  14.765  70.163  1.00  0.00     0.874 C  
HETATM   17  O   UNL     1      -7.558  15.162  69.921  1.00  0.00    -0.270 OA 
HETATM   18  C   UNL     1      -8.927  14.509  71.710  1.00  0.00     5.898 C  
HETATM   19  C   UNL     1      -9.103  13.440  69.325  1.00  0.00     0.788 A  
HETATM   20  C   UNL     1     -12.342  15.490  70.175  1.00  0.00    -0.384 A  
HETATM   21  C   UNL     1      -7.271  10.320  68.221  1.00  0.00    -0.083 A  
HETATM   22  C   UNL     1     -10.189  13.299  68.436  1.00  0.00    -0.249 A  
HETATM   23  C   UNL     1     -13.595  15.824  70.697  1.00  0.00     0.494 A  
HETATM   24  H   UNL     1      -7.047  14.402  70.172  1.00  0.00     0.000 HD 
HETATM   25  C   UNL     1     -10.284  12.275  67.497  1.00  0.00    -0.212 A  
HETATM   26  C   UNL     1      -6.150  10.294  69.040  1.00  0.00    -0.037 A  
HETATM   27  C   UNL     1     -13.740  16.939  71.513  1.00  0.00     6.342 A  
HETATM   28  C   UNL     1      -9.305  11.306  67.443  1.00  0.00    -0.168 A  
HETATM   29  C   UNL     1     -12.624  17.701  71.837  1.00  0.00     7.237 A  
HETATM   30  C   UNL     1      -5.962  11.309  69.959  1.00  0.00    -0.131 A  
HETATM   31  C   UNL     1      -6.905  12.342  70.060  1.00  0.00     0.515 A  
HETATM   32  C   UNL     1     -11.370  17.372  71.310  1.00  0.00     1.745 A  
HETATM   33  C   UNL     1      -8.228  11.343  68.327  1.00  0.00    -0.150 A  
HETATM   34  C   UNL     1      -8.090  12.404  69.277  1.00  0.00     0.643 A  
BRANCH  18  35
HETATM   35  C   UNL     1     -10.186  14.009  72.425  1.00  0.00     6.867 C  
BRANCH  35  36
HETATM   36  N   UNL     1     -11.369  14.877  72.180  1.00  0.00    -0.145 NA 
HETATM   37  C   UNL     1     -11.524  15.932  73.186  1.00  0.00     0.178 C  
HETATM   38  C   UNL     1     -12.584  14.054  72.165  1.00  0.00    -0.193 C  
ENDBRANCH  35  36
ENDBRANCH  18  35
ENDBRANCH   2   3
TORSDOF 3
ENDMDL
MODEL      121
REMARK 921   NORMALIZED FREE ENERGY PREDICTED BY IDOCK:   97.02 KCAL/MOL
REMARK 922        TOTAL FREE ENERGY PREDICTED BY IDOCK:  113.26 KCAL/MOL
REMARK 923 INTER-LIGAND FREE ENERGY PREDICTED BY IDOCK:  104.64 KCAL/MOL
REMARK 924 INTRA-LIGAND FREE ENERGY PREDICTED BY IDOCK:    8.62 KCAL/MOL
REMARK 927      BINDING AFFINITY PREDICTED BY RF-SCORE:    0.00 PKD
ROOT
HETATM    1  C   UNL     1     -10.156   9.313  71.205  1.00  0.00    -0.304 C  
HETATM    2  O   UNL     1      -9.289   8.261  70.804  1.00  0.00    -0.154 OA 
ENDROOT
BRANCH   2   3
HETATM    3  C   UNL     1      -9.673   7.589  69.667  1.00  0.00    -0.167 A  
HETATM    4  N   UNL     1      -9.184   6.333  69.478  1.00  0.00    -0.139 NA 
HETATM    5  C   UNL     1      -9.691   5.588  68.483  1.00  0.00    -0.134 A  
HETATM    6  C   UNL     1     -10.766   6.044  67.699  1.00  0.00    -0.377 A  
HETATM    7  C   UNL     1     -11.344   5.251  66.698  1.00  0.00     0.918 A  
HETATM    8  C   UNL     1     -11.232   7.336  67.918  1.00  0.00     0.150 A  
HETATM    9  C   UNL     1     -10.843   3.981  66.454  1.00  0.00     1.582 A  
HETATM   10  C   UNL     1     -10.622   8.200  68.837  1.00  0.00    -0.161 A  
HETATM   11  C   UNL     1      -9.749   3.519  67.177  1.00  0.00    -0.053 A  
HETATM   12 BR   UNL     1     -11.665   2.889  65.152  1.00  0.00     6.246 Br 
HETATM   13  C   UNL     1     -11.002   9.715  68.881  1.00  0.00    -0.153 C  
HETATM   14  C   UNL     1      -9.184   4.326  68.177  1.00  0.00    -0.186 A  
HETATM   15  C   UNL     1      -9.907  10.613  69.495  1.00  0.00    -0.115 A  
HETATM   16  C   UNL     1     -11.778  10.300  67.546  1.00  0.00     1.001 C  
HETATM   17  O   UNL     1     -13.114   9.674  67.587  1.00  0.00     7.555 OA 
HETATM   18  C   UNL     1     -12.162  11.817  67.655  1.00  0.00     0.420 C  
HETATM   19  C   UNL     1     -11.244   9.904  66.119  1.00  0.00     1.018 A  
HETATM   20  C   UNL     1      -8.643  10.815  68.916  1.00  0.00    -0.155 A  
HETATM   21  C   UNL     1     -12.282   9.337  62.526  1.00  0.00    13.390 A  
HETATM   22  C   UNL     1      -9.959   9.332  65.996  1.00  0.00    -0.325 A  
HETATM   23  C   UNL     1      -7.621  11.475  69.606  1.00  0.00     0.422 A  
HETATM   24  H   UNL     1     -13.560  10.011  66.820  1.00  0.00     0.000 HD 
HETATM   25  C   UNL     1      -9.488   8.748  64.823  1.00  0.00     0.572 A  
HETATM   26  C   UNL     1     -13.558   9.881  62.467  1.00  0.00    10.953 A  
HETATM   27  C   UNL     1      -7.844  11.968  70.885  1.00  0.00     6.395 A  
HETATM   28  C   UNL     1     -10.277   8.759  63.691  1.00  0.00     5.012 A  
HETATM   29  C   UNL     1      -9.100  11.833  71.463  1.00  0.00    13.561 A  
HETATM   30  C   UNL     1     -14.112  10.428  63.609  1.00  0.00     8.098 A  
HETATM   31  C   UNL     1     -13.380  10.437  64.804  1.00  0.00    10.061 A  
HETATM   32  C   UNL     1     -10.123  11.168  70.776  1.00  0.00     3.064 A  
HETATM   33  C   UNL     1     -11.536   9.356  63.716  1.00  0.00     9.858 A  
HETATM   34  C   UNL     1     -12.056   9.931  64.919  1.00  0.00     7.804 A  
BRANCH  18  35
HETATM   35  C   UNL     1     -11.066  12.886  67.597  1.00  0.00    -0.264 C  
BRANCH  35  36
HETATM   36  N   UNL     1     -11.160  13.739  66.383  1.00  0.00    -0.305 NA 
HETATM   37  C   UNL     1     -11.825  15.022  66.635  1.00  0.00    -0.063 C  
HETATM   38  C   UNL     1     -11.896  13.022  65.335  1.00  0.00    -0.388 C  
ENDBRANCH  35  36
ENDBRANCH  18  35
ENDBRANCH   2   3
TORSDOF 3
ENDMDL
MODEL      122
REMARK 921   NORMALIZED FREE ENERGY PREDICTED BY IDOCK:   98.89 KCAL/MOL
REMARK 922        TOTAL FREE ENERGY PREDICTED BY IDOCK:  115.45 KCAL/MOL
REMARK 923 INTER-LIGAND FREE ENERGY PREDICTED BY IDOCK:  108.45 KCAL/MOL
REMARK 924 INTRA-LIGAND FREE ENERGY PREDICTED BY IDOCK:    7.01 KCAL/MOL
REMARK 927      BINDING AFFINITY PREDICTED BY RF-SCORE:    0.00 PKD
ROOT
HETATM    1  C   UNL     1     -11.120   9.162  71.156  1.00  0.00    -0.323 C  
HETATM    2  O   UNL     1     -10.964   8.009  70.341  1.00  0.00    -0.246 OA 
ENDROOT
BRANCH   2   3
HETATM    3  C   UNL     1     -11.202   8.205  69.000  1.00  0.00     0.417 A  
HETATM    4  N   UNL     1     -11.563   7.123  68.257  1.00  0.00     0.593 NA 
HETATM    5  C   UNL     1     -11.986   7.320  66.998  1.00  0.00     3.276 A  
HETATM    6  C   UNL     1     -12.145   8.614  66.471  1.00  0.00     7.642 A  
HETATM    7  C   UNL     1     -12.643   8.834  65.179  1.00  0.00    18.029 A  
HETATM    8  C   UNL     1     -11.757   9.693  67.259  1.00  0.00     2.201 A  
HETATM    9  C   UNL     1     -12.983   7.752  64.382  1.00  0.00    23.392 A  
HETATM   10  C   UNL     1     -11.161   9.518  68.516  1.00  0.00     0.060 A  
HETATM   11  C   UNL     1     -12.792   6.458  64.854  1.00  0.00    10.175 A  
HETATM   12 BR   UNL     1     -13.717   8.051  62.669  1.00  0.00    17.094 Br 
HETATM   13  C   UNL     1     -10.510  10.725  69.264  1.00  0.00    -0.243 C  
HETATM   14  C   UNL     1     -12.292   6.257  66.151  1.00  0.00     5.054 A  
HETATM   15  C   UNL     1      -9.441  10.312  70.298  1.00  0.00     0.288 A  
HETATM   16  C   UNL     1     -10.171  12.048  68.336  1.00  0.00    -0.209 C  
HETATM   17  O   UNL     1     -11.491  12.610  67.991  1.00  0.00    -0.274 OA 
HETATM   18  C   UNL     1      -9.546  13.240  69.141  1.00  0.00     0.496 C  
HETATM   19  C   UNL     1      -9.495  11.838  66.929  1.00  0.00    -0.200 A  
HETATM   20  C   UNL     1      -8.223   9.697  69.964  1.00  0.00    -0.197 A  
HETATM   21  C   UNL     1      -9.173  13.303  63.456  1.00  0.00     4.166 A  
HETATM   22  C   UNL     1      -8.914  10.590  66.620  1.00  0.00    -0.155 A  
HETATM   23  C   UNL     1      -7.380   9.166  70.946  1.00  0.00    -0.129 A  
HETATM   24  H   UNL     1     -11.295  13.371  67.457  1.00  0.00     0.000 HD 
HETATM   25  C   UNL     1      -8.495  10.234  65.340  1.00  0.00    -0.166 A  
HETATM   26  C   UNL     1      -9.696  14.581  63.592  1.00  0.00     5.825 A  
HETATM   27  C   UNL     1      -7.725   9.255  72.288  1.00  0.00     0.804 A  
HETATM   28  C   UNL     1      -8.596  11.146  64.311  1.00  0.00     0.261 A  
HETATM   29  C   UNL     1      -8.896   9.907  72.654  1.00  0.00     5.146 A  
HETATM   30  C   UNL     1     -10.182  14.984  64.822  1.00  0.00    -0.121 A  
HETATM   31  C   UNL     1     -10.132  14.105  65.914  1.00  0.00    -0.337 A  
HETATM   32  C   UNL     1      -9.743  10.434  71.673  1.00  0.00     4.331 A  
HETATM   33  C   UNL     1      -9.106  12.421  64.548  1.00  0.00     0.886 A  
HETATM   34  C   UNL     1      -9.576  12.799  65.846  1.00  0.00    -0.143 A  
BRANCH  18  35
HETATM   35  C   UNL     1      -8.113  13.133  69.671  1.00  0.00     1.441 C  
BRANCH  35  36
HETATM   36  N   UNL     1      -7.182  14.080  69.004  1.00  0.00    -0.109 NA 
HETATM   37  C   UNL     1      -6.226  13.413  68.115  1.00  0.00    -0.111 C  
HETATM   38  C   UNL     1      -6.438  14.833  70.021  1.00  0.00    -0.169 C  
ENDBRANCH  35  36
ENDBRANCH  18  35
ENDBRANCH   2   3
TORSDOF 3
ENDMDL
MODEL      123
REMARK 921   NORMALIZED FREE ENERGY PREDICTED BY IDOCK:  111.27 KCAL/MOL
REMARK 922        TOTAL FREE ENERGY PREDICTED BY IDOCK:  130.00 KCAL/MOL
REMARK 923 INTER-LIGAND FREE ENERGY PREDICTED BY IDOCK:  129.22 KCAL/MOL
REMARK 924 INTRA-LIGAND FREE ENERGY PREDICTED BY IDOCK:    0.78 KCAL/MOL
REMARK 927      BINDING AFFINITY PREDICTED BY RF-SCORE:    0.00 PKD
ROOT
HETATM    1  C   UNL     1     -12.802  12.666  70.672  1.00  0.00     0.056 C  
HETATM    2  O   UNL     1     -12.552  13.829  71.448  1.00  0.00    -0.348 OA 
ENDROOT
BRANCH   2   3
HETATM    3  C   UNL     1     -12.369  14.985  70.725  1.00  0.00    -0.343 A  
HETATM    4  N   UNL     1     -13.429  15.461  70.015  1.00  0.00     0.253 NA 
HETATM    5  C   UNL     1     -13.336  16.680  69.461  1.00  0.00     4.977 A  
HETATM    6  C   UNL     1     -12.213  17.500  69.675  1.00  0.00     5.287 A  
HETATM    7  C   UNL     1     -12.131  18.799  69.153  1.00  0.00     7.186 A  
HETATM    8  C   UNL     1     -11.149  16.974  70.400  1.00  0.00     0.547 A  
HETATM    9  C   UNL     1     -13.177  19.299  68.391  1.00  0.00    10.096 A  
HETATM   10  C   UNL     1     -11.143  15.649  70.855  1.00  0.00    -0.377 A  
HETATM   11  C   UNL     1     -14.279  18.497  68.120  1.00  0.00    10.966 A  
HETATM   12 BR   UNL     1     -13.094  21.071  67.746  1.00  0.00     8.452 Br 
HETATM   13  C   UNL     1      -9.842  15.013  71.441  1.00  0.00     2.205 C  
HETATM   14  C   UNL     1     -14.345  17.199  68.651  1.00  0.00     9.881 A  
HETATM   15  C   UNL     1      -9.816  13.471  71.365  1.00  0.00     8.416 A  
HETATM   16  C   UNL     1      -8.434  15.797  71.083  1.00  0.00     4.016 C  
HETATM   17  O   UNL     1      -8.502  17.055  71.851  1.00  0.00    10.379 OA 
HETATM   18  C   UNL     1      -7.164  15.133  71.719  1.00  0.00     2.929 C  
HETATM   19  C   UNL     1      -8.193  16.293  69.608  1.00  0.00     0.307 A  
HETATM   20  C   UNL     1      -9.781  12.746  70.162  1.00  0.00     3.522 A  
HETATM   21  C   UNL     1      -6.446  18.926  67.527  1.00  0.00    -0.199 A  
HETATM   22  C   UNL     1      -9.011  15.800  68.570  1.00  0.00    -0.194 A  
HETATM   23  C   UNL     1      -9.957  11.359  70.141  1.00  0.00     1.680 A  
HETATM   24  H   UNL     1      -7.692  17.506  71.645  1.00  0.00     0.000 HD 
HETATM   25  C   UNL     1      -9.027  16.336  67.284  1.00  0.00    -0.209 A  
HETATM   26  C   UNL     1      -5.559  19.511  68.421  1.00  0.00    -0.218 A  
HETATM   27  C   UNL     1     -10.151  10.659  71.324  1.00  0.00     3.196 A  
HETATM   28  C   UNL     1      -8.173  17.372  66.967  1.00  0.00    -0.240 A  
HETATM   29  C   UNL     1     -10.133  11.340  72.535  1.00  0.00    14.442 A  
HETATM   30  C   UNL     1      -5.528  19.066  69.730  1.00  0.00    -0.222 A  
HETATM   31  C   UNL     1      -6.380  18.029  70.135  1.00  0.00     0.183 A  
HETATM   32  C   UNL     1      -9.963  12.729  72.558  1.00  0.00    17.593 A  
HETATM   33  C   UNL     1      -7.293  17.876  67.922  1.00  0.00    -0.222 A  
HETATM   34  C   UNL     1      -7.282  17.367  69.259  1.00  0.00    -0.102 A  
BRANCH  18  35
HETATM   35  C   UNL     1      -6.656  13.791  71.184  1.00  0.00     0.978 C  
BRANCH  35  36
HETATM   36  N   UNL     1      -5.851  13.042  72.184  1.00  0.00     0.129 NA 
HETATM   37  C   UNL     1      -6.176  11.613  72.227  1.00  0.00     3.240 C  
HETATM   38  C   UNL     1      -6.066  13.617  73.517  1.00  0.00     0.978 C  
ENDBRANCH  35  36
ENDBRANCH  18  35
ENDBRANCH   2   3
TORSDOF 3
ENDMDL
